@<TRIPOS>MOLECULE
DN1
   68    65     1     0     0
SMALL
bcc


@<TRIPOS>ATOM
      1 N1         -0.2610    1.1630    2.2600 n3        1 DN1     -0.247000
      2 C2         -1.4300    0.4800    1.7640 c3        1 DN1      0.021000
      3 C1         -1.2080   -0.4640    0.5330 c2        1 DN1      0.318000
      4 O2         -1.9830   -1.3510    0.3140 o         1 DN1     -0.393000
      5 N3         -0.0550   -0.2740   -0.3370 n         1 DN1     -0.363000
      6 C4         -0.0040   -0.9230   -1.5950 c3        1 DN1      0.010000
      7 C5         -0.8210   -2.1920   -1.5400 c3        1 DN1     -0.171000
      8 C6         -0.3580   -4.1390   -3.2050 c3        1 DN1     -0.205500
      9 C7         -2.5500   -2.8870   -3.2690 c3        1 DN1     -0.205500
     10 C8         -1.0680   -2.7350   -3.0290 c3        1 DN1     -0.116000
     11 C9          1.4270   -1.2570   -1.9290 c2        1 DN1      0.280000
     12 O10         1.8100   -2.4370   -1.9110 o         1 DN1     -0.383000
     13 N11         2.3560   -0.1900   -2.3070 n         1 DN1     -0.334000
     14 C12         3.6640   -0.5070   -2.6940 c3        1 DN1      0.006000
     15 C13         4.5640   -0.4930   -1.4800 c3        1 DN1     -0.209000
     16 C14         5.7090   -1.4980   -1.6830 c3        1 DN1      0.187000
     17 F15         5.8580   -2.2610   -0.5620 f         1 DN1     -0.200500
     18 F16         6.8620   -0.8270   -1.9240 f         1 DN1     -0.200500
     19 C17         4.1690    0.5340   -3.7220 c3        1 DN1     -0.071000
     20 C18         4.2740   -0.1150   -5.0970 c2        1 DN1      0.310000
     21 O19         4.0270    0.5480   -6.1130 o         1 DN1     -0.563500
     22 O20         4.6500   -1.2480   -5.1980 o         1 DN1     -0.563500
     23 O21         5.3900    0.9870   -3.3440 oh        1 DN1     -0.377000
     24 C22        -2.0950   -0.5220    2.7250 c3        1 DN1     -0.099000
     25 C23        -2.3770    1.6180    1.4470 c3        1 DN1     -0.156000
     26 C24        -0.6780    2.5070    2.7390 c2        1 DN1      0.017000
     27 C25        -1.8720    2.8300    2.1200 c2        1 DN1     -0.077000
     28 C26         0.0300    3.4920    3.4780 c1        1 DN1     -0.153000
     29 C27        -2.3830    4.1300    2.2230 c1        1 DN1     -0.100000
     30 C28        -1.6850    5.1000    2.9520 c1        1 DN1     -0.148000
     31 C29        -0.4730    4.7720    3.5800 c1        1 DN1     -0.148000
     32 C30        -2.7170    0.2460    3.9280 c2        1 DN1     -0.153000
     33 C31        -1.9300    0.7650    5.2020 c1        1 DN1     -0.160000
     34 C32        -2.9090    1.3370    6.1520 c1        1 DN1     -0.488000
     35 S33        -4.3400    1.1990    5.5140 ss        1 DN1      0.518000
     36 C34        -4.1760    0.5190    4.1370 c1        1 DN1     -0.316000
     37 C35        -5.3400    0.0780    3.1890 c1        1 DN1      0.376000
     38 O36        -5.9880   -0.9170    3.4520 o         1 DN1     -0.546500
     39 O37        -5.7310    0.8600    2.2650 o         1 DN1     -0.546500
     40 H1          0.0990    0.6790    2.9730 hn        1 DN1      0.187000
     41 H3          0.5490    0.2680   -0.1190 hn        1 DN1      0.248000
     42 H4         -0.3490   -0.3630   -2.2450 h1        1 DN1      0.128000
     43 H5C1       -0.3270   -2.8850   -1.0080 hc        1 DN1      0.095000
     44 H5C2       -1.6500   -2.0140   -1.1310 hc        1 DN1      0.095000
     45 H6C1       -0.8000   -4.8080   -2.6290 hc        1 DN1      0.070000
     46 H6C2       -0.4230   -4.4170   -4.1280 hc        1 DN1      0.070000
     47 H6C3        0.6360   -4.0580   -2.9380 hc        1 DN1      0.070000
     48 H7C1       -2.6990   -3.1200   -4.1520 hc        1 DN1      0.070000
     49 H7C2       -2.9070   -3.5900   -2.6810 hc        1 DN1      0.070000
     50 H7C3       -2.9990   -2.0350   -3.0740 hc        1 DN1      0.070000
     51 H8         -0.7090   -2.1150   -3.6530 hc        1 DN1      0.111000
     52 H11         2.0640    0.7210   -2.3010 hn        1 DN1      0.220000
     53 H12         3.6750   -1.3930   -3.0950 h1        1 DN1      0.140000
     54 H13         4.9290    0.3870   -1.3630 hc        1 DN1      0.109000
     55 H13D        4.0420   -0.7410   -0.6780 hc        1 DN1      0.109000
     56 H14         5.5030   -2.0800   -2.4470 h2        1 DN1      0.178000
     57 H17         3.5260    1.3010   -3.7620 h1        1 DN1      0.092000
     58 H21         5.4180    1.8500   -3.4330 ho        1 DN1      0.228000
     59 H221       -2.7850   -1.0010    2.2610 hc        1 DN1      0.105500
     60 H222       -1.3820   -1.1930    3.0720 hc        1 DN1      0.105500
     61 H231       -2.3830    1.7690    0.4870 hc        1 DN1      0.158500
     62 H232       -3.2440    1.4070    1.7840 hc        1 DN1      0.158500
     63 H26         0.8620    3.2670    3.9090 ha        1 DN1      0.129000
     64 H27        -3.2720    4.3700    1.7640 ha        1 DN1      0.134000
     65 H28        -2.0370    6.0000    3.0220 ha        1 DN1      0.110000
     66 H29        -0.0440    5.4090    4.1500 ha        1 DN1      0.110000
     67 H31        -0.9500    0.7170    5.3370 DU        1 DN1      0.137500
     68 H32        -2.6990    1.7410    7.0470 DU        1 DN1      0.137500
@<TRIPOS>BOND
     1    1    2 1   
     2    1   26 1   
     3    1   40 1   
     4    2    3 1   
     5    2   24 1   
     6    2   25 1   
     7    3    4 1   
     8    3    5 1   
     9    5    6 1   
    10    5   41 1   
    11    6    7 1   
    12    6   11 1   
    13    6   42 1   
    14    7   10 1   
    15    7   43 1   
    16    7   44 1   
    17    8   10 1   
    18    8   45 1   
    19    8   46 1   
    20    8   47 1   
    21    9   10 1   
    22    9   48 1   
    23    9   49 1   
    24    9   50 1   
    25   10   51 1   
    26   11   12 1   
    27   11   13 1   
    28   13   14 1   
    29   13   52 1   
    30   14   15 1   
    31   14   19 1   
    32   14   53 1   
    33   15   16 1   
    34   15   54 1   
    35   15   55 1   
    36   16   17 1   
    37   16   18 1   
    38   16   56 1   
    39   19   20 1   
    40   19   23 1   
    41   19   57 1   
    42   20   21 1   
    43   20   22 1   
    44   23   58 1   
    45   24   32 1   
    46   24   59 1   
    47   24   60 1   
    48   25   27 1   
    49   25   61 1   
    50   25   62 1   
    51   26   27 1   
    52   26   28 1   
    53   27   29 1   
    54   28   63 1   
    55   29   64 1   
    56   30   31 1   
    57   30   65 1   
    58   31   66 1   
    59   32   33 1   
    60   32   36 1   
    61   33   34 1   
    62   34   35 1   
    63   35   36 1   
    64   37   38 1   
    65   37   39 1   
@<TRIPOS>SUBSTRUCTURE
     1 DN1         1 TEMP              0 ****  ****    0 ROOT
