@<TRIPOS>MOLECULE
DN2
   68    70     1     0     0
SMALL
bcc


@<TRIPOS>ATOM
      1 N1         -0.2820    0.4130   -2.9340 nh        1 DN2     -0.699600
      2 C2          0.1370   -0.9990   -2.7670 c3        1 DN2      0.140200
      3 C1          0.3880   -1.4080   -1.2900 c         1 DN2      0.675100
      4 O2          0.7000   -2.6000   -1.0520 o         1 DN2     -0.668100
      5 N3          0.2370   -0.5020   -0.2740 n         1 DN2     -0.534900
      6 C4          0.3540   -0.8740    1.1170 c3        1 DN2      0.038700
      7 C5          1.7270   -0.5610    1.7450 c3        1 DN2     -0.099400
      8 C6          4.1220   -1.2260    1.6360 c3        1 DN2     -0.094600
      9 C7          2.4530   -2.7790    2.6360 c3        1 DN2     -0.094600
     10 C8          2.6940   -1.7260    1.5720 c3        1 DN2     -0.069700
     11 C9         -0.7160   -0.1590    1.9830 c         1 DN2      0.637100
     12 O10        -1.2540    0.9100    1.6220 o         1 DN2     -0.642100
     13 N11        -1.0750   -0.8060    3.1510 n         1 DN2     -0.534900
     14 C12        -1.7840   -0.1150    4.2140 c3        1 DN2      0.078700
     15 C13        -3.2980   -0.3750    4.1820 c3        1 DN2     -0.126400
     16 C14        -4.0130    0.5020    3.1350 c3        1 DN2      0.371900
     17 F15        -5.1840   -0.0810    2.6890 f         1 DN2     -0.272800
     18 F16        -4.4840    1.6840    3.6750 f         1 DN2     -0.272800
     19 C17        -1.2550   -0.5320    5.6150 c3        1 DN2     -0.000900
     20 C18         0.2910   -0.4100    5.6750 c         1 DN2      0.892600
     21 O19         0.8010    0.6210    6.1750 o         1 DN2     -0.828800
     22 O20         0.9320   -1.4010    5.2060 o         1 DN2     -0.828800
     23 O21        -1.6600   -1.8580    5.9080 oh        1 DN2     -0.632800
     24 C22         1.3970   -1.3530   -3.5830 c3        1 DN2     -0.010100
     25 C23        -1.0650   -1.9000   -3.2530 c3        1 DN2     -0.034100
     26 C24        -1.5870    0.4080   -3.4770 ca        1 DN2      0.154600
     27 C25        -2.1170   -0.9120   -3.6240 ca        1 DN2     -0.145300
     28 C26        -2.3770    1.5150   -3.8010 ca        1 DN2     -0.147000
     29 C27        -3.4120   -1.1100   -4.0570 ca        1 DN2     -0.097000
     30 C28        -4.2030    0.0060   -4.3630 ca        1 DN2     -0.187000
     31 C29        -3.6860    1.2920   -4.2380 ca        1 DN2     -0.110000
     32 C30         2.5750   -0.5170   -3.2770 cc        1 DN2     -0.149300
     33 C31         3.4110   -0.7490   -2.1320 cc        1 DN2     -0.143000
     34 C32         4.4690    0.1260   -2.0840 cd        1 DN2     -0.215100
     35 S33         4.4540    1.1750   -3.3880 ss        1 DN2     -0.022800
     36 C34         3.0510    0.5260   -4.0510 cd        1 DN2     -0.099700
     37 C35         2.4420    1.0530   -5.3280 c         1 DN2      0.931200
     38 O36         3.1990    1.2650   -6.3140 o         1 DN2     -0.824800
     39 O37         1.1940    1.2630   -5.3400 o         1 DN2     -0.824800
     40 H1          0.3820    0.9570   -3.4750 hn        1 DN2      0.463800
     41 H3         -0.0060    0.4440   -0.4620 hn        1 DN2      0.347500
     42 H4          0.1840   -1.9950    1.1810 h1        1 DN2      0.092700
     43 H5C1        1.6020   -0.3570    2.8440 hc        1 DN2      0.070200
     44 H5C2        2.1580    0.3640    1.2800 hc        1 DN2      0.070200
     45 H6C1        4.8350   -2.0830    1.5840 hc        1 DN2      0.033533
     46 H6C2        4.3300   -0.5410    0.7770 hc        1 DN2      0.033533
     47 H6C3        4.3000   -0.6730    2.5900 hc        1 DN2      0.033533
     48 H7C1        2.4590   -2.3220    3.6590 hc        1 DN2      0.033533
     49 H7C2        1.4570   -3.2610    2.4820 hc        1 DN2      0.033533
     50 H7C3        3.2380   -3.5700    2.5830 hc        1 DN2      0.033533
     51 H8          2.5220   -2.1920    0.5580 hc        1 DN2      0.062700
     52 H11        -0.4390   -1.5120    3.4810 hn        1 DN2      0.337500
     53 H12        -1.6150    1.0000    4.1070 h1        1 DN2      0.073700
     54 H131       -3.5080   -1.4510    3.9590 hc        1 DN2      0.068700
     55 H132       -3.7180   -0.1500    5.1960 hc        1 DN2      0.068700
     56 H14        -3.3320    0.7270    2.2560 h2        1 DN2      0.116700
     57 H17        -1.7390    0.1190    6.3890 h1        1 DN2      0.061700
     58 H21        -0.9220   -2.4360    5.6570 ho        1 DN2      0.420000
     59 H221        1.6370   -2.4310   -3.3790 hc        1 DN2      0.068700
     60 H222        1.1460   -1.2330   -4.6740 hc        1 DN2      0.068700
     61 H231       -0.7560   -2.5170   -4.1330 hc        1 DN2      0.061700
     62 H232       -1.3990   -2.5900   -2.4410 hc        1 DN2      0.061700
     63 H26        -1.9750    2.5340   -3.7230 ha        1 DN2      0.142000
     64 H27        -3.8200   -2.1240   -4.1640 ha        1 DN2      0.114000
     65 H28        -5.2360   -0.1400   -4.7050 ha        1 DN2      0.107000
     66 H29        -4.3160    2.1580   -4.4910 ha        1 DN2      0.110000
     67 H31         3.1900   -1.5280   -1.3960 ha        1 DN2      0.153000
     68 H32         5.2270    0.1590   -1.3060 h4        1 DN2      0.148000
@<TRIPOS>BOND
     1    1    2 1   
     2    1   26 1   
     3    1   40 1   
     4    2    3 1   
     5    2   24 1   
     6    2   25 1   
     7    3    4 2   
     8    3    5 1   
     9    5    6 1   
    10    5   41 1   
    11    6    7 1   
    12    6   11 1   
    13    6   42 1   
    14    7   10 1   
    15    7   43 1   
    16    7   44 1   
    17    8   10 1   
    18    8   45 1   
    19    8   46 1   
    20    8   47 1   
    21    9   10 1   
    22    9   48 1   
    23    9   49 1   
    24    9   50 1   
    25   10   51 1   
    26   11   12 2   
    27   11   13 1   
    28   13   14 1   
    29   13   52 1   
    30   14   15 1   
    31   14   19 1   
    32   14   53 1   
    33   15   16 1   
    34   15   54 1   
    35   15   55 1   
    36   16   17 1   
    37   16   18 1   
    38   16   56 1   
    39   19   20 1   
    40   19   23 1   
    41   19   57 1   
    42   20   21 1   
    43   20   22 1   
    44   23   58 1   
    45   24   32 1   
    46   24   59 1   
    47   24   60 1   
    48   25   27 1   
    49   25   61 1   
    50   25   62 1   
    51   26   27 ar  
    52   26   28 ar  
    53   27   29 ar  
    54   28   31 ar  
    55   28   63 1   
    56   29   30 ar  
    57   29   64 1   
    58   30   31 ar  
    59   30   65 1   
    60   31   66 1   
    61   32   33 1   
    62   32   36 2   
    63   33   34 2   
    64   33   67 1   
    65   34   35 1   
    66   34   68 1   
    67   35   36 1   
    68   36   37 1   
    69   37   38 1   
    70   37   39 1   
@<TRIPOS>SUBSTRUCTURE
     1 DN2         1 TEMP              0 ****  ****    0 ROOT
