@<TRIPOS>MOLECULE
DN2
   68    65     1     0     0
SMALL
bcc


@<TRIPOS>ATOM
      1 N1         -0.6560    2.8220   -1.3190 n3        1 DN2     -0.239000
      2 C2         -1.0980    2.3260   -0.0210 c3        1 DN2      0.033000
      3 C1         -0.4170    1.0200    0.4790 c2        1 DN2      0.316000
      4 O2          0.7900    0.9680    0.5840 o         1 DN2     -0.370000
      5 N3         -1.2370   -0.1280    0.8790 n         1 DN2     -0.366000
      6 C4         -0.6600   -1.4230    0.9530 c3        1 DN2      0.012000
      7 C5         -1.7500   -2.4680    0.8310 c3        1 DN2     -0.164000
      8 C6         -0.9410   -4.3830    2.2020 c3        1 DN2     -0.213000
      9 C7         -3.3370   -3.7190    2.3100 c3        1 DN2     -0.213000
     10 C8         -1.8990   -3.2100    2.1670 c3        1 DN2     -0.103000
     11 C9          0.3540   -1.6010   -0.1900 c2        1 DN2      0.273000
     12 O10         0.0660   -1.2440   -1.3210 o         1 DN2     -0.430000
     13 N11         1.6540   -2.2540    0.0690 n         1 DN2     -0.357000
     14 C12         2.6020   -2.4330   -1.0110 c3        1 DN2      0.021000
     15 C13         4.0100   -2.3660   -0.4620 c3        1 DN2     -0.218000
     16 C14         4.8560   -1.4670   -1.3430 c3        1 DN2      0.200000
     17 F15         5.0830   -2.0770   -2.5170 f         1 DN2     -0.198500
     18 F16         6.0250   -1.2160   -0.7360 f         1 DN2     -0.198500
     19 C17         2.3800   -3.7680   -1.6570 c3        1 DN2     -0.059000
     20 C18         2.8120   -4.8760   -0.6980 c2        1 DN2      0.312000
     21 O19         4.0100   -5.2740   -0.6940 o         1 DN2     -0.565000
     22 O20         1.9560   -5.4470    0.0290 o         1 DN2     -0.565000
     23 O21         3.1420   -3.8490   -2.8430 oh        1 DN2     -0.360000
     24 C22        -0.8260    3.2270    1.1720 c3        1 DN2     -0.128000
     25 C23        -2.5750    2.1570   -0.2140 c3        1 DN2     -0.129000
     26 C24        -1.8170    3.4220   -1.9980 c2        1 DN2      0.064000
     27 C25        -2.9550    2.8660   -1.4630 c2        1 DN2     -0.123000
     28 C26        -1.9100    4.2830   -3.0990 c1        1 DN2     -0.175000
     29 C27        -4.2070    3.1610   -2.0210 c1        1 DN2     -0.086000
     30 C28        -4.2970    4.0120   -3.1100 c1        1 DN2     -0.145500
     31 C29        -3.1500    4.5730   -3.6490 c1        1 DN2     -0.145500
     32 C30         0.6670    3.6110    1.1990 c2        1 DN2     -0.140000
     33 C31         1.6570    3.6080   -0.0560 c1        1 DN2     -0.165000
     34 C32         2.9570    4.0700    0.3890 c1        1 DN2     -0.497000
     35 S33         2.8600    4.3820    1.9090 ss        1 DN2      0.536000
     36 C34         1.4040    4.0760    2.3600 c1        1 DN2     -0.347000
     37 C35         0.8200    4.3610    3.7310 c1        1 DN2      0.379000
     38 O36        -0.0740    5.2410    3.8640 o         1 DN2     -0.559500
     39 O37         1.2870    3.7790    4.7470 o         1 DN2     -0.559500
     40 H1         -0.0080    3.4610   -1.1970 hn        1 DN2      0.220000
     41 H3         -2.1210   -0.0060    1.1000 hn        1 DN2      0.236000
     42 H4         -0.2000   -1.5290    1.8160 h1        1 DN2      0.145000
     43 H5C1       -2.6020   -2.0280    0.6030 hc        1 DN2      0.093500
     44 H5C2       -1.5160   -3.1030    0.1320 hc        1 DN2      0.093500
     45 H6C1       -1.2450   -5.0340    2.8720 hc        1 DN2      0.072833
     46 H6C2       -0.0420   -4.0660    2.4390 hc        1 DN2      0.072833
     47 H6C3       -0.9150   -4.8100    1.3200 hc        1 DN2      0.072833
     48 H7C1       -3.9580   -2.9580    2.2900 hc        1 DN2      0.072833
     49 H7C2       -3.5420   -4.3260    1.5720 hc        1 DN2      0.072833
     50 H7C3       -3.4320   -4.1970    3.1620 hc        1 DN2      0.072833
     51 H8         -1.6960   -2.6050    2.8970 hc        1 DN2      0.103000
     52 H11         1.8500   -2.5680    0.9050 hn        1 DN2      0.276000
     53 H12         2.4770   -1.7240   -1.6750 h1        1 DN2      0.107000
     54 H131        4.4000   -3.2720   -0.4460 hc        1 DN2      0.124000
     55 H132        3.9880   -2.0050    0.4440 hc        1 DN2      0.124000
     56 H14         4.3840   -0.6280   -1.4990 h2        1 DN2      0.135000
     57 H17         1.4310   -3.8730   -1.8710 h1        1 DN2      0.089000
     58 H21         2.7190   -4.3670   -3.4320 ho        1 DN2      0.226000
     59 H221       -1.3710    4.0380    1.0980 hc        1 DN2      0.129500
     60 H222       -1.0550    2.7570    1.9900 hc        1 DN2      0.129500
     61 H231       -3.0470    2.5630    0.5430 hc        1 DN2      0.112000
     62 H232       -2.7800    1.2110   -0.3090 hc        1 DN2      0.112000
     63 H26        -1.0970    4.6820   -3.4830 ha        1 DN2      0.131000
     64 H27        -5.0120    2.7260   -1.6730 ha        1 DN2      0.126000
     65 H28        -5.1710    4.2170   -3.4990 ha        1 DN2      0.111500
     66 H29        -3.2150    5.1720   -4.4160 ha        1 DN2      0.111500
     67 H31         1.4280    3.3420   -0.9600 DU        1 DN2      0.152500
     68 H32         3.7590    4.1690   -0.1730 DU        1 DN2      0.152500
@<TRIPOS>BOND
     1    1    2 1   
     2    1   26 1   
     3    1   40 1   
     4    2    3 1   
     5    2   24 1   
     6    2   25 1   
     7    3    4 1   
     8    3    5 1   
     9    5    6 1   
    10    5   41 1   
    11    6    7 1   
    12    6   11 1   
    13    6   42 1   
    14    7   10 1   
    15    7   43 1   
    16    7   44 1   
    17    8   10 1   
    18    8   45 1   
    19    8   46 1   
    20    8   47 1   
    21    9   10 1   
    22    9   48 1   
    23    9   49 1   
    24    9   50 1   
    25   10   51 1   
    26   11   12 1   
    27   11   13 1   
    28   13   14 1   
    29   13   52 1   
    30   14   15 1   
    31   14   19 1   
    32   14   53 1   
    33   15   16 1   
    34   15   54 1   
    35   15   55 1   
    36   16   17 1   
    37   16   18 1   
    38   16   56 1   
    39   19   20 1   
    40   19   23 1   
    41   19   57 1   
    42   20   21 1   
    43   20   22 1   
    44   23   58 1   
    45   24   32 1   
    46   24   59 1   
    47   24   60 1   
    48   25   27 1   
    49   25   61 1   
    50   25   62 1   
    51   26   27 1   
    52   26   28 1   
    53   27   29 1   
    54   28   63 1   
    55   29   64 1   
    56   30   31 1   
    57   30   65 1   
    58   31   66 1   
    59   32   33 1   
    60   32   36 1   
    61   33   34 1   
    62   34   35 1   
    63   35   36 1   
    64   37   38 1   
    65   37   39 1   
@<TRIPOS>SUBSTRUCTURE
     1 DN2         1 TEMP              0 ****  ****    0 ROOT
