@<TRIPOS>MOLECULE
DN2
   70    72     1     0     0
SMALL
bcc


@<TRIPOS>ATOM
      1 N1         -0.0650   -0.4830   -0.3180 nh        1 DN2     -0.692600
      2 C2          1.3040   -0.0610    0.0640 c3        1 DN2      0.128200
      3 C1          1.8660    1.0710   -0.8350 c         1 DN2      0.675100
      4 O2          3.0630    1.4090   -0.6980 o         1 DN2     -0.641100
      5 N3          1.0530    1.7040   -1.7410 n         1 DN2     -0.541900
      6 C4          1.5250    2.8050   -2.5430 c3        1 DN2      0.045700
      7 C5          1.9750    2.4080   -3.9660 c3        1 DN2     -0.095400
      8 C6          3.8240    1.2350   -5.1580 c3        1 DN2     -0.091600
      9 C7          4.2120    3.4940   -4.1980 c3        1 DN2     -0.091600
     10 C8          3.4800    2.1790   -4.0240 c3        1 DN2     -0.075700
     11 C9          0.4150    3.8710   -2.7100 c         1 DN2      0.654100
     12 O10        -0.7950    3.5840   -2.7600 o         1 DN2     -0.599100
     13 N11         0.8510    5.1750   -2.8640 n         1 DN2     -0.584900
     14 C12        -0.0350    6.2500   -3.2250 c3        1 DN2      0.116700
     15 C13        -0.3330    7.2250   -2.0810 c3        1 DN2     -0.159400
     16 C14        -0.9030    6.4840   -0.8510 c3        1 DN2      0.398900
     17 F15         0.0840    6.1210    0.0400 f         1 DN2     -0.246300
     18 F16        -1.7020    7.3100   -0.0890 f         1 DN2     -0.246300
     19 C17         0.5330    7.0780   -4.4150 c3        1 DN2      0.031100
     20 C18         0.7060    6.1880   -5.6320 c         1 DN2      0.598100
     21 O19        -0.1350    5.9810   -6.5040 o         1 DN2     -0.475000
     22 O20         1.8940    5.5490   -5.8170 oh        1 DN2     -0.574100
     23 O21         1.7970    7.5960   -4.0290 oh        1 DN2     -0.601800
     24 C22         2.3270   -1.2150    0.0540 c3        1 DN2     -0.047100
     25 C23         1.2200    0.5370    1.5200 c3        1 DN2     -0.032100
     26 C24        -0.9140   -0.2330    0.7980 ca        1 DN2      0.085600
     27 C25        -0.2230    0.4020    1.8710 ca        1 DN2     -0.131300
     28 C26        -2.2820   -0.4870    0.8920 ca        1 DN2     -0.134000
     29 C27        -0.8980    0.7900    3.0120 ca        1 DN2     -0.089000
     30 C28        -2.2740    0.5390    3.0990 ca        1 DN2     -0.147000
     31 C29        -2.9490   -0.0890    2.0560 ca        1 DN2     -0.107000
     32 C30         2.4780   -1.8680   -1.2610 cc        1 DN2     -0.045300
     33 C31         3.3880   -1.3970   -2.2630 cc        1 DN2     -0.149000
     34 C32         3.3800   -2.2090   -3.3770 cd        1 DN2     -0.159100
     35 S33         2.3260   -3.4820   -3.2150 ss        1 DN2      0.091200
     36 C34         1.8180   -3.0160   -1.6880 cd        1 DN2     -0.251700
     37 C35         0.8450   -3.7480   -0.8820 c         1 DN2      0.667700
     38 O36        -0.4640   -3.7630   -1.2890 oh        1 DN2     -0.583100
     39 O37         1.0350   -4.3500    0.1730 o         1 DN2     -0.465000
     40 H1         -0.1030   -1.4370   -0.6270 hn        1 DN2      0.388800
     41 H3         -0.5590   -3.2910   -2.1280 ho        1 DN2      0.431000
     42 H4          2.4110    3.2630   -2.0010 h1        1 DN2      0.096700
     43 H5C1        1.4350    1.4820   -4.2960 hc        1 DN2      0.063200
     44 H5C2        1.7000    3.2210   -4.6910 hc        1 DN2      0.063200
     45 H6C1        4.9320    1.1490   -5.2650 hc        1 DN2      0.034367
     46 H6C2        3.4020    1.6080   -6.1220 hc        1 DN2      0.034367
     47 H6C3        3.4070    0.2180   -4.9550 hc        1 DN2      0.034367
     48 H7C1        5.3160    3.3290   -4.1730 hc        1 DN2      0.034367
     49 H7C2        3.9450    3.9660   -5.1760 hc        1 DN2      0.034367
     50 H7C3        3.9430    4.2040   -3.3780 hc        1 DN2      0.034367
     51 H8          3.8110    1.7070   -3.0520 hc        1 DN2      0.072700
     52 H11         1.7840    5.4190   -2.6270 hn        1 DN2      0.327500
     53 H12        -1.0130    5.7960   -3.5800 h1        1 DN2      0.109700
     54 H131        0.5960    7.7790   -1.7890 hc        1 DN2      0.082700
     55 H132       -1.0930    7.9700   -2.4290 hc        1 DN2      0.082700
     56 H14        -1.4870    5.5680   -1.1730 h2        1 DN2      0.091700
     57 H17        -0.1910    7.9020   -4.6590 h1        1 DN2      0.089700
     58 H21         1.9910    8.3410   -4.6130 ho        1 DN2      0.424000
     59 H221        2.0180   -1.9810    0.8190 hc        1 DN2      0.090200
     60 H222        3.3190   -0.7860    0.3680 hc        1 DN2      0.090200
     61 H231        1.8700   -0.0410    2.2210 hc        1 DN2      0.075700
     62 H232        1.5560    1.6030    1.5290 hc        1 DN2      0.075700
     63 H26        -2.8280   -0.9840    0.0780 ha        1 DN2      0.142000
     64 H27        -0.3690    1.2840    3.8400 ha        1 DN2      0.137000
     65 H28        -2.8220    0.8430    4.0030 ha        1 DN2      0.134000
     66 H29        -4.0300   -0.2810    2.1430 ha        1 DN2      0.134000
     67 H31         3.9890   -0.4920   -2.1270 ha        1 DN2      0.183000
     68 H32         3.9900   -2.0550   -4.2690 h4        1 DN2      0.181000
     69 H321        0.1020    1.4360   -1.8600 hn        1 DN2      0.352500
     70 H112        2.4930    5.7450   -5.0790 ho        1 DN2      0.441000
@<TRIPOS>BOND
     1    1    2 1   
     2    1   26 1   
     3    1   40 1   
     4    2    3 1   
     5    2   24 1   
     6    2   25 1   
     7    3    4 2   
     8    3    5 1   
     9    5    6 1   
    10    5   69 1   
    11    6    7 1   
    12    6   11 1   
    13    6   42 1   
    14    7   10 1   
    15    7   43 1   
    16    7   44 1   
    17    8   10 1   
    18    8   45 1   
    19    8   46 1   
    20    8   47 1   
    21    9   10 1   
    22    9   48 1   
    23    9   49 1   
    24    9   50 1   
    25   10   51 1   
    26   11   12 2   
    27   11   13 1   
    28   13   14 1   
    29   13   52 1   
    30   14   15 1   
    31   14   19 1   
    32   14   53 1   
    33   15   16 1   
    34   15   54 1   
    35   15   55 1   
    36   16   17 1   
    37   16   18 1   
    38   16   56 1   
    39   19   20 1   
    40   19   23 1   
    41   19   57 1   
    42   20   21 2   
    43   20   22 1   
    44   22   70 1   
    45   23   58 1   
    46   24   32 1   
    47   24   59 1   
    48   24   60 1   
    49   25   27 1   
    50   25   61 1   
    51   25   62 1   
    52   26   27 ar  
    53   26   28 ar  
    54   27   29 ar  
    55   28   31 ar  
    56   28   63 1   
    57   29   30 ar  
    58   29   64 1   
    59   30   31 ar  
    60   30   65 1   
    61   31   66 1   
    62   32   33 1   
    63   32   36 2   
    64   33   34 2   
    65   33   67 1   
    66   34   35 1   
    67   34   68 1   
    68   35   36 1   
    69   36   37 1   
    70   37   38 1   
    71   37   39 2   
    72   38   41 1   
@<TRIPOS>SUBSTRUCTURE
     1 DN2         1 TEMP              0 ****  ****    0 ROOT
