@<TRIPOS>MOLECULE
DN2
   70    72     1     0     0
SMALL
bcc


@<TRIPOS>ATOM
      1 N1         -0.0870   -0.4380   -0.3060 nh        1 DN2     -0.692600
      2 C2          1.2860   -0.0260    0.0750 c3        1 DN2      0.128200
      3 C1          1.8570    1.0990   -0.8280 c         1 DN2      0.675100
      4 O2          3.0550    1.4310   -0.6880 o         1 DN2     -0.641100
      5 N3          1.0510    1.7330   -1.7400 n         1 DN2     -0.541900
      6 C4          1.5310    2.8270   -2.5450 c3        1 DN2      0.045700
      7 C5          1.9890    2.4200   -3.9630 c3        1 DN2     -0.095400
      8 C6          3.8410    1.2350   -5.1360 c3        1 DN2     -0.091600
      9 C7          4.2310    3.4990   -4.1890 c3        1 DN2     -0.091600
     10 C8          3.4930    2.1870   -4.0100 c3        1 DN2     -0.075700
     11 C9          0.4260    3.8960   -2.7240 c         1 DN2      0.654100
     12 O10        -0.7850    3.6140   -2.7800 o         1 DN2     -0.599100
     13 N11         0.8680    5.1970   -2.8840 n         1 DN2     -0.584900
     14 C12        -0.0110    6.2740   -3.2560 c3        1 DN2      0.116700
     15 C13        -0.3130    7.2570   -2.1200 c3        1 DN2     -0.159400
     16 C14        -0.8940    6.5250   -0.8890 c3        1 DN2      0.398900
     17 F15         0.0860    6.1640    0.0100 f         1 DN2     -0.246300
     18 F16        -1.6950    7.3580   -0.1380 f         1 DN2     -0.246300
     19 C17         0.5670    7.0930   -4.4480 c3        1 DN2      0.031100
     20 C18         0.7440    6.1950   -5.6590 c         1 DN2      0.598100
     21 O19        -0.0920    5.9860   -6.5350 o         1 DN2     -0.475000
     22 O20         1.9300    5.5500   -5.8330 oh        1 DN2     -0.574100
     23 O21         1.8300    7.6080   -4.0580 oh        1 DN2     -0.601800
     24 C22         2.2990   -1.1880    0.0670 c3        1 DN2     -0.046100
     25 C23         1.2070    0.5770    1.5290 c3        1 DN2     -0.032100
     26 C24        -0.9330   -0.1780    0.8100 ca        1 DN2      0.085600
     27 C25        -0.2360    0.4550    1.8810 ca        1 DN2     -0.131300
     28 C26        -2.3030   -0.4200    0.9050 ca        1 DN2     -0.134000
     29 C27        -0.9080    0.8510    3.0220 ca        1 DN2     -0.089000
     30 C28        -2.2860    0.6120    3.1090 ca        1 DN2     -0.147000
     31 C29        -2.9670   -0.0140    2.0690 ca        1 DN2     -0.107000
     32 C30         2.4440   -1.8470   -1.2460 cc        1 DN2     -0.045300
     33 C31         3.3560   -1.3870   -2.2500 cc        1 DN2     -0.149000
     34 C32         3.3420   -2.2030   -3.3610 cd        1 DN2     -0.159100
     35 S33         2.2770   -3.4670   -3.1930 ss        1 DN2      0.091200
     36 C34         1.7740   -2.9910   -1.6670 cd        1 DN2     -0.251700
     37 C35         0.7970   -3.7120   -0.8570 c         1 DN2      0.667700
     38 O36        -0.5130   -3.7190   -1.2630 oh        1 DN2     -0.583100
     39 O37         0.9830   -4.3120    0.2000 o         1 DN2     -0.465000
     40 H1         -0.1320   -1.3920   -0.6120 hn        1 DN2      0.388800
     41 H3         -0.6050   -3.2490   -2.1040 ho        1 DN2      0.431000
     42 H4          2.4160    3.2840   -2.0000 h1        1 DN2      0.096700
     43 H5C1        1.7200    3.2300   -4.6940 hc        1 DN2      0.063200
     44 H5C2        1.4490    1.4940   -4.2910 hc        1 DN2      0.063200
     45 H6C1        3.4200    0.2200   -4.9280 hc        1 DN2      0.034367
     46 H6C2        4.9490    1.1440   -5.2360 hc        1 DN2      0.034367
     47 H6C3        3.4260    1.6020   -6.1050 hc        1 DN2      0.034367
     48 H7C1        5.3340    3.3310   -4.1550 hc        1 DN2      0.034367
     49 H7C2        3.9700    3.9640   -5.1710 hc        1 DN2      0.034367
     50 H7C3        3.9570    4.2150   -3.3760 hc        1 DN2      0.034367
     51 H8          3.8170    1.7200   -3.0340 hc        1 DN2      0.072700
     52 H11         2.5260    5.7490   -5.0920 ho        1 DN2      0.441000
     53 H12        -0.9890    5.8210   -3.6150 h1        1 DN2      0.109700
     54 H131       -1.0680    8.0020   -2.4780 hc        1 DN2      0.082700
     55 H132        0.6160    7.8090   -1.8250 hc        1 DN2      0.082700
     56 H14        -1.4790    5.6090   -1.2100 h2        1 DN2      0.091700
     57 H17        -0.1530    7.9180   -4.7010 h1        1 DN2      0.089700
     58 H21         2.0310    8.3490   -4.6440 ho        1 DN2      0.424000
     59 H221        1.9850   -1.9480    0.8350 hc        1 DN2      0.090200
     60 H222        3.2960   -0.7660    0.3790 hc        1 DN2      0.090200
     61 H231        1.5520    1.6400    1.5350 hc        1 DN2      0.075700
     62 H232        1.8540   -0.0040    2.2320 hc        1 DN2      0.075700
     63 H26        -2.8530   -0.9150    0.0930 ha        1 DN2      0.142000
     64 H27        -0.3740    1.3430    3.8480 ha        1 DN2      0.137000
     65 H28        -2.8310    0.9220    4.0130 ha        1 DN2      0.134000
     66 H29        -4.0480   -0.1970    2.1560 ha        1 DN2      0.134000
     67 H31         3.9650   -0.4860   -2.1190 ha        1 DN2      0.183000
     68 H32         3.9520   -2.0570   -4.2530 h4        1 DN2      0.181000
     69 H321        0.0980    1.4690   -1.8610 hn        1 DN2      0.352500
     70 H112        1.8000    5.4390   -2.6430 hn        1 DN2      0.327500
@<TRIPOS>BOND
     1    1    2 1   
     2    1   26 1   
     3    1   40 1   
     4    2    3 1   
     5    2   24 1   
     6    2   25 1   
     7    3    4 2   
     8    3    5 1   
     9    5    6 1   
    10    5   69 1   
    11    6    7 1   
    12    6   11 1   
    13    6   42 1   
    14    7   10 1   
    15    7   43 1   
    16    7   44 1   
    17    8   10 1   
    18    8   45 1   
    19    8   46 1   
    20    8   47 1   
    21    9   10 1   
    22    9   48 1   
    23    9   49 1   
    24    9   50 1   
    25   10   51 1   
    26   11   12 2   
    27   11   13 1   
    28   13   14 1   
    29   13   70 1   
    30   14   15 1   
    31   14   19 1   
    32   14   53 1   
    33   15   16 1   
    34   15   54 1   
    35   15   55 1   
    36   16   17 1   
    37   16   18 1   
    38   16   56 1   
    39   19   20 1   
    40   19   23 1   
    41   19   57 1   
    42   20   21 2   
    43   20   22 1   
    44   22   52 1   
    45   23   58 1   
    46   24   32 1   
    47   24   59 1   
    48   24   60 1   
    49   25   27 1   
    50   25   61 1   
    51   25   62 1   
    52   26   27 ar  
    53   26   28 ar  
    54   27   29 ar  
    55   28   31 ar  
    56   28   63 1   
    57   29   30 ar  
    58   29   64 1   
    59   30   31 ar  
    60   30   65 1   
    61   31   66 1   
    62   32   33 1   
    63   32   36 2   
    64   33   34 2   
    65   33   67 1   
    66   34   35 1   
    67   34   68 1   
    68   35   36 1   
    69   36   37 1   
    70   37   38 1   
    71   37   39 2   
    72   38   41 1   
@<TRIPOS>SUBSTRUCTURE
     1 DN2         1 TEMP              0 ****  ****    0 ROOT
