@<TRIPOS>MOLECULE
DN2
   70    72     1     0     0
SMALL
bcc


@<TRIPOS>ATOM
      1 N1         -0.0730   -0.4490   -0.3270 nu        1 DN2     -0.692600
      2 C2          1.2950   -0.0300    0.0650 c3        1 DN2      0.129200
      3 C1          1.8670    1.0980   -0.8320 c         1 DN2      0.675100
      4 O2          3.0640    1.4360   -0.6840 o         1 DN2     -0.641100
      5 N3          1.0660    1.7260   -1.7520 ns        1 DN2     -0.541900
      6 C4          1.5420    2.8330   -2.5440 c3        1 DN2      0.045700
      7 C5          1.9870    2.4460   -3.9710 c3        1 DN2     -0.096400
      8 C6          3.8030    1.2380   -5.1770 c3        1 DN2     -0.091600
      9 C7          4.2600    3.4640   -4.1730 c3        1 DN2     -0.091600
     10 C8          3.4840    2.1700   -4.0260 c3        1 DN2     -0.074700
     11 C9          0.4410    3.9090   -2.6960 c         1 DN2      0.655100
     12 O10        -0.7740    3.6390   -2.7110 o         1 DN2     -0.600100
     13 N11         0.8830    5.2100   -2.8510 ns        1 DN2     -0.582900
     14 C12         0.0140    6.2780   -3.2690 c3        1 DN2      0.079700
     15 C13        -0.3730    7.2420   -2.1420 c3        1 DN2     -0.160400
     16 C14        -1.0700    6.4920   -0.9820 c3        1 DN2      0.399900
     17 F15        -0.1920    6.1890    0.0360 f         1 DN2     -0.245800
     18 F16        -1.9930    7.2950   -0.3480 f         1 DN2     -0.245800
     19 C17         0.6550    7.1050   -4.4210 c3        1 DN2      0.030100
     20 C18         0.8390    6.2180   -5.6380 c         1 DN2      0.638100
     21 O19        -0.0250    5.9890   -6.4820 o         1 DN2     -0.477000
     22 O20         2.0220    5.5780   -5.8370 oh        1 DN2     -0.570100
     23 O21         1.9460    7.5810   -4.0700 oh        1 DN2     -0.612800
     24 C22         2.3140   -1.1870    0.0650 c3        1 DN2     -0.046100
     25 C23         1.2020    0.5710    1.5180 c3        1 DN2     -0.032100
     26 C24        -0.9290   -0.1940    0.7830 ca        1 DN2      0.085600
     27 C25        -0.2430    0.4410    1.8600 ca        1 DN2     -0.131300
     28 C26        -2.2980   -0.4440    0.8670 ca        1 DN2     -0.134000
     29 C27        -0.9260    0.8330    2.9950 ca        1 DN2     -0.089000
     30 C28        -2.3040    0.5860    3.0720 ca        1 DN2     -0.147000
     31 C29        -2.9730   -0.0420    2.0260 ca        1 DN2     -0.107000
     32 C30         2.4750   -1.8430   -1.2480 cc        1 DN2     -0.045300
     33 C31         3.3960   -1.3780   -2.2410 cc        1 DN2     -0.149000
     34 C32         3.3940   -2.1890   -3.3550 cd        1 DN2     -0.158100
     35 S33         2.3310   -3.4570   -3.2020 ss        1 DN2      0.091200
     36 C34         1.8120   -2.9880   -1.6800 cd        1 DN2     -0.251700
     37 C35         0.8280   -3.7140   -0.8820 c         1 DN2      0.667700
     38 O36        -0.4760   -3.7260   -1.3030 oh        1 DN2     -0.583100
     39 O37         1.0050   -4.3140    0.1760 o         1 DN2     -0.465000
     40 H1         -0.1110   -1.4020   -0.6350 hn        1 DN2      0.388800
     41 H3          0.1120    1.4680   -1.8700 hn        1 DN2      0.352500
     42 H4          2.4330    3.2800   -2.0000 h1        1 DN2      0.096700
     43 H5C1        1.7420    3.2790   -4.6830 hc        1 DN2      0.063700
     44 H5C2        1.4200    1.5430   -4.3190 hc        1 DN2      0.063700
     45 H6C1        3.3520    0.2310   -4.9960 hc        1 DN2      0.034700
     46 H6C2        4.9080    1.1170   -5.2800 hc        1 DN2      0.034700
     47 H6C3        3.4000    1.6430   -6.1360 hc        1 DN2      0.034700
     48 H7C1        4.0190    4.1620   -3.3340 hc        1 DN2      0.034700
     49 H7C2        5.3570    3.2610   -4.1590 hc        1 DN2      0.034700
     50 H7C3        4.0030    3.9690   -5.1370 hc        1 DN2      0.034700
     51 H8          3.7960    1.6710   -3.0620 hc        1 DN2      0.071700
     52 H11         1.8490    5.4210   -2.7590 hn        1 DN2      0.323500
     53 H12        -0.9400    5.8160   -3.6790 h1        1 DN2      0.112700
     54 H131        0.5260    7.7750   -1.7420 hc        1 DN2      0.073200
     55 H132       -1.0860    8.0030   -2.5500 hc        1 DN2      0.073200
     56 H14        -1.5680    5.5460   -1.3590 h2        1 DN2      0.101700
     57 H17        -0.0280    7.9580   -4.6870 h1        1 DN2      0.090700
     58 H21         1.8250    8.2800   -3.4150 ho        1 DN2      0.431000
     59 H221        3.3050   -0.7610    0.3880 hc        1 DN2      0.090200
     60 H222        1.9960   -1.9510    0.8290 hc        1 DN2      0.090200
     61 H231        1.8460   -0.0070    2.2260 hc        1 DN2      0.075200
     62 H232        1.5410    1.6370    1.5280 hc        1 DN2      0.075200
     63 H26        -2.8390   -0.9410    0.0500 ha        1 DN2      0.142000
     64 H27        -0.4020    1.3260    3.8260 ha        1 DN2      0.137000
     65 H28        -2.8570    0.8920    3.9720 ha        1 DN2      0.134000
     66 H29        -4.0540   -0.2310    2.1050 ha        1 DN2      0.134000
     67 H31         4.0020   -0.4760   -2.0990 ha        1 DN2      0.183000
     68 H32         4.0130   -2.0390   -4.2410 h4        1 DN2      0.181000
     69 H321       -0.5610   -3.2560   -2.1440 ho        1 DN2      0.431000
     70 H112        2.6740    5.8560   -5.1740 ho        1 DN2      0.447000
@<TRIPOS>BOND
     1    1    2 1   
     2    1   26 1   
     3    1   40 1   
     4    2    3 1   
     5    2   24 1   
     6    2   25 1   
     7    3    4 2   
     8    3    5 1   
     9    5    6 1   
    10    5   41 1   
    11    6    7 1   
    12    6   11 1   
    13    6   42 1   
    14    7   10 1   
    15    7   43 1   
    16    7   44 1   
    17    8   10 1   
    18    8   45 1   
    19    8   46 1   
    20    8   47 1   
    21    9   10 1   
    22    9   48 1   
    23    9   49 1   
    24    9   50 1   
    25   10   51 1   
    26   11   12 2   
    27   11   13 1   
    28   13   14 1   
    29   13   52 1   
    30   14   15 1   
    31   14   19 1   
    32   14   53 1   
    33   15   16 1   
    34   15   54 1   
    35   15   55 1   
    36   16   17 1   
    37   16   18 1   
    38   16   56 1   
    39   19   20 1   
    40   19   23 1   
    41   19   57 1   
    42   20   21 2   
    43   20   22 1   
    44   22   70 1   
    45   23   58 1   
    46   24   32 1   
    47   24   59 1   
    48   24   60 1   
    49   25   27 1   
    50   25   61 1   
    51   25   62 1   
    52   26   27 ar  
    53   26   28 ar  
    54   27   29 ar  
    55   28   31 ar  
    56   28   63 1   
    57   29   30 ar  
    58   29   64 1   
    59   30   31 ar  
    60   30   65 1   
    61   31   66 1   
    62   32   33 1   
    63   32   36 2   
    64   33   34 2   
    65   33   67 1   
    66   34   35 1   
    67   34   68 1   
    68   35   36 1   
    69   36   37 1   
    70   37   38 1   
    71   37   39 2   
    72   38   69 1   
@<TRIPOS>SUBSTRUCTURE
     1 DN2         1 TEMP              0 ****  ****    0 ROOT
