@<TRIPOS>MOLECULE
DN3
   42    44     1     0     0
SMALL
bcc


@<TRIPOS>ATOM
      1 O14        -0.1390   -0.7680    0.0550 o         1 DN3     -0.573100
      2 C13         0.3320    0.3780    0.1590 c         1 DN3      0.681700
      3 C15         1.7920    0.6080    0.3660 ca        1 DN3     -0.152600
      4 C16         2.2700    1.5940    1.2340 ca        1 DN3     -0.105000
      5 C17         3.6440    1.7510    1.4070 ca        1 DN3     -0.141000
      6 C18         4.5400    0.9350    0.7180 ca        1 DN3     -0.083000
      7 C19         4.0650   -0.0600   -0.1440 ca        1 DN3     -0.089300
      8 C21         5.0160   -0.9210   -0.9230 c3        1 DN3      0.211100
      9 N22         6.0810   -1.5060   -0.1160 n3        1 DN3     -0.738600
     10 C23         5.5960   -2.4390    0.8760 c3        1 DN3      0.153600
     11 C24         7.1410   -2.0560   -0.9320 c3        1 DN3      0.153600
     12 C20         2.6870   -0.2260   -0.3130 ca        1 DN3     -0.076000
     13 N12        -0.4570    1.5220    0.0690 n         1 DN3     -0.475100
     14 C10        -1.8430    1.5690   -0.1370 ca        1 DN3      0.072600
     15 C11        -2.6890    0.4690    0.1290 ca        1 DN3     -0.104000
     16 C6         -4.0670    0.5870   -0.0780 ca        1 DN3     -0.117500
     17 C7         -4.6260    1.7850   -0.5390 ca        1 DN3     -0.143000
     18 C8         -3.7930    2.8710   -0.7940 ca        1 DN3     -0.104000
     19 C9         -2.4200    2.7760   -0.6020 ca        1 DN3     -0.166000
     20 C2         -4.9230   -0.5550    0.2070 cc        1 DN3      0.451000
     21 N1         -6.0980   -0.8930   -0.5020 na        1 DN3     -0.183400
     22 N5         -6.6110   -2.0010    0.0490 nc        1 DN3     -0.195800
     23 N4         -5.8440   -2.3420    1.0200 nd        1 DN3     -0.049000
     24 N3         -4.8090   -1.5210    1.1750 nd        1 DN3     -0.360000
     25 H1          1.5750    2.2320    1.8000 ha        1 DN3      0.136000
     26 H2          4.0240    2.5220    2.0950 ha        1 DN3      0.139000
     27 H3          5.6250    1.0640    0.8570 ha        1 DN3      0.154000
     28 H4          4.4280   -1.7200   -1.4670 h1        1 DN3      0.042200
     29 H5          5.5000   -0.2680   -1.7080 h1        1 DN3      0.042200
     30 H7          6.4510   -2.7370    1.5380 h1        1 DN3      0.034367
     31 H8          4.8130   -1.9330    1.4990 h1        1 DN3      0.034367
     32 H9          5.1510   -3.3700    0.4280 h1        1 DN3      0.034367
     33 H10         7.5620   -1.2460   -1.5830 h1        1 DN3      0.034367
     34 H11         7.9540   -2.4330   -0.2580 h1        1 DN3      0.034367
     35 H12         6.8020   -2.9030   -1.5900 h1        1 DN3      0.034367
     36 H13         2.2920   -1.0190   -0.9700 ha        1 DN3      0.155000
     37 H14         0.0140    2.3990    0.0470 hn        1 DN3      0.321500
     38 H15        -2.2710   -0.4860    0.4960 ha        1 DN3      0.194000
     39 H16        -5.7120    1.8820   -0.6840 ha        1 DN3      0.134000
     40 H17        -4.2260    3.8180   -1.1520 ha        1 DN3      0.139000
     41 H18        -1.7880    3.6520   -0.8140 ha        1 DN3      0.136000
     42 H19        -6.5040   -0.4400   -1.2860 hn        1 DN3      0.333700
@<TRIPOS>BOND
     1    1    2 2   
     2    2    3 1   
     3    2   13 1   
     4    3    4 ar  
     5    3   12 ar  
     6    4    5 ar  
     7    4   25 1   
     8    5    6 ar  
     9    5   26 1   
    10    6    7 ar  
    11    6   27 1   
    12    7    8 1   
    13    7   12 ar  
    14    8    9 1   
    15    8   28 1   
    16    8   29 1   
    17    9   10 1   
    18    9   11 1   
    19   10   30 1   
    20   10   31 1   
    21   10   32 1   
    22   11   33 1   
    23   11   34 1   
    24   11   35 1   
    25   12   36 1   
    26   13   14 1   
    27   13   37 1   
    28   14   15 ar  
    29   14   19 ar  
    30   15   16 ar  
    31   15   38 1   
    32   16   17 ar  
    33   16   20 1   
    34   17   18 ar  
    35   17   39 1   
    36   18   19 ar  
    37   18   40 1   
    38   19   41 1   
    39   20   21 1   
    40   20   24 2   
    41   21   22 1   
    42   21   42 1   
    43   22   23 2   
    44   23   24 1   
@<TRIPOS>SUBSTRUCTURE
     1 DN3         1 TEMP              0 ****  ****    0 ROOT
