@<TRIPOS>MOLECULE
DN3
   44    46     1     0     0
SMALL
bcc


@<TRIPOS>ATOM
      1 O14         2.7270   -2.7990   -0.2310 o         1 DN3     -0.364100
      2 C13         2.8660   -1.5910   -0.2810 c         1 DN3      0.572700
      3 C15         2.8850   -0.6130    0.8190 ca        1 DN3     -0.190600
      4 C16         3.9630    0.2660    0.9900 ca        1 DN3     -0.060000
      5 C17         3.9730    1.1360    2.0790 ca        1 DN3     -0.104000
      6 C18         2.9140    1.1380    2.9890 ca        1 DN3     -0.043000
      7 C19         1.8370    0.2570    2.8210 ca        1 DN3     -0.149300
      8 C21         0.7450    0.2040    3.8440 c3        1 DN3      0.156100
      9 N22        -0.4640    1.0170    3.4720 n4        1 DN3     -0.680400
     10 C23        -1.6380    0.6030    4.2890 c3        1 DN3      0.083600
     11 C24        -0.2130    2.4740    3.6320 c3        1 DN3      0.083600
     12 C20         1.8280   -0.6320    1.7420 ca        1 DN3     -0.038000
     13 N12         3.0320   -1.0070   -1.6860 n4        1 DN3     -0.548200
     14 C10         1.7360   -0.6040   -2.2440 ca        1 DN3     -0.050400
     15 C11         0.9300    0.2890   -1.5200 ca        1 DN3     -0.079000
     16 C6         -0.3380    0.6250   -2.0080 ca        1 DN3     -0.116500
     17 C7         -0.7720    0.1260   -3.2430 ca        1 DN3     -0.048000
     18 C8          0.0560   -0.7300   -3.9720 ca        1 DN3     -0.089000
     19 C9          1.3030   -1.1160   -3.4810 ca        1 DN3     -0.066000
     20 C2         -1.1870    1.4460   -1.1580 cc        1 DN3      0.454000
     21 N1         -2.2290    2.3110   -1.5400 na        1 DN3     -0.140400
     22 N5         -2.7470    2.8530   -0.4310 nc        1 DN3     -0.114800
     23 N4         -2.1020    2.3820    0.5760 nd        1 DN3     -0.083000
     24 N3         -1.1490    1.5310    0.2140 nd        1 DN3     -0.457000
     25 H1          4.8220    0.2590    0.2980 ha        1 DN3      0.160000
     26 H2          4.8290    1.8180    2.2290 ha        1 DN3      0.190000
     27 H3          2.9440    1.8250    3.8540 ha        1 DN3      0.172000
     28 H4          0.4080   -0.8670    3.9810 hx        1 DN3      0.118700
     29 H5          1.1220    0.5820    4.8390 hx        1 DN3      0.118700
     30 H7         -1.4070    0.7380    5.3800 hx        1 DN3      0.109533
     31 H8         -2.5210    1.2420    4.0110 hx        1 DN3      0.109533
     32 H9         -1.8780   -0.4750    4.0840 hx        1 DN3      0.109533
     33 H10        -0.1070    2.7220    4.7220 hx        1 DN3      0.109533
     34 H11        -1.0800    3.0460    3.1980 hx        1 DN3      0.109533
     35 H12         0.7290    2.7470    3.0870 hx        1 DN3      0.109533
     36 H13         1.0060   -1.3580    1.6200 ha        1 DN3      0.166000
     37 H14         3.4530   -1.7200   -2.3000 hn        1 DN3      0.470300
     38 H15         1.2800    0.7190   -0.5650 ha        1 DN3      0.164000
     39 H16        -1.7670    0.3890   -3.6420 ha        1 DN3      0.176000
     40 H17        -0.2840   -1.1210   -4.9500 ha        1 DN3      0.194000
     41 H18         1.9230   -1.8160   -4.0690 ha        1 DN3      0.178000
     42 H19        -2.5660    2.5370   -2.4540 hn        1 DN3      0.366700
     43 H221       -0.6800    0.8340    2.4810 hn        1 DN3      0.469800
     44 H122        3.6490   -0.1860   -1.6490 hn        1 DN3      0.470300
@<TRIPOS>BOND
     1    1    2 2   
     2    2    3 1   
     3    2   13 1   
     4    3    4 ar  
     5    3   12 ar  
     6    4    5 ar  
     7    4   25 1   
     8    5    6 ar  
     9    5   26 1   
    10    6    7 ar  
    11    6   27 1   
    12    7    8 1   
    13    7   12 ar  
    14    8    9 1   
    15    8   28 1   
    16    8   29 1   
    17    9   10 1   
    18    9   11 1   
    19    9   43 1   
    20   10   30 1   
    21   10   31 1   
    22   10   32 1   
    23   11   33 1   
    24   11   34 1   
    25   11   35 1   
    26   12   36 1   
    27   13   14 1   
    28   13   37 1   
    29   13   44 1   
    30   14   15 ar  
    31   14   19 ar  
    32   15   16 ar  
    33   15   38 1   
    34   16   17 ar  
    35   16   20 1   
    36   17   18 ar  
    37   17   39 1   
    38   18   19 ar  
    39   18   40 1   
    40   19   41 1   
    41   20   21 1   
    42   20   24 2   
    43   21   22 1   
    44   21   42 1   
    45   22   23 2   
    46   23   24 1   
@<TRIPOS>SUBSTRUCTURE
     1 DN3         1 TEMP              0 ****  ****    0 ROOT
