@<TRIPOS>MOLECULE
DN3
   43    45     1     0     0
SMALL
bcc


@<TRIPOS>ATOM
      1 O14        -0.0750    0.6130    0.1760 o         1 DN3     -0.579100
      2 C13         1.0960    0.2000    0.0700 c         1 DN3      0.672700
      3 C15         1.9850    0.2230    1.2780 ca        1 DN3     -0.136600
      4 C16         3.3560    0.4790    1.2190 ca        1 DN3     -0.057000
      5 C17         4.0990    0.5590    2.4010 ca        1 DN3     -0.123000
      6 C18         3.4770    0.4020    3.6360 ca        1 DN3     -0.085000
      7 C19         2.0990    0.1560    3.6980 ca        1 DN3     -0.191300
      8 C21         1.4250   -0.0240    5.0140 c3        1 DN3      0.175100
      9 N22         0.9090    1.2860    5.5650 n4        1 DN3     -0.684400
     10 C23        -0.3200    1.7290    4.8560 c3        1 DN3      0.079100
     11 C24         0.6610    1.1770    7.0260 c3        1 DN3      0.079100
     12 C20         1.3570    0.0520    2.5180 ca        1 DN3     -0.056000
     13 N12         1.6380   -0.2850   -1.1030 n         1 DN3     -0.456100
     14 C10         0.9810   -0.3480   -2.3500 ca        1 DN3      0.045600
     15 C11        -0.1240    0.4700   -2.6590 ca        1 DN3     -0.098000
     16 C6         -0.7140    0.3930   -3.9270 ca        1 DN3     -0.109500
     17 C7         -0.2130   -0.4850   -4.8950 ca        1 DN3     -0.124000
     18 C8          0.8790   -1.2940   -4.5860 ca        1 DN3     -0.102000
     19 C9          1.4770   -1.2370   -3.3320 ca        1 DN3     -0.151000
     20 C2         -1.8470    1.2580   -4.2200 cc        1 DN3      0.439000
     21 N1         -2.8270    1.0400   -5.2130 na        1 DN3     -0.175400
     22 N5         -3.7010    2.0540   -5.1630 nc        1 DN3     -0.180800
     23 N4         -3.3230    2.8490   -4.2280 nd        1 DN3     -0.045000
     24 N3         -2.2170    2.4360   -3.6170 nd        1 DN3     -0.366000
     25 H1          3.8630    0.6380    0.2530 ha        1 DN3      0.163000
     26 H2          5.1840    0.7510    2.3520 ha        1 DN3      0.166000
     27 H3          4.0740    0.4610    4.5600 ha        1 DN3      0.144000
     28 H4          2.1500   -0.4450    5.7700 hx        1 DN3      0.107700
     29 H5          0.5460   -0.7250    4.9260 hx        1 DN3      0.107700
     30 H7         -0.1140    1.7780    3.7520 hx        1 DN3      0.106867
     31 H8         -0.6190    2.7450    5.2290 hx        1 DN3      0.106867
     32 H9         -1.1500    0.9990    5.0500 hx        1 DN3      0.106867
     33 H10         0.2530    2.1510    7.4070 hx        1 DN3      0.106867
     34 H11         1.6240    0.9420    7.5530 hx        1 DN3      0.106867
     35 H12        -0.0830    0.3590    7.2190 hx        1 DN3      0.106867
     36 H13         0.2730   -0.1570    2.5420 ha        1 DN3      0.164000
     37 H14         2.5340   -0.7170   -1.0630 hn        1 DN3      0.324500
     38 H15        -0.5340    1.1700   -1.9100 ha        1 DN3      0.190000
     39 H16        -0.6580   -0.5380   -5.8990 ha        1 DN3      0.141000
     40 H17         1.2770   -1.9860   -5.3450 ha        1 DN3      0.150000
     41 H18         2.3390   -1.8890   -3.1190 ha        1 DN3      0.139000
     42 H19        -2.9090    0.2890   -5.8580 hn        1 DN3      0.337700
     43 H221        1.6390    1.9970    5.4090 hn        1 DN3      0.452800
@<TRIPOS>BOND
     1    1    2 2   
     2    2    3 1   
     3    2   13 1   
     4    3    4 ar  
     5    3   12 ar  
     6    4    5 ar  
     7    4   25 1   
     8    5    6 ar  
     9    5   26 1   
    10    6    7 ar  
    11    6   27 1   
    12    7    8 1   
    13    7   12 ar  
    14    8    9 1   
    15    8   28 1   
    16    8   29 1   
    17    9   10 1   
    18    9   11 1   
    19    9   43 1   
    20   10   30 1   
    21   10   31 1   
    22   10   32 1   
    23   11   33 1   
    24   11   34 1   
    25   11   35 1   
    26   12   36 1   
    27   13   14 1   
    28   13   37 1   
    29   14   15 ar  
    30   14   19 ar  
    31   15   16 ar  
    32   15   38 1   
    33   16   17 ar  
    34   16   20 1   
    35   17   18 ar  
    36   17   39 1   
    37   18   19 ar  
    38   18   40 1   
    39   19   41 1   
    40   20   21 1   
    41   20   24 2   
    42   21   22 1   
    43   21   42 1   
    44   22   23 2   
    45   23   24 1   
@<TRIPOS>SUBSTRUCTURE
     1 DN3         1 TEMP              0 ****  ****    0 ROOT
