@<TRIPOS>MOLECULE
DN3
   43    45     1     0     0
SMALL
bcc


@<TRIPOS>ATOM
      1 O14        -0.0760    0.6100    0.1770 o         1 DN3     -0.579100
      2 C13         1.0960    0.2000    0.0700 c         1 DN3      0.672700
      3 C15         1.9860    0.2260    1.2780 ca        1 DN3     -0.136600
      4 C16         3.3560    0.4860    1.2170 ca        1 DN3     -0.057000
      5 C17         4.1000    0.5690    2.3980 ca        1 DN3     -0.123000
      6 C18         3.4790    0.4120    3.6350 ca        1 DN3     -0.085000
      7 C19         2.1010    0.1620    3.6970 ca        1 DN3     -0.191300
      8 C21         1.4290   -0.0180    5.0140 c3        1 DN3      0.175100
      9 N22         0.9100    1.2910    5.5650 nx        1 DN3     -0.684400
     10 C23        -0.3210    1.7300    4.8560 c3        1 DN3      0.079100
     11 C24         0.6640    1.1830    7.0250 c3        1 DN3      0.079100
     12 C20         1.3590    0.0540    2.5180 ca        1 DN3     -0.056000
     13 N12         1.6380   -0.2850   -1.1030 ns        1 DN3     -0.456100
     14 C10         0.9810   -0.3500   -2.3500 ca        1 DN3      0.045600
     15 C11        -0.1260    0.4650   -2.6590 ca        1 DN3     -0.098000
     16 C6         -0.7160    0.3860   -3.9260 ca        1 DN3     -0.109500
     17 C7         -0.2140   -0.4930   -4.8930 ca        1 DN3     -0.124000
     18 C8          0.8790   -1.2990   -4.5840 ca        1 DN3     -0.102000
     19 C9          1.4780   -1.2400   -3.3310 ca        1 DN3     -0.151000
     20 C2         -1.8510    1.2480   -4.2190 cc        1 DN3      0.439000
     21 N1         -2.8310    1.0280   -5.2120 na        1 DN3     -0.175400
     22 N5         -3.7070    2.0400   -5.1620 nc        1 DN3     -0.180800
     23 N4         -3.3290    2.8370   -4.2290 nd        1 DN3     -0.045000
     24 N3         -2.2220    2.4260   -3.6180 nd        1 DN3     -0.366000
     25 H1          3.8620    0.6460    0.2500 ha        1 DN3      0.163000
     26 H2          5.1840    0.7640    2.3490 ha        1 DN3      0.166000
     27 H3          4.0760    0.4730    4.5580 ha        1 DN3      0.144000
     28 H4          0.5510   -0.7220    4.9280 hx        1 DN3      0.107700
     29 H5          2.1560   -0.4370    5.7700 hx        1 DN3      0.107700
     30 H7         -0.6220    2.7450    5.2280 hx        1 DN3      0.106867
     31 H8         -0.1160    1.7780    3.7510 hx        1 DN3      0.106867
     32 H9         -1.1490    0.9980    5.0510 hx        1 DN3      0.106867
     33 H10         0.2530    2.1560    7.4060 hx        1 DN3      0.106867
     34 H11         1.6270    0.9500    7.5530 hx        1 DN3      0.106867
     35 H12        -0.0780    0.3630    7.2200 hx        1 DN3      0.106867
     36 H13         0.2760   -0.1570    2.5420 ha        1 DN3      0.164000
     37 H14         2.5360   -0.7150   -1.0630 hn        1 DN3      0.324500
     38 H15        -0.5370    1.1650   -1.9100 ha        1 DN3      0.190000
     39 H16        -0.6590   -0.5480   -5.8970 ha        1 DN3      0.141000
     40 H17         1.2780   -1.9920   -5.3430 ha        1 DN3      0.150000
     41 H18         2.3410   -1.8900   -3.1170 ha        1 DN3      0.139000
     42 H19        -2.9130    0.2760   -5.8550 hn        1 DN3      0.337700
     43 H221        1.6370    2.0030    5.4060 hn        1 DN3      0.452800
@<TRIPOS>BOND
     1    1    2 2   
     2    2    3 1   
     3    2   13 1   
     4    3    4 ar  
     5    3   12 ar  
     6    4    5 ar  
     7    4   25 1   
     8    5    6 ar  
     9    5   26 1   
    10    6    7 ar  
    11    6   27 1   
    12    7    8 1   
    13    7   12 ar  
    14    8    9 1   
    15    8   28 1   
    16    8   29 1   
    17    9   10 1   
    18    9   11 1   
    19    9   43 1   
    20   10   30 1   
    21   10   31 1   
    22   10   32 1   
    23   11   33 1   
    24   11   34 1   
    25   11   35 1   
    26   12   36 1   
    27   13   14 1   
    28   13   37 1   
    29   14   15 ar  
    30   14   19 ar  
    31   15   16 ar  
    32   15   38 1   
    33   16   17 ar  
    34   16   20 1   
    35   17   18 ar  
    36   17   39 1   
    37   18   19 ar  
    38   18   40 1   
    39   19   41 1   
    40   20   21 1   
    41   20   24 2   
    42   21   22 1   
    43   21   42 1   
    44   22   23 2   
    45   23   24 1   
@<TRIPOS>SUBSTRUCTURE
     1 DN3         1 TEMP              0 ****  ****    0 ROOT
