@<TRIPOS>MOLECULE
DN3
   42    37     1     0     0
SMALL
bcc


@<TRIPOS>ATOM
      1 O14        -1.2810    0.4260   -0.7250 o         1 DN3     -0.344000
      2 C13        -0.0820    0.3310   -0.7340 c1        1 DN3      0.358000
      3 C15         0.7200    0.3150    0.6250 c1        1 DN3     -0.133000
      4 C16         2.1070    0.2110    0.6130 c1        1 DN3     -0.104000
      5 C17         2.8120    0.1740    1.8120 c1        1 DN3     -0.111000
      6 C18         2.1210    0.2420    3.0350 c1        1 DN3     -0.111000
      7 C19         0.7460    0.3450    3.0460 c1        1 DN3     -0.082000
      8 C21        -0.0410    0.2170    4.4120 c3        1 DN3     -0.033000
      9 N22         0.6260    0.9860    5.4230 n3        1 DN3     -0.264000
     10 C23        -0.2290    2.0730    5.8390 c3        1 DN3     -0.122500
     11 C24         0.9320    0.1210    6.5890 c3        1 DN3     -0.122500
     12 C20         0.0370    0.3820    1.8320 c1        1 DN3     -0.077000
     13 N12         0.6300    0.2350   -1.9950 n3        1 DN3     -0.325000
     14 C10        -0.0970    0.2530   -3.2380 c2        1 DN3      0.082000
     15 C11        -0.3140   -0.9220   -3.9230 c2        1 DN3     -0.140000
     16 C6         -1.0360   -0.9110   -5.1000 c1        1 DN3     -0.007000
     17 C7         -1.5420    0.2810   -5.5910 c2        1 DN3     -0.145000
     18 C8         -1.3230    1.4510   -4.9050 c1        1 DN3     -0.105000
     19 C9         -0.5980    1.4370   -3.7250 c1        1 DN3     -0.136000
     20 C2         -1.2610   -2.1680   -5.8350 c1        1 DN3     -0.005000
     21 N1         -2.4090   -2.8980   -5.8430 n2        1 DN3     -0.162500
     22 N5         -2.2030   -3.9950   -6.6240 n2        1 DN3     -0.036500
     23 N4         -0.9470   -3.9410   -7.0890 n2        1 DN3     -0.036500
     24 N3         -0.3610   -2.8030   -6.5970 n2        1 DN3     -0.162500
     25 H1          2.5780    0.1660   -0.2220 ha        1 DN3      0.137000
     26 H2          3.8100    0.0990    1.8030 ha        1 DN3      0.147000
     27 H3          2.6160    0.2160    3.8780 ha        1 DN3      0.147000
     28 H4         -0.9470    0.5510    4.2960 h1        1 DN3      0.081500
     29 H5         -0.0710   -0.6970    4.6760 h1        1 DN3      0.081500
     30 H7         -1.0860    1.7170    6.1310 h1        1 DN3      0.073500
     31 H8          0.1940    2.5590    6.5800 h1        1 DN3      0.073500
     32 H9         -0.3690    2.6840    5.0860 h1        1 DN3      0.073500
     33 H10         1.4640   -0.6490    6.2950 h1        1 DN3      0.073500
     34 H11         1.4380    0.6350    7.2500 h1        1 DN3      0.073500
     35 H12         0.0870   -0.2000    6.9990 h1        1 DN3      0.073500
     36 H13        -0.9330    0.4540    1.8360 ha        1 DN3      0.154000
     37 H14         1.5390    0.1960   -2.0010 hn        1 DN3      0.239000
     38 H15         0.0350   -1.7390   -3.5850 ha        1 DN3      0.157000
     39 H16        -2.0530    0.2910   -6.4240 ha        1 DN3      0.130000
     40 H17        -1.6840    2.3050   -5.2550 ha        1 DN3      0.142000
     41 H18        -0.4440    2.2630   -3.2420 ha        1 DN3      0.180000
     42 H19        -3.1820   -2.6900   -5.4030 DU        1 DN3      0.285000
@<TRIPOS>BOND
     1    1    2 1   
     2    2   13 1   
     3    3    4 1   
     4    4   25 1   
     5    5    6 1   
     6    5   26 1   
     7    6   27 1   
     8    7    8 1   
     9    7   12 1   
    10    8    9 1   
    11    8   28 1   
    12    8   29 1   
    13    9   10 1   
    14    9   11 1   
    15   10   30 1   
    16   10   31 1   
    17   10   32 1   
    18   11   33 1   
    19   11   34 1   
    20   11   35 1   
    21   12   36 1   
    22   13   14 1   
    23   13   37 1   
    24   14   15 1   
    25   14   19 1   
    26   15   16 1   
    27   15   38 1   
    28   16   17 1   
    29   17   18 1   
    30   17   39 1   
    31   18   40 1   
    32   19   41 1   
    33   20   21 1   
    34   20   24 1   
    35   21   22 1   
    36   22   23 1   
    37   23   24 1   
@<TRIPOS>SUBSTRUCTURE
     1 DN3         1 TEMP              0 ****  ****    0 ROOT
