@<TRIPOS>MOLECULE
DN6
   34    36     1     0     0
SMALL
bcc


@<TRIPOS>ATOM
      1 F24         5.6000    1.7970   -0.0480 f         1 DN6     -0.232967
      2 C7          5.1850    0.6980   -0.7610 c3        1 DN6      0.689200
      3 F22         4.7570    1.2140   -1.9600 f         1 DN6     -0.232967
      4 F23         6.3510    0.0410   -1.0730 f         1 DN6     -0.232967
      5 C6          4.1550   -0.1620   -0.0380 ca        1 DN6     -0.175300
      6 C1          4.5840   -1.1780    0.8200 ca        1 DN6     -0.059000
      7 C5          2.7940    0.0850   -0.2250 ca        1 DN6     -0.031000
      8 C4          1.8550   -0.7080    0.4460 ca        1 DN6     -0.153600
      9 C3          2.2790   -1.7200    1.3120 ca        1 DN6     -0.076000
     10 C2          3.6420   -1.9520    1.4970 ca        1 DN6     -0.140000
     11 C8          0.4070   -0.4060    0.2380 c         1 DN6      0.678700
     12 O21        -0.0120    0.7640    0.2070 o         1 DN6     -0.561100
     13 N9         -0.4220   -1.5110    0.0740 n         1 DN6     -0.473100
     14 C10        -1.8070   -1.4800   -0.1590 ca        1 DN6      0.066600
     15 C15        -2.4210   -2.6040   -0.7610 ca        1 DN6     -0.162000
     16 C14        -3.7940   -2.6230   -0.9770 ca        1 DN6     -0.105000
     17 C13        -4.5880   -1.5380   -0.6130 ca        1 DN6     -0.138000
     18 C12        -3.9900   -0.4210   -0.0170 ca        1 DN6     -0.116500
     19 C11        -2.6120   -0.3820    0.2160 ca        1 DN6     -0.100000
     20 C16        -4.8060    0.7150    0.3860 cc        1 DN6      0.448000
     21 N20        -5.9520    1.1820   -0.2930 na        1 DN6     -0.182400
     22 N19        -6.4300    2.2390    0.3770 nc        1 DN6     -0.193800
     23 N18        -5.6670    2.4330    1.3910 nd        1 DN6     -0.048000
     24 N17        -4.6690    1.5560    1.4610 nd        1 DN6     -0.359000
     25 H1          5.6620   -1.3620    0.9570 ha        1 DN6      0.158000
     26 H2          2.4550    0.9000   -0.8870 ha        1 DN6      0.174000
     27 H3          1.5450   -2.3270    1.8660 ha        1 DN6      0.147000
     28 H4          3.9770   -2.7450    2.1830 ha        1 DN6      0.150000
     29 H5          0.0130   -2.4010   -0.0190 hn        1 DN6      0.321500
     30 H6         -1.8190   -3.4760   -1.0610 ha        1 DN6      0.136000
     31 H7         -4.2570   -3.5060   -1.4430 ha        1 DN6      0.141000
     32 H8         -5.6740   -1.5750   -0.7800 ha        1 DN6      0.135000
     33 H9         -2.1620    0.5110    0.6870 ha        1 DN6      0.192000
     34 H10        -6.3620    0.8430   -1.1310 hn        1 DN6      0.333700
@<TRIPOS>BOND
     1    1    2 1   
     2    2    3 1   
     3    2    4 1   
     4    2    5 1   
     5    5    6 ar  
     6    5    7 ar  
     7    6   10 ar  
     8    6   25 1   
     9    7    8 ar  
    10    7   26 1   
    11    8    9 ar  
    12    8   11 1   
    13    9   10 ar  
    14    9   27 1   
    15   10   28 1   
    16   11   12 2   
    17   11   13 1   
    18   13   14 1   
    19   13   29 1   
    20   14   15 ar  
    21   14   19 ar  
    22   15   16 ar  
    23   15   30 1   
    24   16   17 ar  
    25   16   31 1   
    26   17   18 ar  
    27   17   32 1   
    28   18   19 ar  
    29   18   20 1   
    30   19   33 1   
    31   20   21 1   
    32   20   24 2   
    33   21   22 1   
    34   21   34 1   
    35   22   23 2   
    36   23   24 1   
@<TRIPOS>SUBSTRUCTURE
     1 DN6         1 TEMP              0 ****  ****    0 ROOT
