@<TRIPOS>MOLECULE
DN6
   34    36     1     0     0
SMALL
bcc


@<TRIPOS>ATOM
      1 F24         0.9050   -0.7540    0.1060 f         1 DN6     -0.232967
      2 C7          2.1580   -0.2640   -0.1720 c3        1 DN6      0.689200
      3 F22         2.8110   -0.3000    1.0360 f         1 DN6     -0.232967
      4 F23         2.7520   -1.2610   -0.9070 f         1 DN6     -0.232967
      5 C6          2.1570    1.1010   -0.8500 ca        1 DN6     -0.175300
      6 C1          2.0790    1.1790   -2.2430 ca        1 DN6     -0.059000
      7 C5          2.2170    2.2600   -0.0750 ca        1 DN6     -0.031000
      8 C4          2.2130    3.5090   -0.7060 ca        1 DN6     -0.153600
      9 C3          2.1260    3.5930   -2.0990 ca        1 DN6     -0.076000
     10 C2          2.0580    2.4280   -2.8630 ca        1 DN6     -0.140000
     11 C8          2.2590    4.7290    0.1540 c         1 DN6      0.678700
     12 O21         1.5890    4.8100    1.1980 o         1 DN6     -0.561100
     13 N9          3.1000    5.7460   -0.2860 ns        1 DN6     -0.473100
     14 C10         3.3290    6.9710    0.3630 ca        1 DN6      0.066600
     15 C15         4.5180    7.6820    0.0750 ca        1 DN6     -0.162000
     16 C14         4.7630    8.9120    0.6730 ca        1 DN6     -0.105000
     17 C13         3.8500    9.4650    1.5670 ca        1 DN6     -0.138000
     18 C12         2.6700    8.7700    1.8580 ca        1 DN6     -0.116500
     19 C11         2.3990    7.5330    1.2650 ca        1 DN6     -0.100000
     20 C16         1.6950    9.3390    2.7780 cc        1 DN6      0.448000
     21 N20         2.0000   10.1160    3.9170 na        1 DN6     -0.182400
     22 N19         0.8470   10.4580    4.5060 nc        1 DN6     -0.193800
     23 N18        -0.1080    9.9520    3.8130 nd        1 DN6     -0.048000
     24 N17         0.3260    9.2650    2.7600 nd        1 DN6     -0.359000
     25 H1          2.0330    0.2560   -2.8430 ha        1 DN6      0.158000
     26 H2          2.2600    2.1980    1.0260 ha        1 DN6      0.174000
     27 H3          2.0910    4.5740   -2.6000 ha        1 DN6      0.147000
     28 H4          1.9840    2.4930   -3.9600 ha        1 DN6      0.150000
     29 H5          3.6970    5.5460   -1.0580 hn        1 DN6      0.321500
     30 H6          5.2600    7.2700   -0.6270 ha        1 DN6      0.136000
     31 H7          5.6910    9.4550    0.4350 ha        1 DN6      0.141000
     32 H8          4.0540   10.4450    2.0210 ha        1 DN6      0.135000
     33 H9          1.4620    7.0020    1.5100 ha        1 DN6      0.192000
     34 H10         2.8890   10.3750    4.2750 hn        1 DN6      0.333700
@<TRIPOS>BOND
     1    1    2 1   
     2    2    3 1   
     3    2    4 1   
     4    2    5 1   
     5    5    6 ar  
     6    5    7 ar  
     7    6   10 ar  
     8    6   25 1   
     9    7    8 ar  
    10    7   26 1   
    11    8    9 ar  
    12    8   11 1   
    13    9   10 ar  
    14    9   27 1   
    15   10   28 1   
    16   11   12 2   
    17   11   13 1   
    18   13   14 1   
    19   13   29 1   
    20   14   15 ar  
    21   14   19 ar  
    22   15   16 ar  
    23   15   30 1   
    24   16   17 ar  
    25   16   31 1   
    26   17   18 ar  
    27   17   32 1   
    28   18   19 ar  
    29   18   20 1   
    30   19   33 1   
    31   20   21 1   
    32   20   24 2   
    33   21   22 1   
    34   21   34 1   
    35   22   23 2   
    36   23   24 1   
@<TRIPOS>SUBSTRUCTURE
     1 DN6         1 TEMP              0 ****  ****    0 ROOT
