@<TRIPOS>MOLECULE
DN6
   34    31     1     0     0
SMALL
bcc


@<TRIPOS>ATOM
      1 F24         3.1360   -2.2060    5.0390 f         1 DN6     -0.162000
      2 C7          1.8070   -2.2150    5.1340 c3        1 DN6      0.468000
      3 F22         1.4510   -2.0800    6.4190 f         1 DN6     -0.162000
      4 F23         1.3320   -3.3760    4.6580 f         1 DN6     -0.162000
      5 C6          1.2310   -1.0590    4.3240 c2        1 DN6     -0.168000
      6 C1          0.7880    0.0860    4.9690 c1        1 DN6     -0.059000
      7 C5          1.1750   -1.1420    2.9330 c2        1 DN6     -0.030000
      8 C4          0.6750   -0.0760    2.1940 c1        1 DN6     -0.134000
      9 C3          0.2330    1.0680    2.8400 c1        1 DN6     -0.107500
     10 C2          0.2900    1.1500    4.2320 c1        1 DN6     -0.107500
     11 C8          0.7000   -0.1280    0.6700 c2        1 DN6      0.356000
     12 O21         1.1010   -1.1220    0.1050 o         1 DN6     -0.334000
     13 N9          0.1780    0.9830   -0.1020 n         1 DN6     -0.323000
     14 C10         0.1380    0.9060   -1.5220 c2        1 DN6      0.077000
     15 C15         1.3020    1.0680   -2.2590 c2        1 DN6     -0.133000
     16 C14         1.2670    0.9650   -3.6410 c1        1 DN6     -0.105000
     17 C13         0.0630    0.7000   -4.2880 c1        1 DN6     -0.141000
     18 C12        -1.1000    0.5380   -3.5500 c1        1 DN6     -0.006000
     19 C11        -1.0640    0.6410   -2.1690 c1        1 DN6     -0.137000
     20 C16        -2.4040    0.2130   -4.2520 c2        1 DN6     -0.008000
     21 N20        -2.7430   -0.9810   -4.7820 nc        1 DN6     -0.161000
     22 N19        -3.9490   -0.8500   -5.3640 nc        1 DN6     -0.035000
     23 N18        -4.3560    0.4190   -5.1950 nc        1 DN6     -0.035000
     24 N17        -3.3980    1.0760   -4.5070 nc        1 DN6     -0.161000
     25 H1          0.8280    0.1440    5.9420 ha        1 DN6      0.158000
     26 H2          1.4860   -1.9480    2.4780 ha        1 DN6      0.174000
     27 H3         -0.1170    1.8170    2.3210 ha        1 DN6      0.149000
     28 H4         -0.0210    1.9550    4.6870 ha        1 DN6      0.149000
     29 H5         -0.1720    1.7100    0.3250 hn        1 DN6      0.238000
     30 H6          2.1400    1.2530   -1.8070 ha        1 DN6      0.180000
     31 H7          2.0900    1.0800   -4.1620 ha        1 DN6      0.145000
     32 H8          0.0380    0.6270   -5.2680 ha        1 DN6      0.132000
     33 H9         -1.8840    0.5270   -1.6490 ha        1 DN6      0.158000
     34 H10        -2.2440   -1.7410   -4.7520 DU        1 DN6      0.286000
@<TRIPOS>BOND
     1    1    2 1   
     2    2    3 1   
     3    2    4 1   
     4    2    5 1   
     5    5    6 1   
     6    5    7 1   
     7    6   25 1   
     8    7    8 1   
     9    7   26 1   
    10    8   11 1   
    11    9   10 1   
    12    9   27 1   
    13   10   28 1   
    14   11   12 1   
    15   11   13 1   
    16   13   14 1   
    17   13   29 1   
    18   14   15 1   
    19   14   19 1   
    20   15   16 1   
    21   15   30 1   
    22   16   31 1   
    23   17   18 1   
    24   17   32 1   
    25   18   20 1   
    26   19   33 1   
    27   20   21 1   
    28   20   24 1   
    29   21   22 1   
    30   22   23 1   
    31   23   24 1   
@<TRIPOS>SUBSTRUCTURE
     1 DN6         1 TEMP              0 ****  ****    0 ROOT
