@<TRIPOS>MOLECULE
DN6
   35    37     1     0     0
SMALL
bcc


@<TRIPOS>ATOM
      1 F24         2.0530    0.8460    2.0220 f         1 DN6     -0.217300
      2 C7          2.2040    0.6680    0.6700 c3        1 DN6      0.692200
      3 F22         3.4120    0.0320    0.5330 f         1 DN6     -0.217300
      4 F23         1.2660   -0.2710    0.3290 f         1 DN6     -0.217300
      5 C6          2.0990    1.9720   -0.1280 ca        1 DN6     -0.170300
      6 C1          0.8720    2.3680   -0.6620 ca        1 DN6     -0.005000
      7 C5          3.2380    2.7580   -0.2990 ca        1 DN6     -0.001000
      8 C4          3.1420    3.9710   -1.0040 ca        1 DN6     -0.198600
      9 C3          1.9090    4.3670   -1.5500 ca        1 DN6     -0.065000
     10 C2          0.7850    3.5670   -1.3790 ca        1 DN6     -0.119000
     11 C8          4.3790    4.7340   -1.1450 c         1 DN6      0.582700
     12 O21         5.5330    4.3330   -1.1130 o         1 DN6     -0.416100
     13 N9          4.2650    6.2460   -1.3440 n4        1 DN6     -0.547200
     14 C10         3.9890    6.9390   -0.0820 ca        1 DN6     -0.052400
     15 C15         5.0510    7.2600    0.7840 ca        1 DN6     -0.086000
     16 C14         4.7700    7.9200    1.9770 ca        1 DN6     -0.097000
     17 C13         3.4590    8.2560    2.3180 ca        1 DN6     -0.066000
     18 C12         2.4050    7.9380    1.4530 ca        1 DN6     -0.089500
     19 C11         2.6660    7.2790    0.2420 ca        1 DN6     -0.069000
     20 C16         1.0230    8.2480    1.7780 cc        1 DN6      0.400000
     21 N20         0.5540    9.1340    2.7700 na        1 DN6     -0.155400
     22 N19        -0.7830    9.1200    2.7360 nc        1 DN6     -0.148800
     23 N18        -1.1460    8.3010    1.8120 nd        1 DN6     -0.025000
     24 N17        -0.1160    7.7420    1.1940 nd        1 DN6     -0.363000
     25 H1         -0.0230    1.7330   -0.5260 ha        1 DN6      0.187000
     26 H2          4.2090    2.4240    0.1110 ha        1 DN6      0.185000
     27 H3          1.8050    5.2930   -2.1360 ha        1 DN6      0.134000
     28 H4         -0.1820    3.8760   -1.8090 ha        1 DN6      0.179000
     29 H5          5.1600    6.5940   -1.7200 hn        1 DN6      0.464300
     30 H6          6.0940    6.9950    0.5380 ha        1 DN6      0.171000
     31 H7          5.5980    8.1740    2.6620 ha        1 DN6      0.180000
     32 H8          3.2690    8.7650    3.2780 ha        1 DN6      0.165000
     33 H9          1.8300    7.0310   -0.4350 ha        1 DN6      0.176000
     34 H10         1.0670    9.7050    3.4040 hn        1 DN6      0.346700
     35 H92         3.5180    6.4530   -2.0160 hn        1 DN6      0.464300
@<TRIPOS>BOND
     1    1    2 1   
     2    2    3 1   
     3    2    4 1   
     4    2    5 1   
     5    5    6 ar  
     6    5    7 ar  
     7    6   10 ar  
     8    6   25 1   
     9    7    8 ar  
    10    7   26 1   
    11    8    9 ar  
    12    8   11 1   
    13    9   10 ar  
    14    9   27 1   
    15   10   28 1   
    16   11   12 2   
    17   11   13 1   
    18   13   14 1   
    19   13   29 1   
    20   13   35 1   
    21   14   15 ar  
    22   14   19 ar  
    23   15   16 ar  
    24   15   30 1   
    25   16   17 ar  
    26   16   31 1   
    27   17   18 ar  
    28   17   32 1   
    29   18   19 ar  
    30   18   20 1   
    31   19   33 1   
    32   20   21 1   
    33   20   24 2   
    34   21   22 1   
    35   21   34 1   
    36   22   23 2   
    37   23   24 1   
@<TRIPOS>SUBSTRUCTURE
     1 DN6         1 TEMP              0 ****  ****    0 ROOT
