@<TRIPOS>MOLECULE
DN6
   34    36     1     0     0
SMALL
bcc


@<TRIPOS>ATOM
      1 F24         0.9030   -0.7540    0.1030 f         1 DN6     -0.232967
      2 C7          2.1560   -0.2640   -0.1710 c3        1 DN6      0.689200
      3 F22         2.8070   -0.2990    1.0380 f         1 DN6     -0.232967
      4 F23         2.7540   -1.2600   -0.9050 f         1 DN6     -0.232967
      5 C6          2.1570    1.1010   -0.8500 ca        1 DN6     -0.175300
      6 C1          2.0800    1.1790   -2.2430 ca        1 DN6     -0.059000
      7 C5          2.2160    2.2600   -0.0750 ca        1 DN6     -0.031000
      8 C4          2.2130    3.5090   -0.7070 ca        1 DN6     -0.153600
      9 C3          2.1270    3.5930   -2.1000 ca        1 DN6     -0.076000
     10 C2          2.0600    2.4270   -2.8640 ca        1 DN6     -0.140000
     11 C8          2.2580    4.7290    0.1540 c         1 DN6      0.678700
     12 O21         1.5880    4.8110    1.1970 o         1 DN6     -0.561100
     13 N9          3.1000    5.7460   -0.2860 n         1 DN6     -0.473100
     14 C10         3.3280    6.9710    0.3620 ca        1 DN6      0.066600
     15 C15         4.5170    7.6820    0.0730 ca        1 DN6     -0.162000
     16 C14         4.7620    8.9130    0.6720 ca        1 DN6     -0.105000
     17 C13         3.8500    9.4650    1.5660 ca        1 DN6     -0.138000
     18 C12         2.6700    8.7700    1.8580 ca        1 DN6     -0.116500
     19 C11         2.3990    7.5330    1.2650 ca        1 DN6     -0.100000
     20 C16         1.6960    9.3380    2.7790 cc        1 DN6      0.448000
     21 N20         2.0020   10.1160    3.9170 na        1 DN6     -0.182400
     22 N19         0.8490   10.4570    4.5080 nc        1 DN6     -0.193800
     23 N18        -0.1070    9.9510    3.8160 nd        1 DN6     -0.048000
     24 N17         0.3260    9.2650    2.7620 nd        1 DN6     -0.359000
     25 H1          2.0350    0.2550   -2.8430 ha        1 DN6      0.158000
     26 H2          2.2570    2.1990    1.0260 ha        1 DN6      0.174000
     27 H3          2.0930    4.5730   -2.6010 ha        1 DN6      0.147000
     28 H4          1.9880    2.4930   -3.9600 ha        1 DN6      0.150000
     29 H5          3.6960    5.5460   -1.0580 hn        1 DN6      0.321500
     30 H6          5.2590    7.2710   -0.6290 ha        1 DN6      0.136000
     31 H7          5.6900    9.4560    0.4340 ha        1 DN6      0.141000
     32 H8          4.0530   10.4450    2.0200 ha        1 DN6      0.135000
     33 H9          1.4620    7.0020    1.5110 ha        1 DN6      0.192000
     34 H10         2.8900   10.3750    4.2750 hn        1 DN6      0.333700
@<TRIPOS>BOND
     1    1    2 1   
     2    2    3 1   
     3    2    4 1   
     4    2    5 1   
     5    5    6 ar  
     6    5    7 ar  
     7    6   10 ar  
     8    6   25 1   
     9    7    8 ar  
    10    7   26 1   
    11    8    9 ar  
    12    8   11 1   
    13    9   10 ar  
    14    9   27 1   
    15   10   28 1   
    16   11   12 2   
    17   11   13 1   
    18   13   14 1   
    19   13   29 1   
    20   14   15 ar  
    21   14   19 ar  
    22   15   16 ar  
    23   15   30 1   
    24   16   17 ar  
    25   16   31 1   
    26   17   18 ar  
    27   17   32 1   
    28   18   19 ar  
    29   18   20 1   
    30   19   33 1   
    31   20   21 1   
    32   20   24 2   
    33   21   22 1   
    34   21   34 1   
    35   22   23 2   
    36   23   24 1   
@<TRIPOS>SUBSTRUCTURE
     1 DN6         1 TEMP              0 ****  ****    0 ROOT
