@<TRIPOS>MOLECULE
DN8
   31    33     1     0     0
SMALL
bcc


@<TRIPOS>ATOM
      1 O21        -0.0650   -0.8050    0.3480 o         1 DN8     -0.565100
      2 C7          1.0930   -0.3700    0.2250 c         1 DN8      0.679700
      3 C4          1.9730   -0.1470    1.4110 ca        1 DN8     -0.149600
      4 C3          3.3230   -0.5090    1.4040 ca        1 DN8     -0.093000
      5 C2          4.0970   -0.3030    2.5450 ca        1 DN8     -0.136000
      6 C5          1.3960    0.4070    2.5590 ca        1 DN8     -0.052000
      7 C6          2.1810    0.6200    3.6950 ca        1 DN8     -0.035900
      8 BR1         1.4190    1.3750    5.2290 br        1 DN8     -0.070100
      9 C1          3.5330    0.2650    3.6870 ca        1 DN8     -0.081000
     10 N8          1.6490   -0.0480   -1.0090 n         1 DN8     -0.474100
     11 C9          1.0170   -0.1480   -2.2590 ca        1 DN8      0.069600
     12 C14         1.5250    0.6120   -3.3400 ca        1 DN8     -0.164000
     13 C13         0.9450    0.5170   -4.5990 ca        1 DN8     -0.105000
     14 C12        -0.1460   -0.3190   -4.8210 ca        1 DN8     -0.140000
     15 C11        -0.6550   -1.0750   -3.7590 ca        1 DN8     -0.116500
     16 C10        -0.0850   -1.0010   -2.4840 ca        1 DN8     -0.102000
     17 C15        -1.7860   -1.9670   -3.9740 cc        1 DN8      0.449000
     18 N19        -2.8620   -1.7240   -4.8570 na        1 DN8     -0.182400
     19 N18        -3.7010   -2.7660   -4.7830 nc        1 DN8     -0.194800
     20 N17        -3.2120   -3.6000   -3.9380 nd        1 DN8     -0.048000
     21 N16        -2.0630   -3.1860   -3.4110 nd        1 DN8     -0.359000
     22 H1          3.7760   -0.9760    0.5160 ha        1 DN8      0.143000
     23 H2          5.1590   -0.5930    2.5470 ha        1 DN8      0.145000
     24 H3          0.3210    0.6580    2.5530 ha        1 DN8      0.170000
     25 H4          4.1580    0.4260    4.5800 ha        1 DN8      0.153000
     26 H5          2.5340    0.4090   -1.0060 hn        1 DN8      0.321500
     27 H6          2.3860    1.2840   -3.1960 ha        1 DN8      0.136000
     28 H7          1.3550    1.1120   -5.4310 ha        1 DN8      0.140000
     29 H8         -0.5840   -0.3920   -5.8260 ha        1 DN8      0.135000
     30 H9         -0.5040   -1.6080   -1.6610 ha        1 DN8      0.193000
     31 H10        -3.0290   -0.9350   -5.4340 hn        1 DN8      0.333700
@<TRIPOS>BOND
     1    1    2 2   
     2    2    3 1   
     3    2   10 1   
     4    3    4 ar  
     5    3    6 ar  
     6    4    5 ar  
     7    4   22 1   
     8    5    9 ar  
     9    5   23 1   
    10    6    7 ar  
    11    6   24 1   
    12    7    8 1   
    13    7    9 ar  
    14    9   25 1   
    15   10   11 1   
    16   10   26 1   
    17   11   12 ar  
    18   11   16 ar  
    19   12   13 ar  
    20   12   27 1   
    21   13   14 ar  
    22   13   28 1   
    23   14   15 ar  
    24   14   29 1   
    25   15   16 ar  
    26   15   17 1   
    27   16   30 1   
    28   17   18 1   
    29   17   21 2   
    30   18   19 1   
    31   18   31 1   
    32   19   20 2   
    33   20   21 1   
@<TRIPOS>SUBSTRUCTURE
     1 DN8         1 TEMP              0 ****  ****    0 ROOT
