@<TRIPOS>MOLECULE
DN8
   31    33     1     0     0
SMALL
bcc


@<TRIPOS>ATOM
      1 O21        -0.0660   -0.8030    0.3480 o         1 DN8     -0.565100
      2 C7          1.0920   -0.3690    0.2250 c         1 DN8      0.679700
      3 C4          1.9730   -0.1470    1.4110 ca        1 DN8     -0.149600
      4 C3          3.3220   -0.5110    1.4040 ca        1 DN8     -0.093000
      5 C2          4.0960   -0.3050    2.5450 ca        1 DN8     -0.136000
      6 C5          1.3960    0.4090    2.5580 ca        1 DN8     -0.052000
      7 C6          2.1810    0.6210    3.6950 ca        1 DN8     -0.035900
      8 Br1         1.4210    1.3790    5.2280 br        1 DN8     -0.070100
      9 C1          3.5330    0.2640    3.6870 ca        1 DN8     -0.081000
     10 N8          1.6490   -0.0470   -1.0100 ns        1 DN8     -0.474100
     11 C9          1.0170   -0.1470   -2.2590 ca        1 DN8      0.069600
     12 C14         1.5240    0.6140   -3.3400 ca        1 DN8     -0.164000
     13 C13         0.9440    0.5190   -4.5990 ca        1 DN8     -0.105000
     14 C12        -0.1460   -0.3180   -4.8210 ca        1 DN8     -0.140000
     15 C11        -0.6550   -1.0750   -3.7590 ca        1 DN8     -0.116500
     16 C10        -0.0850   -1.0010   -2.4840 ca        1 DN8     -0.102000
     17 C15        -1.7850   -1.9680   -3.9740 cc        1 DN8      0.449000
     18 N19        -2.8620   -1.7260   -4.8560 na        1 DN8     -0.182400
     19 N18        -3.7000   -2.7680   -4.7830 nc        1 DN8     -0.194800
     20 N17        -3.2100   -3.6020   -3.9390 nd        1 DN8     -0.048000
     21 N16        -2.0610   -3.1880   -3.4120 nd        1 DN8     -0.359000
     22 H1          3.7750   -0.9790    0.5160 ha        1 DN8      0.143000
     23 H2          5.1580   -0.5970    2.5470 ha        1 DN8      0.145000
     24 H3          0.3220    0.6610    2.5520 ha        1 DN8      0.170000
     25 H4          4.1580    0.4240    4.5800 ha        1 DN8      0.153000
     26 H5          2.5340    0.4090   -1.0060 hn        1 DN8      0.321500
     27 H6          2.3850    1.2860   -3.1960 ha        1 DN8      0.136000
     28 H7          1.3530    1.1140   -5.4300 ha        1 DN8      0.140000
     29 H8         -0.5850   -0.3910   -5.8260 ha        1 DN8      0.135000
     30 H9         -0.5030   -1.6090   -1.6620 ha        1 DN8      0.193000
     31 H10        -3.0290   -0.9360   -5.4330 hn        1 DN8      0.333700
@<TRIPOS>BOND
     1    1    2 2   
     2    2    3 1   
     3    2   10 1   
     4    3    4 ar  
     5    3    6 ar  
     6    4    5 ar  
     7    4   22 1   
     8    5    9 ar  
     9    5   23 1   
    10    6    7 ar  
    11    6   24 1   
    12    7    8 1   
    13    7    9 ar  
    14    9   25 1   
    15   10   11 1   
    16   10   26 1   
    17   11   12 ar  
    18   11   16 ar  
    19   12   13 ar  
    20   12   27 1   
    21   13   14 ar  
    22   13   28 1   
    23   14   15 ar  
    24   14   29 1   
    25   15   16 ar  
    26   15   17 1   
    27   16   30 1   
    28   17   18 1   
    29   17   21 2   
    30   18   19 1   
    31   18   31 1   
    32   19   20 2   
    33   20   21 1   
@<TRIPOS>SUBSTRUCTURE
     1 DN8         1 TEMP              0 ****  ****    0 ROOT
