@<TRIPOS>MOLECULE
DN8
   31    33     1     0     0
SMALL
bcc


@<TRIPOS>ATOM
      1 O21        -0.0850    0.6440    0.0360 o         1 DN8     -0.565100
      2 C7          0.2800   -0.5410    0.1220 c         1 DN8      0.679700
      3 C4          1.7170   -0.9040    0.3030 ca        1 DN8     -0.149600
      4 C3          2.1170   -1.9020    1.1960 ca        1 DN8     -0.093000
      5 C2          3.4740   -2.1880    1.3470 ca        1 DN8     -0.136000
      6 C5          2.6700   -0.1850   -0.4270 ca        1 DN8     -0.052000
      7 C6          4.0270   -0.4830   -0.2770 ca        1 DN8     -0.035900
      8 BR1         5.3060    0.4640   -1.2600 br        1 DN8     -0.070100
      9 C1          4.4280   -1.4870    0.6110 ca        1 DN8     -0.081000
     10 N8         -0.6080   -1.6100    0.0430 n         1 DN8     -0.474100
     11 C9         -1.9960   -1.5270   -0.1460 ca        1 DN8      0.069600
     12 C14        -2.6840   -2.6610   -0.6420 ca        1 DN8     -0.164000
     13 C13        -4.0630   -2.6260   -0.8150 ca        1 DN8     -0.105000
     14 C12        -4.7910   -1.4800   -0.5110 ca        1 DN8     -0.140000
     15 C11        -4.1210   -0.3530   -0.0200 ca        1 DN8     -0.116500
     16 C10        -2.7360   -0.3650    0.1680 ca        1 DN8     -0.102000
     17 C15        -4.8680    0.8500    0.3180 cc        1 DN8      0.449000
     18 N19        -6.0130    1.3210   -0.3620 na        1 DN8     -0.182400
     19 N18        -6.4180    2.4480    0.2370 nc        1 DN8     -0.194800
     20 N17        -5.6140    2.6800    1.2120 nd        1 DN8     -0.048000
     21 N16        -4.6570    1.7620    1.3210 nd        1 DN8     -0.359000
     22 H1          1.3750   -2.4500    1.7970 ha        1 DN8      0.143000
     23 H2          3.7940   -2.9680    2.0540 ha        1 DN8      0.145000
     24 H3          2.3350    0.6200   -1.1040 ha        1 DN8      0.170000
     25 H4          5.4970   -1.7250    0.7380 ha        1 DN8      0.153000
     26 H5         -0.2180   -2.5260   -0.0030 hn        1 DN8      0.321500
     27 H6         -2.1350   -3.5820   -0.8930 ha        1 DN8      0.136000
     28 H7         -4.5830   -3.5180   -1.1980 ha        1 DN8      0.140000
     29 H8         -5.8830   -1.4740   -0.6420 ha        1 DN8      0.135000
     30 H9         -2.2280    0.5360    0.5580 ha        1 DN8      0.193000
     31 H10        -6.4650    0.9380   -1.1590 hn        1 DN8      0.333700
@<TRIPOS>BOND
     1    1    2 2   
     2    2    3 1   
     3    2   10 1   
     4    3    4 ar  
     5    3    6 ar  
     6    4    5 ar  
     7    4   22 1   
     8    5    9 ar  
     9    5   23 1   
    10    6    7 ar  
    11    6   24 1   
    12    7    8 1   
    13    7    9 ar  
    14    9   25 1   
    15   10   11 1   
    16   10   26 1   
    17   11   12 ar  
    18   11   16 ar  
    19   12   13 ar  
    20   12   27 1   
    21   13   14 ar  
    22   13   28 1   
    23   14   15 ar  
    24   14   29 1   
    25   15   16 ar  
    26   15   17 1   
    27   16   30 1   
    28   17   18 1   
    29   17   21 2   
    30   18   19 1   
    31   18   31 1   
    32   19   20 2   
    33   20   21 1   
@<TRIPOS>SUBSTRUCTURE
     1 DN8         1 TEMP              0 ****  ****    0 ROOT
