@<TRIPOS>MOLECULE
DN8
   32    34     1     0     0
SMALL
bcc


@<TRIPOS>ATOM
      1 O21         2.5310    2.4790   -0.6520 o         1 DN8     -0.425100
      2 C7          2.4160    1.2820   -0.4300 c         1 DN8      0.587700
      3 C4          2.1740    0.5980    0.8360 ca        1 DN8     -0.204600
      4 C3          1.5790   -0.6710    0.9250 ca        1 DN8     -0.080000
      5 C2          1.3700   -1.2430    2.1750 ca        1 DN8     -0.121000
      6 C5          2.5400    1.2910    2.0040 ca        1 DN8     -0.023000
      7 C6          2.3320    0.7040    3.2550 ca        1 DN8     -0.040900
      8 BR1         2.8280    1.6190    4.8030 br        1 DN8     -0.004100
      9 C1          1.7480   -0.5650    3.3380 ca        1 DN8     -0.027000
     10 N8          2.6240    0.3990   -1.6630 n4        1 DN8     -0.550200
     11 C9          1.3830    0.2070   -2.4200 ca        1 DN8     -0.053400
     12 C14         0.7380    1.3200   -2.9920 ca        1 DN8     -0.085000
     13 C13        -0.4350    1.1210   -3.7150 ca        1 DN8     -0.097000
     14 C12        -0.9730   -0.1580   -3.8670 ca        1 DN8     -0.067000
     15 C11        -0.3270   -1.2630   -3.2980 ca        1 DN8     -0.090500
     16 C10         0.8630   -1.0870   -2.5760 ca        1 DN8     -0.077000
     17 C15        -0.8700   -2.6070   -3.4060 cc        1 DN8      0.398000
     18 N19        -1.7980   -3.0800   -4.3570 na        1 DN8     -0.155400
     19 N18        -2.0320   -4.3700   -4.0940 nc        1 DN8     -0.150800
     20 N17        -1.3260   -4.7000   -3.0700 nd        1 DN8     -0.024000
     21 N16        -0.6020   -3.6920   -2.6050 nd        1 DN8     -0.360000
     22 H1          1.2420   -1.2130    0.0280 ha        1 DN8      0.141000
     23 H2          0.8970   -2.2370    2.2520 ha        1 DN8      0.174000
     24 H3          2.9870    2.2990    1.9220 ha        1 DN8      0.179000
     25 H4          1.5760   -1.0380    4.3220 ha        1 DN8      0.181000
     26 H5          2.9940   -0.5130   -1.3700 hn        1 DN8      0.465300
     27 H6          1.1430    2.3400   -2.8680 ha        1 DN8      0.176000
     28 H7         -0.9470    1.9890   -4.1660 ha        1 DN8      0.179000
     29 H8         -1.9140   -0.2830   -4.4290 ha        1 DN8      0.165000
     30 H9          1.3710   -1.9690   -2.1450 ha        1 DN8      0.177000
     31 H10        -2.2250   -2.6010   -5.1180 hn        1 DN8      0.346700
     32 H82         3.3080    0.8580   -2.2820 hn        1 DN8      0.465300
@<TRIPOS>BOND
     1    1    2 2   
     2    2    3 1   
     3    2   10 1   
     4    3    4 ar  
     5    3    6 ar  
     6    4    5 ar  
     7    4   22 1   
     8    5    9 ar  
     9    5   23 1   
    10    6    7 ar  
    11    6   24 1   
    12    7    8 1   
    13    7    9 ar  
    14    9   25 1   
    15   10   11 1   
    16   10   26 1   
    17   10   32 1   
    18   11   12 ar  
    19   11   16 ar  
    20   12   13 ar  
    21   12   27 1   
    22   13   14 ar  
    23   13   28 1   
    24   14   15 ar  
    25   14   29 1   
    26   15   16 ar  
    27   15   17 1   
    28   16   30 1   
    29   17   18 1   
    30   17   21 2   
    31   18   19 1   
    32   18   31 1   
    33   19   20 2   
    34   20   21 1   
@<TRIPOS>SUBSTRUCTURE
     1 DN8         1 TEMP              0 ****  ****    0 ROOT
