@<TRIPOS>MOLECULE
DN8
   31    25     1     0     0
SMALL
bcc


@<TRIPOS>ATOM
      1 O21         1.1270    1.6440    0.0290 o         1 DN8     -0.337000
      2 C7          1.2140    0.6320    0.6850 c1        1 DN8      0.357000
      3 C4          1.9550    0.6500    2.0300 c1        1 DN8     -0.153000
      4 C3          2.0590   -0.5070    2.7760 c1        1 DN8     -0.114000
      5 C2          2.7340   -0.4920    3.9960 c1        1 DN8     -0.114000
      6 C5          2.5270    1.8350    2.4960 c1        1 DN8     -0.066000
      7 C6          3.2040    1.8510    3.7180 c1        1 DN8     -0.153000
      8 BR1         4.0240    3.4810    4.3460 br        1 DN8      0.070000
      9 C1          3.3080    0.6960    4.4640 c1        1 DN8     -0.066000
     10 N8          0.6240   -0.5920    0.2020 n3        1 DN8     -0.324000
     11 C9         -0.0670   -0.6050   -1.0530 c2        1 DN8      0.079000
     12 C14         0.6460   -0.5450   -2.2400 c2        1 DN8     -0.135000
     13 C13        -0.0320   -0.5610   -3.4640 c1        1 DN8     -0.105000
     14 C12        -1.4110   -0.6360   -3.4880 c1        1 DN8     -0.142000
     15 C11        -2.1280   -0.6960   -2.2970 c1        1 DN8     -0.006000
     16 C10        -1.4570   -0.6810   -1.0810 c1        1 DN8     -0.138000
     17 C15        -3.6230   -0.7000   -2.3260 c2        1 DN8     -0.007000
     18 N19        -4.4030    0.3060   -2.7430 nc        1 DN8     -0.162000
     19 N18        -5.6820   -0.1020   -2.6710 nc        1 DN8     -0.035500
     20 N17        -5.6910   -1.3660   -2.2070 nc        1 DN8     -0.035500
     21 N16        -4.4210   -1.7360   -1.9930 nc        1 DN8     -0.162000
     22 H1          1.6580   -1.3370    2.4500 ha        1 DN8      0.144500
     23 H2          2.8050   -1.2840    4.5050 ha        1 DN8      0.144500
     24 H3          2.4450    2.6410    1.9830 ha        1 DN8      0.161000
     25 H4          3.7890    0.7080    5.3310 ha        1 DN8      0.161000
     26 H5          0.6900   -1.3650    0.7000 hn        1 DN8      0.239000
     27 H6          1.6030   -0.4900   -2.2210 ha        1 DN8      0.180000
     28 H7          0.4710   -0.5190   -4.3070 ha        1 DN8      0.144000
     29 H8         -1.8930   -0.6470   -4.3600 ha        1 DN8      0.131000
     30 H9         -1.9680   -0.7250   -0.2300 ha        1 DN8      0.158000
     31 H10        -4.1100    1.1420   -3.0320 DU        1 DN8      0.285000
@<TRIPOS>BOND
     1    1    2 1   
     2    2   10 1   
     3    3    6 1   
     4    4    5 1   
     5    4   22 1   
     6    5   23 1   
     7    6   24 1   
     8    7    9 1   
     9    9   25 1   
    10   10   11 1   
    11   10   26 1   
    12   11   12 1   
    13   11   16 1   
    14   12   13 1   
    15   12   27 1   
    16   13   28 1   
    17   14   15 1   
    18   14   29 1   
    19   15   17 1   
    20   16   30 1   
    21   17   18 1   
    22   17   21 1   
    23   18   19 1   
    24   19   20 1   
    25   20   21 1   
@<TRIPOS>SUBSTRUCTURE
     1 DN8         1 TEMP              0 ****  ****    0 ROOT
