@<TRIPOS>MOLECULE
DNA
   22    20     1     0     0
SMALL
bcc


@<TRIPOS>ATOM
      1 O1A        -1.9550    1.0410   -3.6000 o         1 DNA     -0.565000
      2 O1B        -1.7240   -1.1260   -3.6670 o         1 DNA     -0.565000
      3 O1C         2.7720    0.0720   -1.3350 oh        1 DNA     -0.278000
      4 O1D        -2.6430   -0.3980   -0.4400 oh        1 DNA     -0.305000
      5 C1E         1.1910   -0.1050    2.8590 c1        1 DNA     -0.159000
      6 C1F        -0.1910   -0.0730    3.0200 c1        1 DNA     -0.159000
      7 C1G         1.7430   -0.0950    1.5850 c1        1 DNA     -0.112000
      8 C1H        -1.0190   -0.0310    1.9060 c1        1 DNA     -0.088000
      9 C1I         0.6330   -0.0150   -1.9510 c1        1 DNA     -0.126000
     10 C1J        -1.5180   -0.0250   -3.0930 c2        1 DNA      0.368000
     11 C1K         1.4620   -0.0500   -0.8370 c2        1 DNA     -0.009000
     12 C1L        -0.7480    0.0170   -1.7910 c1        1 DNA     -0.179000
     13 C1M        -1.3000    0.0150   -0.5160 c2        1 DNA      0.114000
     14 C1N         0.9040   -0.0520    0.4550 c2        1 DNA     -0.023000
     15 C1O        -0.4610   -0.0210    0.6140 c2        1 DNA     -0.062000
     16 HO1C        3.0680    0.8980   -1.1920 ho        1 DNA      0.207000
     17 HO1D       -3.1540    0.2950   -0.2180 ho        1 DNA      0.283000
     18 H1E         1.7730   -0.1350    3.6420 ha        1 DNA      0.111000
     19 H1F        -0.5780   -0.0810    3.9160 ha        1 DNA      0.111000
     20 H1G         2.7120   -0.1150    1.4720 ha        1 DNA      0.134000
     21 H1H        -1.9880   -0.0090    2.0190 ha        1 DNA      0.143000
     22 H1I         1.0210   -0.0080   -2.8470 ha        1 DNA      0.160000
@<TRIPOS>BOND
     1    1   10 1   
     2    2   10 1   
     3    3   11 1   
     4    3   16 1   
     5    4   13 1   
     6    4   17 1   
     7    5    6 1   
     8    5   18 1   
     9    6   19 1   
    10    7   14 1   
    11    7   20 1   
    12    8   15 1   
    13    8   21 1   
    14    9   11 1   
    15    9   22 1   
    16   10   12 1   
    17   11   14 1   
    18   12   13 1   
    19   13   15 1   
    20   14   15 1   
@<TRIPOS>SUBSTRUCTURE
     1 DNA         1 TEMP              0 ****  ****    0 ROOT
