@<TRIPOS>MOLECULE
DNA
   22    23     1     0     0
SMALL
bcc


@<TRIPOS>ATOM
      1 O1A        -3.3210    1.2200    0.1440 o         1 DNA     -0.830300
      2 O1B        -3.5480   -0.9910    0.0020 o         1 DNA     -0.830300
      3 O1D        -0.8220    2.2720    0.1720 oh        1 DNA     -0.551100
      4 C1E         3.7520    0.2810   -0.0350 ca        1 DNA     -0.150000
      5 C1F         3.2520    1.6030    0.0600 ca        1 DNA     -0.168000
      6 C1G         2.8870   -0.7830   -0.0900 ca        1 DNA     -0.112000
      7 C1H         1.8990    1.8290    0.0980 ca        1 DNA     -0.088000
      8 C1I        -0.8140   -1.4190   -0.0710 ca        1 DNA     -0.126000
      9 C1J        -2.8370    0.0490    0.0590 c         1 DNA      0.919200
     10 C1K         0.5480   -1.6500   -0.1090 ca        1 DNA      0.036100
     11 C1L        -1.3280   -0.1100    0.0240 ca        1 DNA     -0.199600
     12 C1M        -0.4410    0.9610    0.0790 ca        1 DNA      0.159100
     13 C1N         1.4810   -0.5760   -0.0540 ca        1 DNA     -0.023000
     14 C1O         0.9770    0.7470    0.0420 ca        1 DNA     -0.062000
     15 HO1C        0.3370   -3.5400   -0.2300 ho        1 DNA      0.408000
     16 HO1D       -1.8030    2.3160    0.1910 ho        1 DNA      0.484000
     17 H1E         4.8390    0.1220   -0.0630 ha        1 DNA      0.110000
     18 H1F         3.9620    2.4400    0.1040 ha        1 DNA      0.112000
     19 H1G         3.2550   -1.8170   -0.1650 ha        1 DNA      0.134000
     20 H1H         1.4900    2.8490    0.1710 ha        1 DNA      0.143000
     21 H1I        -1.5440   -2.2450   -0.1130 ha        1 DNA      0.160000
     22 O1C         1.0830   -2.9260   -0.2020 oh        1 DNA     -0.524100
@<TRIPOS>BOND
     1    1    9 1   
     2    2    9 1   
     3    3   12 1   
     4    3   16 1   
     5    4    5 ar  
     6    4    6 ar  
     7    4   17 1   
     8    5    7 ar  
     9    5   18 1   
    10    6   13 ar  
    11    6   19 1   
    12    7   14 ar  
    13    7   20 1   
    14    8   10 ar  
    15    8   11 ar  
    16    8   21 1   
    17    9   11 1   
    18   10   13 ar  
    19   10   22 1   
    20   11   12 ar  
    21   12   14 ar  
    22   13   14 ar  
    23   15   22 1   
@<TRIPOS>SUBSTRUCTURE
     1 DNA         1 TEMP              0 ****  ****    0 ROOT
