@<TRIPOS>MOLECULE
DNA
   22    21     1     0     0
SMALL
bcc


@<TRIPOS>ATOM
      1 O1A        -0.1730   -0.3750   -0.6200 o         1 DNA     -0.215000
      2 O1B         1.0460   -2.3840   -0.9920 o         1 DNA     -0.215000
      3 O1D         0.1080    0.2300    2.3500 oh        1 DNA     -0.296000
      4 C1E         4.0390   -0.3310    6.2260 c3        1 DNA     -0.156000
      5 C1F        -0.0290   -0.3250    4.9070 c1        1 DNA      0.106000
      6 C1G         4.3080    0.1360    4.8900 c1        1 DNA     -0.316000
      7 C1H         1.2380    0.0320    4.8530 c2        1 DNA     -0.382000
      8 C1I         3.5880    0.9490    1.3430 c1        1 DNA     -0.409000
      9 C1J         0.4550   -1.3720   -0.7880 c1        1 DNA      0.431000
     10 C1K         4.2190    0.6720    2.5890 c2        1 DNA      0.251000
     11 C1L         2.2400    0.8140    1.2910 c2        1 DNA     -0.185000
     12 C1M         1.4790    0.4280    2.4420 c2        1 DNA     -0.007000
     13 C1N         3.5050    0.3580    3.8000 c2        1 DNA     -0.207000
     14 C1O         2.0640    0.2630    3.6860 c2        1 DNA     -0.053000
     15 HO1C        5.8620    0.5490    3.5340 ho        1 DNA      0.246000
     16 HO1D       -0.1780    0.6120    1.5080 ho        1 DNA      0.210000
     17 H1E         3.2820   -1.1590    6.2820 hc        1 DNA      0.055333
     18 H1F         4.9830   -0.7140    6.6950 hc        1 DNA      0.055333
     19 H1G         3.6760    0.5260    6.8560 hc        1 DNA      0.055333
     20 H1H         1.7390    0.2080    5.8280 ha        1 DNA      0.177000
     21 H1I         1.6860    1.0230    0.3640 ha        1 DNA      0.096000
     22 O1C         5.5720    0.7050    2.6070 oh        1 DNA     -0.241000
@<TRIPOS>BOND
     1    1    9 1   
     2    2    9 1   
     3    3   12 1   
     4    3   16 1   
     5    4    6 1   
     6    4   17 1   
     7    4   18 1   
     8    4   19 1   
     9    5    7 1   
    10    6   13 1   
    11    7   14 1   
    12    7   20 1   
    13    8   10 1   
    14    8   11 1   
    15   10   13 1   
    16   10   22 1   
    17   11   12 1   
    18   11   21 1   
    19   12   14 1   
    20   13   14 1   
    21   15   22 1   
@<TRIPOS>SUBSTRUCTURE
     1 DNA         1 TEMP              0 ****  ****    0 ROOT
