@<TRIPOS>MOLECULE
DNA
   22    20     1     0     0
SMALL
bcc


@<TRIPOS>ATOM
      1 O1A         0.1720   -0.4310   -0.8380 o         1 DNA     -0.216500
      2 O1B         2.1640   -1.3160   -1.7910 o         1 DNA     -0.216500
      3 O1D         0.1610   -0.5760    2.3340 oh        1 DNA     -0.301000
      4 C1E         4.8310   -0.9420    5.8410 c1        1 DNA     -0.343000
      5 C1F         1.5240    0.5760    6.6250 c2        1 DNA     -0.537000
      6 C1G         4.2370   -0.5680    4.8680 c1        1 DNA     -0.024000
      7 C1H         0.8570    0.8550    7.7010 c1        1 DNA      0.083000
      8 C1I         3.3350    1.2070    1.6640 c1        1 DNA     -0.437000
      9 C1J         1.1870   -0.8620   -1.2900 c1        1 DNA      0.433000
     10 C1K         4.0600    0.7480    2.7840 c2        1 DNA      0.080000
     11 C1L         2.0430    0.7740    1.5180 c2        1 DNA     -0.214000
     12 C1M         1.4660   -0.1140    2.4610 c2        1 DNA      0.001000
     13 C1N         3.5220   -0.1230    3.7420 c2        1 DNA     -0.075000
     14 C1O         2.1840   -0.5630    3.5610 c2        1 DNA     -0.204000
     15 HO1C        5.5390    1.7630    2.1970 ho        1 DNA      0.218000
     16 HO1D       -0.1780   -0.2150    1.5040 ho        1 DNA      0.202000
     17 H1E         1.1180    0.6060    5.5930 ha        1 DNA      0.224000
     18 H1F         2.5890    0.2700    6.5890 ha        1 DNA      0.224000
     19 H1G         5.3710   -1.2720    6.6860 ha        1 DNA      0.199000
     20 H1H         1.7340   -1.2600    4.2780 ha        1 DNA      0.112000
     21 H1I         1.4280    1.1100    0.6700 ha        1 DNA      0.086000
     22 O1C         5.3630    1.1800    2.9520 oh        1 DNA     -0.295000
@<TRIPOS>BOND
     1    1    9 1   
     2    2    9 1   
     3    3   12 1   
     4    3   16 1   
     5    4    6 1   
     6    4   19 1   
     7    5    7 1   
     8    5   17 1   
     9    5   18 1   
    10    6   13 1   
    11    8   10 1   
    12    8   11 1   
    13   10   13 1   
    14   10   22 1   
    15   11   12 1   
    16   11   21 1   
    17   12   14 1   
    18   13   14 1   
    19   14   20 1   
    20   15   22 1   
@<TRIPOS>SUBSTRUCTURE
     1 DNA         1 TEMP              0 ****  ****    0 ROOT
