@<TRIPOS>MOLECULE
DNB
   34    33     1     0     0
SMALL
bcc


@<TRIPOS>ATOM
      1 O2'        -1.4780    2.4950   -1.8580 oh        1 DNB     -0.801000
      2 C2'         2.3440   -0.6930    0.2120 c2        1 DNB     -0.277200
      3 C3'         1.3040   -0.8570    1.0420 c2        1 DNB      0.031100
      4 O3'         0.8880   -2.0640    1.5410 oh        1 DNB     -0.509100
      5 C1'         2.7280    0.6570   -0.3270 c3        1 DNB      0.295000
      6 N4'         4.1060    1.0060    0.0420 nh        1 DNB     -0.700000
      7 C4'         4.2880    1.3550    1.3870 c2        1 DNB     -0.089000
      8 C5'         5.1110    2.3330    1.8270 c2        1 DNB     -0.052900
      9 O5'         5.3780    2.5610    3.1560 oh        1 DNB     -0.503100
     10 C1          2.5540    0.6490   -1.8290 ca        1 DNB     -0.104300
     11 C6          3.4050   -0.1000   -2.6440 ca        1 DNB     -0.110000
     12 C5          3.2210   -0.1110   -4.0210 ca        1 DNB     -0.170000
     13 C4          2.1850    0.6250   -4.6300 ca        1 DNB      0.090600
     14 C3          1.3140    1.4000   -3.7960 ca        1 DNB      0.076600
     15 N3          0.2130    2.0880   -4.3460 nh        1 DNB     -0.814200
     16 C2          1.5260    1.3950   -2.4040 ca        1 DNB     -0.155000
     17 HO2'       -2.4020    2.7380   -1.9660 ho        1 DNB      0.402000
     18 H2'        -1.4770    1.5400   -1.9760 ho        1 DNB      0.402000
     19 H3'         2.9600   -1.5370   -0.1290 ha        1 DNB      0.140000
     20 HO3'        1.4640   -2.7630    1.1980 ho        1 DNB      0.414000
     21 H1'         0.6480   -0.0570    1.4250 h4        1 DNB      0.163000
     22 HN4'        2.0100    1.4280    0.1020 h1        1 DNB      0.031700
     23 H4'         4.4870    1.6790   -0.5960 hn        1 DNB      0.382800
     24 H5'         3.7510    0.6980    2.0960 h4        1 DNB      0.141000
     25 H5'A        5.6850    3.0380    1.2080 h4        1 DNB      0.165000
     26 HO5'        4.8720    1.9300    3.6880 ho        1 DNB      0.406000
     27 H6          4.2220   -0.6850   -2.1950 ha        1 DNB      0.143000
     28 H5          3.9060   -0.7080   -4.6440 ha        1 DNB      0.130000
     29 HN3        -0.2510    2.6640   -3.6690 hn        1 DNB      0.384800
     30 HN3A        0.4590    2.6180   -5.1570 hn        1 DNB      0.384800
     31 H2          0.8610    1.9920   -1.7560 ha        1 DNB      0.146000
     32 N4          2.0670    0.6650   -6.0320 nh        1 DNB     -0.804200
     33 HN4         1.1210    0.6240   -6.3500 hn        1 DNB      0.380300
     34 HN4A        2.6310   -0.0240   -6.4850 hn        1 DNB      0.380300
@<TRIPOS>BOND
     1    1   17 1   
     2    1   18 1   
     3    2    3 2   
     4    2    5 1   
     5    2   19 1   
     6    3    4 1   
     7    3   21 1   
     8    4   20 1   
     9    5    6 1   
    10    5   10 1   
    11    5   22 1   
    12    6    7 1   
    13    6   23 1   
    14    7    8 2   
    15    7   24 1   
    16    8    9 1   
    17    8   25 1   
    18    9   26 1   
    19   10   11 ar  
    20   10   16 ar  
    21   11   12 ar  
    22   11   27 1   
    23   12   13 ar  
    24   12   28 1   
    25   13   14 ar  
    26   13   32 1   
    27   14   15 1   
    28   14   16 ar  
    29   15   29 1   
    30   15   30 1   
    31   16   31 1   
    32   32   33 1   
    33   32   34 1   
@<TRIPOS>SUBSTRUCTURE
     1 DNB         1 TEMP              0 ****  ****    0 ROOT
