@<TRIPOS>MOLECULE
DNB
   34    33     1     0     0
SMALL
bcc


@<TRIPOS>ATOM
      1 O2'        -1.2900    1.5030   -1.5180 oh        1 DNB     -0.811000
      2 C2'         2.1560   -0.3200    0.2530 c2        1 DNB     -0.286200
      3 C3'         0.8240   -0.3190    0.4120 c2        1 DNB      0.027100
      4 O3'         0.0980   -1.3770    0.8960 oh        1 DNB     -0.510100
      5 C1'         2.8700    0.8800   -0.3090 c3        1 DNB      0.298000
      6 N4'         4.2850    0.9060    0.0760 nh        1 DNB     -0.700000
      7 C4'         4.5210    1.1820    1.4300 c2        1 DNB     -0.088000
      8 C5'         5.5460    1.9310    1.8970 c2        1 DNB     -0.053900
      9 O5'         5.8360    2.0730    3.2330 oh        1 DNB     -0.503100
     10 C1          2.6900    0.9000   -1.8120 ca        1 DNB     -0.117300
     11 C6          3.5460    0.2270   -2.6830 ca        1 DNB     -0.096000
     12 C5          3.3090    0.2480   -4.0510 ca        1 DNB     -0.182000
     13 C4          2.1880    0.9110   -4.5990 ca        1 DNB      0.134600
     14 C3          1.3100    1.6090   -3.7060 ca        1 DNB      0.035600
     15 N3          0.1280    2.2240   -4.1830 nh        1 DNB     -0.803200
     16 C2          1.5970    1.5960   -2.3290 ca        1 DNB     -0.149000
     17 HO2'       -0.9570    0.7450   -2.0130 ho        1 DNB      0.406000
     18 H2'        -2.2130    1.2870   -1.3620 ho        1 DNB      0.406000
     19 H3'         2.7710   -1.1990    0.4960 ha        1 DNB      0.142000
     20 HO3'        0.6970   -2.1150    1.0790 ho        1 DNB      0.413000
     21 H1'         0.1420    0.5170    0.1670 h4        1 DNB      0.176000
     22 HN4'        2.3520    1.8070    0.1030 h1        1 DNB      0.032700
     23 H4'         4.8120    1.4900   -0.5450 hn        1 DNB      0.380800
     24 H5'         3.8310    0.6630    2.1210 h4        1 DNB      0.143000
     25 H5'A        6.2810    2.4870    1.2970 h4        1 DNB      0.164000
     26 HO5'        5.1810    1.5810    3.7480 ho        1 DNB      0.406000
     27 H6          4.4110   -0.3340   -2.2960 ha        1 DNB      0.145000
     28 H5          4.0010   -0.2890   -4.7180 ha        1 DNB      0.132000
     29 HN3         0.3260    2.9410   -4.8520 hn        1 DNB      0.372300
     30 HN3A       -0.4290    2.5870   -3.4320 hn        1 DNB      0.372300
     31 H2          0.9270    2.1330   -1.6330 ha        1 DNB      0.147000
     32 N4          1.9270    0.7990   -5.9670 nh        1 DNB     -0.821200
     33 HN4         2.7380    0.6820   -6.5320 hn        1 DNB      0.392800
     34 HN4A        1.2690    1.4410   -6.3450 hn        1 DNB      0.392800
@<TRIPOS>BOND
     1    1   17 1   
     2    1   18 1   
     3    2    3 2   
     4    2    5 1   
     5    2   19 1   
     6    3    4 1   
     7    3   21 1   
     8    4   20 1   
     9    5    6 1   
    10    5   10 1   
    11    5   22 1   
    12    6    7 1   
    13    6   23 1   
    14    7    8 2   
    15    7   24 1   
    16    8    9 1   
    17    8   25 1   
    18    9   26 1   
    19   10   11 ar  
    20   10   16 ar  
    21   11   12 ar  
    22   11   27 1   
    23   12   13 ar  
    24   12   28 1   
    25   13   14 ar  
    26   13   32 1   
    27   14   15 1   
    28   14   16 ar  
    29   15   29 1   
    30   15   30 1   
    31   16   31 1   
    32   32   33 1   
    33   32   34 1   
@<TRIPOS>SUBSTRUCTURE
     1 DNB         1 TEMP              0 ****  ****    0 ROOT
