@<TRIPOS>MOLECULE
DNB
   34    35     1     0     0
SMALL
bcc


@<TRIPOS>ATOM
      1 O2'        -1.2580    2.8920   -0.0410 oh        1 DNB     -0.596800
      2 C2'        -1.2070    1.5420   -0.4620 c3        1 DNB      0.100100
      3 C3'        -2.6260    0.9950   -0.7540 c3        1 DNB      0.102100
      4 O3'        -3.6070    1.9710   -0.4810 oh        1 DNB     -0.596800
      5 C1'        -0.6660    0.7090    0.7420 c3        1 DNB      0.209800
      6 N4'        -1.7500   -0.1650    1.1930 n3        1 DNB     -0.797200
      7 C4'        -2.7800   -0.2510    0.1610 c3        1 DNB      0.132500
      8 C5'        -2.7650   -1.5100   -0.7250 c3        1 DNB      0.100400
      9 O5'        -2.6570   -2.6420    0.1230 oh        1 DNB     -0.603800
     10 C1          0.6400    0.0600    0.3710 ca        1 DNB     -0.124300
     11 C6          0.7470   -1.2750   -0.0180 ca        1 DNB     -0.120000
     12 C5          1.9830   -1.8130   -0.3510 ca        1 DNB     -0.173000
     13 C4          3.1610   -1.0370   -0.3260 ca        1 DNB      0.126600
     14 C3          3.0610    0.3300    0.0980 ca        1 DNB      0.048600
     15 N3          4.1970    1.1720    0.1020 nh        1 DNB     -0.794200
     16 C2          1.7960    0.8430    0.4320 ca        1 DNB     -0.138000
     17 HO2'       -1.7680    3.3740   -0.7070 ho        1 DNB      0.415000
     18 H2'        -0.5410    1.4480   -1.3590 h1        1 DNB      0.061700
     19 H3'        -2.7680    0.7440   -1.8370 h1        1 DNB      0.083700
     20 HO3'       -3.5100    2.2260    0.4480 ho        1 DNB      0.422000
     21 H1'        -0.4720    1.4200    1.6030 h1        1 DNB      0.092700
     22 HN4'       -1.4210   -1.0750    1.4570 hn        1 DNB      0.387800
     23 H4'        -3.7720   -0.2170    0.6980 h1        1 DNB      0.087700
     24 H5'        -3.7180   -1.5520   -1.3160 h1        1 DNB      0.031200
     25 H5'A       -1.8930   -1.4910   -1.4330 h1        1 DNB      0.031200
     26 HO5'       -2.7830   -3.4170   -0.4350 ho        1 DNB      0.406000
     27 H6         -0.1420   -1.9250   -0.0710 ha        1 DNB      0.137000
     28 H5          2.0360   -2.8700   -0.6580 ha        1 DNB      0.132000
     29 HN3         4.9520    0.7840    0.6310 hn        1 DNB      0.368300
     30 HN3A        3.9800    2.0920    0.4270 hn        1 DNB      0.368300
     31 H2          1.6990    1.8970    0.7450 ha        1 DNB      0.138000
     32 N4          4.3580   -1.5960   -0.7840 nh        1 DNB     -0.819200
     33 HN4         4.4290   -2.5790   -0.6450 hn        1 DNB      0.391800
     34 HN4A        5.1910   -1.1050   -0.5570 hn        1 DNB      0.391800
@<TRIPOS>BOND
     1    1    2 1   
     2    1   17 1   
     3    2    3 1   
     4    2    5 1   
     5    2   18 1   
     6    3    4 1   
     7    3    7 1   
     8    3   19 1   
     9    4   20 1   
    10    5    6 1   
    11    5   10 1   
    12    5   21 1   
    13    6    7 1   
    14    6   22 1   
    15    7    8 1   
    16    7   23 1   
    17    8    9 1   
    18    8   24 1   
    19    8   25 1   
    20    9   26 1   
    21   10   11 ar  
    22   10   16 ar  
    23   11   12 ar  
    24   11   27 1   
    25   12   13 ar  
    26   12   28 1   
    27   13   14 ar  
    28   13   32 1   
    29   14   15 1   
    30   14   16 ar  
    31   15   29 1   
    32   15   30 1   
    33   16   31 1   
    34   32   33 1   
    35   32   34 1   
@<TRIPOS>SUBSTRUCTURE
     1 DNB         1 TEMP              0 ****  ****    0 ROOT
