@<TRIPOS>MOLECULE
DNB
   34    33     1     0     0
SMALL
bcc


@<TRIPOS>ATOM
      1 O2'        -1.5850    0.9120   -1.3960 oh        1 DNB     -0.412000
      2 C2'         1.8080    0.2050    0.1810 c2        1 DNB     -0.257000
      3 C3'         0.6860    0.8080    0.6020 c2        1 DNB     -0.034000
      4 O3'        -0.4270    0.1500    1.0660 oh        1 DNB     -0.284000
      5 C1'         2.9170    0.9810   -0.4810 c3        1 DNB      0.062000
      6 N4'         4.2300    0.4760   -0.0730 n7        1 DNB     -0.248000
      7 C4'         4.5300    0.6640    1.2860 c2        1 DNB     -0.185000
      8 C5'         5.7400    1.0340    1.7630 c2        1 DNB     -0.080000
      9 O5'         6.0500    1.0750    3.0990 oh        1 DNB     -0.253000
     10 C1          2.6990    0.9480   -1.9840 c2        1 DNB     -0.040000
     11 C6          3.8350    0.7520   -2.9230 c3        1 DNB     -0.152000
     12 C5          3.5180    0.8080   -4.3420 c1        1 DNB     -0.221000
     13 C4          2.2270    0.9900   -4.8100 c2        1 DNB     -0.224000
     14 C3          1.1410    1.1350   -3.8930 c2        1 DNB      0.231000
     15 N3         -0.1530    1.2700   -4.2570 n8        1 DNB     -0.327000
     16 C2          1.4490    1.1360   -2.4630 c2        1 DNB     -0.232000
     17 HO2'       -1.3980    0.0230   -1.0790 ho        1 DNB      0.206500
     18 H2'        -1.6880    1.4170   -0.5820 ho        1 DNB      0.206500
     19 H3'         1.9470   -0.8840    0.2470 ha        1 DNB      0.151000
     20 HO3'       -0.2120   -0.7850    1.1980 ho        1 DNB      0.221000
     21 H1'         0.4870    1.8930    0.5860 h4        1 DNB      0.167000
     22 HN4'        2.8130    2.0760   -0.1820 h1        1 DNB      0.078000
     23 H4'         4.9520    0.8170   -0.6800 hn        1 DNB      0.178000
     24 H5'         3.7010    0.4010    1.9690 h4        1 DNB      0.142000
     25 H5'A        6.6240    1.3150    1.1690 h4        1 DNB      0.168000
     26 HO5'        5.2690    0.8170    3.6110 ho        1 DNB      0.207000
     27 H6          4.6290    1.5310   -2.7300 hc        1 DNB      0.144000
     28 H5          4.3080   -0.2580   -2.7350 hc        1 DNB      0.144000
     29 HN3        -0.4050    1.2640   -5.2160 hn        1 DNB      0.248500
     30 HN3A       -0.8680    1.3290   -3.5670 hn        1 DNB      0.248500
     31 H2          0.5960    1.2920   -1.7760 ha        1 DNB      0.144000
     32 N4          1.9370    1.0210   -6.2100 n8        1 DNB     -0.288000
     33 HN4         2.2990    0.1830   -6.6320 hn        1 DNB      0.144500
     34 HN4A        2.4220    1.7990   -6.6210 hn        1 DNB      0.144500
@<TRIPOS>BOND
     1    1   17 1   
     2    1   18 1   
     3    2    3 1   
     4    2    5 1   
     5    2   19 1   
     6    3    4 1   
     7    3   21 1   
     8    4   20 1   
     9    5    6 1   
    10    5   10 1   
    11    5   22 1   
    12    6    7 1   
    13    6   23 1   
    14    7    8 1   
    15    7   24 1   
    16    8    9 1   
    17    8   25 1   
    18    9   26 1   
    19   10   11 1   
    20   10   16 1   
    21   11   12 1   
    22   11   27 1   
    23   11   28 1   
    24   12   13 1   
    25   13   14 1   
    26   13   32 1   
    27   14   15 1   
    28   14   16 1   
    29   15   29 1   
    30   15   30 1   
    31   16   31 1   
    32   32   33 1   
    33   32   34 1   
@<TRIPOS>SUBSTRUCTURE
     1 DNB         1 TEMP              0 ****  ****    0 ROOT
