@<TRIPOS>MOLECULE
DNB
   34    33     1     0     0
SMALL
bcc


@<TRIPOS>ATOM
      1 O2'        -2.5970   -0.6320    1.1830 oh        1 DNB     -0.322000
      2 C2'        -1.1120   -0.6640    1.1900 c3        1 DNB     -0.016000
      3 C3'        -0.5760   -0.6760    2.6690 c3        1 DNB     -0.015000
      4 O3'        -1.5570   -0.4000    3.5160 oh        1 DNB     -0.323000
      5 C1'        -0.6430    0.4110    0.6740 c3        1 DNB      0.007000
      6 N4'         0.7470    0.7460    1.4960 n3        1 DNB     -0.273000
      7 C4'         0.5180    0.4320    2.7280 c3        1 DNB     -0.065000
      8 C5'         1.8000   -0.1170    3.3870 c3        1 DNB     -0.043000
      9 O5'         2.6600    0.9540    3.7080 oh        1 DNB     -0.322000
     10 C1         -0.3430    0.1970   -0.7860 c2        1 DNB     -0.117000
     11 C6          0.5070   -0.8260   -1.1760 c2        1 DNB     -0.116000
     12 C5          0.8130   -1.0000   -2.5170 c1        1 DNB     -0.175000
     13 C4          0.2680   -0.1510   -3.4680 c1        1 DNB      0.055000
     14 C3         -0.5820    0.8720   -3.0780 c1        1 DNB     -0.040000
     15 N3         -1.1320    1.7460   -4.0500 n2        1 DNB     -0.303000
     16 C2         -0.8870    1.0460   -1.7370 c2        1 DNB     -0.125000
     17 HO2'       -2.9100   -1.4470    1.0170 ho        1 DNB      0.213000
     18 H2'        -0.7860   -1.4460    0.7030 h1        1 DNB      0.096000
     19 H3'        -0.1840   -1.5480    2.8780 h1        1 DNB      0.121000
     20 HO3'       -1.6100   -1.0430    4.1290 ho        1 DNB      0.220000
     21 H1'        -1.2820    1.1430    0.7830 h1        1 DNB      0.131000
     22 HN4'        1.4260    0.2280    1.1700 hn        1 DNB      0.181000
     23 H4'         0.1880    1.2090    3.2210 h1        1 DNB      0.129000
     24 H5'         1.5650   -0.6040    4.2040 h1        1 DNB      0.066000
     25 H5'A        2.2530   -0.7240    2.7650 h1        1 DNB      0.066000
     26 HO5'        3.2750    0.6770    4.2870 ho        1 DNB      0.203000
     27 H6          0.8910   -1.4230   -0.5070 ha        1 DNB      0.126000
     28 H5          1.4110   -1.7210   -2.7920 ha        1 DNB      0.132000
     29 HN3        -2.0320    1.7400   -4.2140 hn        1 DNB      0.163000
     30 HN3A       -0.5870    2.3130   -4.5160 hn        1 DNB      0.163000
     31 H2         -1.4860    1.7670   -1.4630 ha        1 DNB      0.137000
     32 N4          0.5940   -0.3190   -4.8380 n3        1 DNB     -0.334000
     33 HN4         1.0420    0.3400   -5.2860 hn        1 DNB      0.191000
     34 HN4A        0.3460   -1.0820   -5.2770 hn        1 DNB      0.191000
@<TRIPOS>BOND
     1    1    2 1   
     2    1   17 1   
     3    2    3 1   
     4    2    5 1   
     5    2   18 1   
     6    3    4 1   
     7    3    7 1   
     8    3   19 1   
     9    4   20 1   
    10    5    6 1   
    11    5   10 1   
    12    5   21 1   
    13    6    7 1   
    14    6   22 1   
    15    7    8 1   
    16    7   23 1   
    17    8    9 1   
    18    8   24 1   
    19    8   25 1   
    20    9   26 1   
    21   10   11 1   
    22   10   16 1   
    23   11   12 1   
    24   11   27 1   
    25   12   28 1   
    26   13   14 1   
    27   13   32 1   
    28   14   16 1   
    29   15   29 1   
    30   15   30 1   
    31   16   31 1   
    32   32   33 1   
    33   32   34 1   
@<TRIPOS>SUBSTRUCTURE
     1 DNB         1 TEMP              0 ****  ****    0 ROOT
