@<TRIPOS>MOLECULE
DNC
   18    18     1     0     0
SMALL
bcc


@<TRIPOS>ATOM
      1 C1          0.0580    0.0220   -0.0290 ca        1 DNC      0.020100
      2 O1         -0.5060    0.0390   -1.2870 oh        1 DNC     -0.506100
      3 C2          1.4810   -0.0300   -0.0170 ca        1 DNC      0.225100
      4 O2          2.2150   -0.0610   -1.1570 oh        1 DNC     -0.431100
      5 C3          2.1440   -0.0500    1.2290 ca        1 DNC     -0.216200
      6 N1          3.6280   -0.1050    1.3000 no        1 DNC      0.329200
      7 O3          4.1430   -0.1200    2.3870 o         1 DNC     -0.185500
      8 O4          4.2620   -0.1320    0.2840 o         1 DNC     -0.185500
      9 C4          1.4090   -0.0190    2.4280 ca        1 DNC     -0.001000
     10 C5          0.0150    0.0320    2.3760 ca        1 DNC     -0.198200
     11 N2         -0.7680    0.0650    3.6400 no        1 DNC      0.322200
     12 O5         -1.9670    0.1090    3.5710 o         1 DNC     -0.196000
     13 O6         -0.1820    0.0470    4.6860 o         1 DNC     -0.196000
     14 C6         -0.6750    0.0530    1.1470 ca        1 DNC     -0.082000
     15 HO1        -1.4700    0.0750   -1.1870 ho        1 DNC      0.447000
     16 HO2         1.6140   -0.0410   -1.9240 ho        1 DNC      0.458000
     17 H4          1.9400   -0.0360    3.4030 ha        1 DNC      0.212000
     18 H6         -1.7790    0.0940    1.1280 ha        1 DNC      0.184000
@<TRIPOS>BOND
     1    1    2 1   
     2    1    3 ar  
     3    1   14 ar  
     4    2   15 1   
     5    3    4 1   
     6    3    5 ar  
     7    4   16 1   
     8    5    6 1   
     9    5    9 ar  
    10    6    7 1   
    11    6    8 1   
    12    9   10 ar  
    13    9   17 1   
    14   10   11 1   
    15   10   14 ar  
    16   11   12 1   
    17   11   13 1   
    18   14   18 1   
@<TRIPOS>SUBSTRUCTURE
     1 DNC         1 TEMP              0 ****  ****    0 ROOT
