@<TRIPOS>MOLECULE
DNC
   18    18     1     0     0
SMALL
bcc


@<TRIPOS>ATOM
      1 C1          0.0540    0.0000   -0.0260 ca        1 DNC      0.020100
      2 O1         -0.5150   -0.0030   -1.2820 oh        1 DNC     -0.506100
      3 C2          1.4770   -0.0420   -0.0190 ca        1 DNC      0.225100
      4 O2          2.2080   -0.0820   -1.1610 oh        1 DNC     -0.431100
      5 C3          2.1450   -0.0410    1.2260 ca        1 DNC     -0.216200
      6 N1          3.6290   -0.0840    1.2920 no        1 DNC      0.329200
      7 O3          4.1470   -0.0810    2.3780 o         1 DNC     -0.185500
      8 O4          4.2600   -0.1200    0.2750 o         1 DNC     -0.185500
      9 C4          1.4130    0.0000    2.4260 ca        1 DNC     -0.001000
     10 C5          0.0180    0.0410    2.3780 ca        1 DNC     -0.198200
     11 N2         -0.7610    0.0840    3.6440 no        1 DNC      0.322200
     12 O5         -1.9610    0.1180    3.5780 o         1 DNC     -0.196000
     13 O6         -0.1710    0.0840    4.6890 o         1 DNC     -0.196000
     14 C6         -0.6760    0.0410    1.1510 ca        1 DNC     -0.082000
     15 HO1        -1.4780    0.0270   -1.1800 ho        1 DNC      0.447000
     16 HO2         1.6040   -0.0760   -1.9260 ho        1 DNC      0.458000
     17 H4          1.9470    0.0000    3.3990 ha        1 DNC      0.212000
     18 H6         -1.7800    0.0730    1.1360 ha        1 DNC      0.184000
@<TRIPOS>BOND
     1    1    2 1   
     2    1    3 ar  
     3    1   14 ar  
     4    2   15 1   
     5    3    4 1   
     6    3    5 ar  
     7    4   16 1   
     8    5    6 1   
     9    5    9 ar  
    10    6    7 1   
    11    6    8 1   
    12    9   10 ar  
    13    9   17 1   
    14   10   11 1   
    15   10   14 ar  
    16   11   12 1   
    17   11   13 1   
    18   14   18 1   
@<TRIPOS>SUBSTRUCTURE
     1 DNC         1 TEMP              0 ****  ****    0 ROOT
