@<TRIPOS>MOLECULE
DNC
   18    18     1     0     0
SMALL
bcc


@<TRIPOS>ATOM
      1 C1          1.8570   -0.0740    0.0430 ca        1 DNC      0.088100
      2 O1          3.2250   -0.1360   -0.0430 oh        1 DNC     -0.476100
      3 C2          1.0280   -0.0070   -1.1150 ca        1 DNC      0.176100
      4 O2          1.7240   -0.0120   -2.2850 oh        1 DNC     -0.503100
      5 C3         -0.3700    0.0540   -0.9460 ca        1 DNC     -0.245200
      6 N1         -1.2930    0.1250   -2.1030 no        1 DNC      0.327200
      7 O3         -2.4730    0.1760   -1.9070 o         1 DNC     -0.201500
      8 O4         -0.8290    0.1300   -3.2170 o         1 DNC     -0.201500
      9 C4         -0.9320    0.0500    0.3460 ca        1 DNC     -0.014000
     10 C5         -0.0920   -0.0170    1.4570 ca        1 DNC     -0.189200
     11 N2         -0.6860   -0.0210    2.8230 no        1 DNC      0.321200
     12 O5          0.0500   -0.0790    3.7700 o         1 DNC     -0.193000
     13 O6         -1.8800    0.0320    2.9330 o         1 DNC     -0.193000
     14 C6          1.3080   -0.0790    1.3210 ca        1 DNC     -0.046000
     15 HO1         3.4810   -0.1260   -0.9810 ho        1 DNC      0.450000
     16 HO2         1.1380    0.0340   -3.0620 ho        1 DNC      0.488000
     17 H4         -2.0340    0.0980    0.4720 ha        1 DNC      0.209000
     18 H6          1.9690   -0.1310    2.2060 ha        1 DNC      0.202000
@<TRIPOS>BOND
     1    1    2 1   
     2    1    3 ar  
     3    1   14 ar  
     4    2   15 1   
     5    3    4 1   
     6    3    5 ar  
     7    4   16 1   
     8    5    6 1   
     9    5    9 ar  
    10    6    7 1   
    11    6    8 1   
    12    9   10 ar  
    13    9   17 1   
    14   10   11 1   
    15   10   14 ar  
    16   11   12 1   
    17   11   13 1   
    18   14   18 1   
@<TRIPOS>SUBSTRUCTURE
     1 DNC         1 TEMP              0 ****  ****    0 ROOT
