@<TRIPOS>MOLECULE
DNC
   18    15     1     0     0
SMALL
bcc


@<TRIPOS>ATOM
      1 C1         -0.8480   -0.0740   -1.2480 c1        1 DNC     -0.025000
      2 O1         -1.5190   -0.2010   -2.4780 o         1 DNC     -0.222500
      3 C2          0.5370   -0.0300   -1.2150 c1        1 DNC      0.180000
      4 O2          1.2710   -0.0890   -2.4140 o         1 DNC     -0.222500
      5 C3          1.1990    0.0550   -0.0010 c2        1 DNC     -0.171000
      6 N1          2.6160    0.1190    0.0320 no        1 DNC      0.584000
      7 O3          3.3020   -0.4400    1.0720 o         1 DNC     -0.335500
      8 O4          3.2230    0.6850   -0.8660 o         1 DNC     -0.335500
      9 C4          0.4770    0.0960    1.1810 c1        1 DNC     -0.001000
     10 C5         -0.9080    0.0520    1.1490 c1        1 DNC     -0.153000
     11 N2         -1.6470    0.0620    2.3600 no        1 DNC      0.577000
     12 O5         -1.0060   -0.1250    3.5520 o         1 DNC     -0.346000
     13 O6         -2.8590    0.2200    2.3360 o         1 DNC     -0.346000
     14 C6         -1.5700   -0.0330   -0.0660 c2        1 DNC     -0.082000
     15 HO1        -1.9740    0.5440   -2.6460 ho        1 DNC      0.251500
     16 HO2         1.3070   -0.9300   -2.6980 ho        1 DNC      0.251500
     17 H4          0.9430    0.1550    2.0370 ha        1 DNC      0.212000
     18 H6         -2.5460   -0.0640   -0.0890 ha        1 DNC      0.184000
@<TRIPOS>BOND
     1    1    3 1   
     2    1   14 1   
     3    2   15 1   
     4    3    5 1   
     5    4   16 1   
     6    5    6 1   
     7    5    9 1   
     8    6    7 1   
     9    6    8 1   
    10    9   17 1   
    11   10   11 1   
    12   10   14 1   
    13   11   12 1   
    14   11   13 1   
    15   14   18 1   
@<TRIPOS>SUBSTRUCTURE
     1 DNC         1 TEMP              0 ****  ****    0 ROOT
