@<TRIPOS>MOLECULE
DNE
   21    20     1     0     0
SMALL
bcc


@<TRIPOS>ATOM
      1 N           0.5750    1.4190    2.2870 n3        1 DNE     -0.891800
      2 CA          0.1330    1.5080    0.9380 c3        1 DNE      0.019500
      3 C           0.6210    2.8030    0.3310 c         1 DNE      0.887600
      4 O          -0.2030    3.6190   -0.1590 o         1 DNE     -0.845800
      5 CB          0.6860    0.3430    0.1490 c3        1 DNE     -0.064400
      6 CG         -0.4530   -0.5410   -0.3100 c3        1 DNE     -0.075400
      7 CD          0.1040   -1.7430   -1.0390 c3        1 DNE     -0.082400
      8 CE         -1.0340   -2.6370   -1.4820 c3        1 DNE     -0.088100
      9 OXT         1.8520    3.0670    0.3170 o         1 DNE     -0.845800
     10 H          -0.0460    0.9640    2.7820 hn        1 DNE      0.329300
     11 H2          0.6800    2.2620    2.6300 hn        1 DNE      0.329300
     12 HA         -0.8440    1.4840    0.9130 h1        1 DNE      0.040700
     13 HB2         1.1730    0.6780   -0.6300 hc        1 DNE      0.045200
     14 HB3         1.2930   -0.1750    0.7150 hc        1 DNE      0.045200
     15 HG2        -0.9670   -0.8400    0.4670 hc        1 DNE      0.035200
     16 HG3        -1.0360   -0.0360   -0.9120 hc        1 DNE      0.035200
     17 HD2         0.6080   -1.4450   -1.8230 hc        1 DNE      0.032700
     18 HD3         0.6960   -2.2420   -0.4410 hc        1 DNE      0.032700
     19 HE1        -1.6070   -2.1490   -2.1100 hc        1 DNE      0.021033
     20 HE2        -1.5610   -2.9060   -0.7000 hc        1 DNE      0.021033
     21 HE3        -0.6710   -3.4340   -1.9220 hc        1 DNE      0.021033
@<TRIPOS>BOND
     1    1    2 1   
     2    1   10 1   
     3    1   11 1   
     4    2    3 1   
     5    2    5 1   
     6    2   12 1   
     7    3    4 1   
     8    3    9 1   
     9    5    6 1   
    10    5   13 1   
    11    5   14 1   
    12    6    7 1   
    13    6   15 1   
    14    6   16 1   
    15    7    8 1   
    16    7   17 1   
    17    7   18 1   
    18    8   19 1   
    19    8   20 1   
    20    8   21 1   
@<TRIPOS>SUBSTRUCTURE
     1 DNE         1 TEMP              0 ****  ****    0 ROOT
