@<TRIPOS>MOLECULE
DNE
   21    20     1     0     0
SMALL
bcc


@<TRIPOS>ATOM
      1 N           5.5510   -0.5600   -4.0020 n3        1 DNE     -0.889800
      2 CA          4.5990    0.5330   -3.8250 c3        1 DNE      0.019500
      3 C           4.6880    1.2140   -2.4200 c         1 DNE      0.886600
      4 O           5.7770    1.1200   -1.7840 o         1 DNE     -0.846300
      5 CB          4.7540    1.6090   -4.9060 c3        1 DNE     -0.050400
      6 CG          3.5030    2.4550   -5.0010 c3        1 DNE     -0.092400
      7 CD          3.7080    3.6420   -5.9180 c3        1 DNE     -0.076400
      8 CE          2.4550    4.4710   -6.0400 c3        1 DNE     -0.087100
      9 OXT         3.6620    1.8100   -1.9870 o         1 DNE     -0.846300
     10 H           5.4850   -1.1470   -3.1880 hn        1 DNE      0.328300
     11 H2          6.4780   -0.1690   -3.9870 hn        1 DNE      0.328300
     12 HA          3.5680    0.0830   -3.9160 h1        1 DNE      0.041700
     13 HB2         5.6330    2.2570   -4.6500 hc        1 DNE      0.022200
     14 HB3         4.9620    1.1400   -5.9040 hc        1 DNE      0.022200
     15 HG2         2.6550    1.8300   -5.3840 hc        1 DNE      0.061200
     16 HG3         3.2220    2.8030   -3.9670 hc        1 DNE      0.061200
     17 HD2         4.5410    4.2800   -5.5190 hc        1 DNE      0.025700
     18 HD3         4.0240    3.2860   -6.9340 hc        1 DNE      0.025700
     19 HE1         1.6220    3.8640   -6.4710 hc        1 DNE      0.022033
     20 HE2         2.6280    5.3520   -6.7040 hc        1 DNE      0.022033
     21 HE3         2.1330    4.8410   -5.0370 hc        1 DNE      0.022033
@<TRIPOS>BOND
     1    1    2 1   
     2    1   10 1   
     3    1   11 1   
     4    2    3 1   
     5    2    5 1   
     6    2   12 1   
     7    3    4 1   
     8    3    9 1   
     9    5    6 1   
    10    5   13 1   
    11    5   14 1   
    12    6    7 1   
    13    6   15 1   
    14    6   16 1   
    15    7    8 1   
    16    7   17 1   
    17    7   18 1   
    18    8   19 1   
    19    8   20 1   
    20    8   21 1   
@<TRIPOS>SUBSTRUCTURE
     1 DNE         1 TEMP              0 ****  ****    0 ROOT
