@<TRIPOS>MOLECULE
DNF
   17    17     1     0     0
SMALL
bcc


@<TRIPOS>ATOM
      1 C1          0.0050    0.1040   -0.0270 ca        1 DNF      0.232100
      2 O1         -0.6310    0.1580   -1.2280 oh        1 DNF     -0.435100
      3 C2          1.4220    0.0460   -0.0260 ca        1 DNF     -0.232200
      4 N2          2.1910    0.0450   -1.2970 no        1 DNF      0.328200
      5 O21         1.5990    0.0930   -2.3380 o         1 DNF     -0.188500
      6 O22         3.3900   -0.0060   -1.2350 o         1 DNF     -0.188500
      7 C3          2.1180   -0.0110    1.1910 ca        1 DNF      0.027000
      8 C4          1.4000   -0.0090    2.3920 ca        1 DNF     -0.232200
      9 N4          2.1320   -0.0700    3.6830 no        1 DNF      0.323200
     10 O41         3.3310   -0.1180    3.6690 o         1 DNF     -0.198500
     11 O42         1.4970   -0.0680    4.7040 o         1 DNF     -0.198500
     12 C5         -0.0080    0.0480    2.3980 ca        1 DNF      0.010000
     13 C6         -0.6940    0.1040    1.1970 ca        1 DNF     -0.243000
     14 HO1        -1.5910    0.1940   -1.0720 ho        1 DNF      0.439000
     15 H3          3.2280   -0.0560    1.1940 ha        1 DNF      0.211000
     16 H5         -0.5580    0.0480    3.3570 ha        1 DNF      0.184000
     17 H6         -1.7940    0.1490    1.1910 ha        1 DNF      0.162000
@<TRIPOS>BOND
     1    1    2 1   
     2    1    3 ar  
     3    1   13 ar  
     4    2   14 1   
     5    3    4 1   
     6    3    7 ar  
     7    4    5 1   
     8    4    6 1   
     9    7    8 ar  
    10    7   15 1   
    11    8    9 1   
    12    8   12 ar  
    13    9   10 1   
    14    9   11 1   
    15   12   13 ar  
    16   12   16 1   
    17   13   17 1   
@<TRIPOS>SUBSTRUCTURE
     1 DNF         1 TEMP              0 ****  ****    0 ROOT
