@<TRIPOS>MOLECULE
DNF
   17    17     1     0     0
SMALL
bcc


@<TRIPOS>ATOM
      1 C1          1.1470    1.3110    0.0990 ca        1 DNF      0.260100
      2 O1          2.3100    2.0020    0.1500 oh        1 DNF     -0.476100
      3 C2          0.9920   -0.0970    0.0850 ca        1 DNF     -0.290200
      4 N2          2.1490   -1.0160    0.1250 no        1 DNF      0.328200
      5 O21         3.2610   -0.5500    0.1720 o         1 DNF     -0.205500
      6 O22         1.9580   -2.1990    0.1110 o         1 DNF     -0.205500
      7 C3         -0.2980   -0.6640    0.0300 ca        1 DNF      0.029000
      8 C4         -1.4130    0.1710   -0.0100 ca        1 DNF     -0.232200
      9 N4         -2.7740   -0.4220   -0.0680 no        1 DNF      0.323200
     10 O41        -2.8850   -1.6170   -0.0800 o         1 DNF     -0.198500
     11 O42        -3.7220    0.3160   -0.1020 o         1 DNF     -0.198500
     12 C5         -1.2700    1.5770    0.0040 ca        1 DNF      0.001000
     13 C6         -0.0100    2.1320    0.0580 ca        1 DNF     -0.189000
     14 HO1         3.0900    1.4190    0.1770 ho        1 DNF      0.479000
     15 H3         -0.4180   -1.7680    0.0180 ha        1 DNF      0.207000
     16 H5         -2.1680    2.2230   -0.0280 ha        1 DNF      0.185000
     17 H6          0.1310    3.2260    0.0700 ha        1 DNF      0.180000
@<TRIPOS>BOND
     1    1    2 1   
     2    1    3 ar  
     3    1   13 ar  
     4    2   14 1   
     5    3    4 1   
     6    3    7 ar  
     7    4    5 1   
     8    4    6 1   
     9    7    8 ar  
    10    7   15 1   
    11    8    9 1   
    12    8   12 ar  
    13    9   10 1   
    14    9   11 1   
    15   12   13 ar  
    16   12   16 1   
    17   13   17 1   
@<TRIPOS>SUBSTRUCTURE
     1 DNF         1 TEMP              0 ****  ****    0 ROOT
