@<TRIPOS>MOLECULE
DNF
   17    14     1     0     0
SMALL
bcc


@<TRIPOS>ATOM
      1 C1         -0.9580    0.0260   -1.0580 c1        1 DNF      0.187000
      2 O1         -1.6340    0.0720   -2.2910 o         1 DNF     -0.189000
      3 C2          0.4250    0.1170   -1.0230 c1        1 DNF     -0.187000
      4 N2          1.1640    0.1610   -2.2330 n2        1 DNF      0.471900
      5 O21         2.3460   -0.1480   -2.2390 o         1 DNF     -0.289200
      6 O22         0.5480    0.5270   -3.3960 o         1 DNF     -0.289200
      7 C3          1.0890    0.1100    0.1940 c2        1 DNF      0.027000
      8 C4          0.3700    0.0110    1.3750 c1        1 DNF     -0.187000
      9 N4          1.0520   -0.0330    2.6180 n2        1 DNF      0.471900
     10 O41         1.9850   -0.8060    2.7760 o         1 DNF     -0.289200
     11 O42         0.6660    0.7900    3.6380 o         1 DNF     -0.289200
     12 C5         -1.0120   -0.0800    1.3390 c2        1 DNF      0.010000
     13 C6         -1.6760   -0.0730    0.1230 c2        1 DNF     -0.243000
     14 HO1        -2.2590   -0.5610   -2.3110 ho        1 DNF      0.238000
     15 H3          2.0620    0.1740    0.2190 ha        1 DNF      0.211000
     16 H5         -1.5190   -0.1500    2.1710 ha        1 DNF      0.184000
     17 H6         -2.6500   -0.1370    0.0980 ha        1 DNF      0.162000
@<TRIPOS>BOND
     1    1    3 1   
     2    1   13 1   
     3    2   14 1   
     4    3    7 1   
     5    4    5 2   
     6    4    6 2   
     7    7    8 1   
     8    7   15 1   
     9    8   12 1   
    10    9   10 2   
    11    9   11 2   
    12   12   13 1   
    13   12   16 1   
    14   13   17 1   
@<TRIPOS>SUBSTRUCTURE
     1 DNF         1 TEMP              0 ****  ****    0 ROOT
