@<TRIPOS>MOLECULE
DNG
   23    22     1     0     0
SMALL
bcc


@<TRIPOS>ATOM
      1 C           1.6220    1.3850   -0.0810 c         1 DNG      0.911600
      2 N           0.9840   -0.9450   -0.7140 n         1 DNG     -0.528900
      3 O           2.4900    1.3130   -0.9970 o         1 DNG     -0.832800
      4 C1          0.8210   -2.2410   -0.3430 c         1 DNG      0.642900
      5 O1          0.1350   -2.6460    0.6220 o         1 DNG     -0.669100
      6 CA          0.5920    0.2030    0.0760 c3        1 DNG     -0.049300
      7 CB         -0.7960    0.7480   -0.2790 c3        1 DNG     -0.072400
      8 CD         -3.2680    0.3790   -0.1930 c3        1 DNG     -0.078400
      9 CE         -4.3850   -0.4660    0.3620 c3        1 DNG     -0.088100
     10 CG         -1.9110   -0.1240    0.2540 c3        1 DNG     -0.083400
     11 OXT         1.5060    2.3360    0.7350 o         1 DNG     -0.832800
     12 H           1.6680   -0.7250   -1.4110 hn        1 DNG      0.328500
     13 HC1         1.3330   -2.9680   -1.0240 h5        1 DNG     -0.016800
     14 HA          0.5840   -0.0960    1.1650 h1        1 DNG      0.058700
     15 HB         -0.8680    1.7740    0.1750 hc        1 DNG      0.046700
     16 HBA        -0.8960    0.8620   -1.3890 hc        1 DNG      0.046700
     17 HD         -3.3160    0.3760   -1.3140 hc        1 DNG      0.029700
     18 HDA        -3.3990    1.4420    0.1390 hc        1 DNG      0.029700
     19 HE         -4.3720   -0.4490    1.4790 hc        1 DNG      0.022367
     20 HEA        -5.3760   -0.0860    0.0150 hc        1 DNG      0.022367
     21 HEB        -4.2770   -1.5270    0.0300 hc        1 DNG      0.022367
     22 HG         -1.7660   -1.1830   -0.0880 hc        1 DNG      0.045200
     23 HGA        -1.8680   -0.1400    1.3750 hc        1 DNG      0.045200
@<TRIPOS>BOND
     1    1    3 1   
     2    1    6 1   
     3    1   11 1   
     4    2    4 1   
     5    2    6 1   
     6    2   12 1   
     7    4    5 2   
     8    4   13 1   
     9    6    7 1   
    10    6   14 1   
    11    7   10 1   
    12    7   15 1   
    13    7   16 1   
    14    8    9 1   
    15    8   10 1   
    16    8   17 1   
    17    8   18 1   
    18    9   19 1   
    19    9   20 1   
    20    9   21 1   
    21   10   22 1   
    22   10   23 1   
@<TRIPOS>SUBSTRUCTURE
     1 DNG         1 TEMP              0 ****  ****    0 ROOT
