@<TRIPOS>MOLECULE
DNG
   23    21     1     0     0
SMALL
bcc


@<TRIPOS>ATOM
      1 C          -1.7610   -1.4440   -1.1490 c1        1 DNG      0.801000
      2 N           0.4710   -1.3390   -2.0100 n         1 DNG     -0.498500
      3 O          -2.8460   -0.8320   -1.3360 o         1 DNG     -0.801500
      4 C1          0.3230   -1.2480   -3.4180 c         1 DNG      0.644900
      5 O1         -0.6010   -0.6140   -3.8930 o         1 DNG     -0.670100
      6 CA         -0.4530   -0.6830   -1.1550 c2        1 DNG      0.137500
      7 CB          0.1070   -0.6330    0.2490 c3        1 DNG     -0.143700
      8 CD          0.6800    0.8560    2.1350 c3        1 DNG     -0.076400
      9 CE          0.5850    2.2700    2.6660 c3        1 DNG     -0.087100
     10 CG          0.0170    0.7820    0.7770 c3        1 DNG     -0.089400
     11 OXT        -1.7650   -2.6870   -0.9530 o         1 DNG     -0.801500
     12 H           1.1640   -1.8140   -1.6550 hn        1 DNG      0.332500
     13 HC1         0.9630   -1.6940   -4.0070 h5        1 DNG     -0.017800
     14 HA         -0.6070    0.2270   -1.4780 h4        1 DNG     -0.033200
     15 HB         -0.4090   -1.2300    0.8270 hc        1 DNG      0.028700
     16 HBA         1.0420   -0.9180    0.2370 hc        1 DNG      0.028700
     17 HD          1.6210    0.6010    2.0530 hc        1 DNG      0.026700
     18 HDA         0.2290    0.2450    2.7520 hc        1 DNG      0.026700
     19 HE          1.0070    2.3160    3.5490 hc        1 DNG      0.022367
     20 HEA         1.0440    2.8810    2.0520 hc        1 DNG      0.022367
     21 HEB        -0.3580    2.5280    2.7400 hc        1 DNG      0.022367
     22 HG         -0.9230    1.0400    0.8590 hc        1 DNG      0.062700
     23 HGA         0.4690    1.3900    0.1590 hc        1 DNG      0.062700
@<TRIPOS>BOND
     1    1    3 2   
     2    1   11 2   
     3    2    4 1   
     4    2    6 2   
     5    2   12 1   
     6    4    5 2   
     7    4   13 1   
     8    6    7 1   
     9    6   14 1   
    10    7   10 1   
    11    7   15 1   
    12    7   16 1   
    13    8    9 1   
    14    8   10 1   
    15    8   17 1   
    16    8   18 1   
    17    9   19 1   
    18    9   20 1   
    19    9   21 1   
    20   10   22 1   
    21   10   23 1   
@<TRIPOS>SUBSTRUCTURE
     1 DNG         1 TEMP              0 ****  ****    0 ROOT
