@<TRIPOS>MOLECULE
DNH
   24    24     1     0     0
SMALL
bcc


@<TRIPOS>ATOM
      1 C7          0.0100   -0.0460   -0.0230 c3        1 DNH     -0.094400
      2 C8          1.5170    0.0390    0.0250 c3        1 DNH     -0.094400
      3 C3         -0.0100   -1.2840    2.1690 c3        1 DNH      0.101500
      4 C4          1.5400   -1.2320    2.1980 c3        1 DNH      0.101500
      5 C5         -0.4790   -1.2830    0.6970 c3        1 DNH     -0.103400
      6 C6          2.0080    0.0400    1.4560 c3        1 DNH     -0.103400
      7 N1         -0.6040   -2.4830    2.8640 nz        1 DNH     -0.860600
      8 N2          2.1350   -1.2290    3.5830 nz        1 DNH     -0.860600
      9 H71        -0.4510    0.8750    0.4230 hc        1 DNH      0.102700
     10 H72        -0.3320   -0.0970   -1.0950 hc        1 DNH      0.102700
     11 H81         1.9780   -0.8100   -0.5470 hc        1 DNH      0.102700
     12 H82         1.8580    0.9920   -0.4710 hc        1 DNH      0.102700
     13 H3         -0.4340   -0.3660    2.6850 hx        1 DNH      0.138700
     14 H4          1.9640   -2.1390    1.6630 hx        1 DNH      0.138700
     15 H51        -1.6040   -1.3000    0.6610 hc        1 DNH      0.094700
     16 H52        -0.0960   -2.2000    0.1730 hc        1 DNH      0.094700
     17 H61         1.6250    0.9540    1.9840 hc        1 DNH      0.094700
     18 H62         3.1320    0.0800    1.4510 hc        1 DNH      0.094700
     19 H11        -0.2070   -3.3550    2.4940 hn        1 DNH      0.475133
     20 H12        -1.6210   -2.4970    2.6720 hn        1 DNH      0.475133
     21 H21         1.7390   -0.4700    4.1510 hn        1 DNH      0.475133
     22 H22         3.1520   -1.0560    3.4980 hn        1 DNH      0.475133
     23 H13        -0.4760   -2.4490    3.8780 hn        1 DNH      0.475133
     24 H23         2.0080   -2.1220    4.0640 hn        1 DNH      0.475133
@<TRIPOS>BOND
     1    1    2 1   
     2    1    5 1   
     3    1    9 1   
     4    1   10 1   
     5    2    6 1   
     6    2   11 1   
     7    2   12 1   
     8    3    4 1   
     9    3    5 1   
    10    3    7 1   
    11    3   13 1   
    12    4    6 1   
    13    4    8 1   
    14    4   14 1   
    15    5   15 1   
    16    5   16 1   
    17    6   17 1   
    18    6   18 1   
    19    7   19 1   
    20    7   20 1   
    21    7   23 1   
    22    8   21 1   
    23    8   22 1   
    24    8   24 1   
@<TRIPOS>SUBSTRUCTURE
     1 DNH         1 TEMP              0 ****  ****    0 ROOT
