@<TRIPOS>MOLECULE
DNH
   22    22     1     0     0
SMALL
bcc


@<TRIPOS>ATOM
      1 C7          0.7090   -0.2650   -1.9340 c3        1 DNH     -0.074400
      2 C8         -0.7090    0.2650   -1.9340 c3        1 DNH     -0.074400
      3 C3          0.7080   -0.3300    0.5820 c3        1 DNH      0.165500
      4 C4         -0.7080    0.3300    0.5820 c3        1 DNH      0.165500
      5 C5          1.4480    0.1470   -0.6810 c3        1 DNH     -0.111400
      6 C6         -1.4480   -0.1470   -0.6810 c3        1 DNH     -0.111400
      7 N1          1.4380   -0.1270    1.8180 n3        1 DNH     -0.905800
      8 N2         -1.4380    0.1270    1.8180 n3        1 DNH     -0.905800
      9 H71         1.2550    0.1200   -2.8350 hc        1 DNH      0.041700
     10 H72         0.6900   -1.3850   -2.0060 hc        1 DNH      0.041700
     11 H81        -0.6900    1.3850   -2.0060 hc        1 DNH      0.041700
     12 H82        -1.2540   -0.1190   -2.8350 hc        1 DNH      0.041700
     13 H3          0.5670   -1.4500    0.4900 h1        1 DNH      0.054700
     14 H4         -0.5670    1.4500    0.4900 h1        1 DNH      0.054700
     15 H51         1.5570    1.2630   -0.6560 hc        1 DNH      0.041700
     16 H52         2.4790   -0.2930   -0.7020 hc        1 DNH      0.041700
     17 H61        -2.4790    0.2930   -0.7020 hc        1 DNH      0.041700
     18 H62        -1.5570   -1.2630   -0.6560 hc        1 DNH      0.041700
     19 H11         2.4240   -0.1820    1.6530 hn        1 DNH      0.352300
     20 H12         1.2250    0.7620    2.2260 hn        1 DNH      0.352300
     21 H21        -2.4240    0.1820    1.6530 hn        1 DNH      0.352300
     22 H22        -1.2250   -0.7620    2.2260 hn        1 DNH      0.352300
@<TRIPOS>BOND
     1    1    2 1   
     2    1    5 1   
     3    1    9 1   
     4    1   10 1   
     5    2    6 1   
     6    2   11 1   
     7    2   12 1   
     8    3    4 1   
     9    3    5 1   
    10    3    7 1   
    11    3   13 1   
    12    4    6 1   
    13    4    8 1   
    14    4   14 1   
    15    5   15 1   
    16    5   16 1   
    17    6   17 1   
    18    6   18 1   
    19    7   19 1   
    20    7   20 1   
    21    8   21 1   
    22    8   22 1   
@<TRIPOS>SUBSTRUCTURE
     1 DNH         1 TEMP              0 ****  ****    0 ROOT
