@<TRIPOS>MOLECULE
DNH
   22    22     1     0     0
SMALL
bcc


@<TRIPOS>ATOM
      1 C7         -0.7590    0.7710   -1.5880 c3        1 DNH     -0.077400
      2 C8          0.7600    0.7710   -1.5880 c3        1 DNH     -0.077400
      3 C3         -0.7600   -0.3300    0.6790 c3        1 DNH      0.176500
      4 C4          0.7600   -0.3300    0.6790 c3        1 DNH      0.176500
      5 C5         -1.3390   -0.3300   -0.7220 c3        1 DNH     -0.081400
      6 C6          1.3390    0.7710   -0.1880 c3        1 DNH     -0.081400
      7 N1         -1.2240   -1.4980    1.3720 n3        1 DNH     -0.916800
      8 N2          1.2240   -0.1520    2.0250 n3        1 DNH     -0.916800
      9 H71        -1.0750    1.6330   -1.2560 hc        1 DNH      0.040700
     10 H72        -1.0750    0.6510   -2.5040 hc        1 DNH      0.040700
     11 H81         1.0750   -0.0230   -2.0600 hc        1 DNH      0.040700
     12 H82         1.0750    1.5650   -2.0600 hc        1 DNH      0.040700
     13 H3         -1.0760    0.4640    1.1510 h1        1 DNH      0.023700
     14 H4          1.0760   -1.1920    0.3470 h1        1 DNH      0.023700
     15 H51        -1.1530   -1.1920   -1.1400 hc        1 DNH      0.045700
     16 H52        -2.3060   -0.2090   -0.6630 hc        1 DNH      0.045700
     17 H61         2.3060    0.6510   -0.2460 hc        1 DNH      0.045700
     18 H62         1.1530    1.6330    0.2310 hc        1 DNH      0.045700
     19 H11        -1.9290   -1.8590    0.9210 hn        1 DNH      0.351300
     20 H12        -1.4880   -1.2670    2.2140 hn        1 DNH      0.351300
     21 H21         1.9290    0.4260    2.0300 hn        1 DNH      0.351300
     22 H22         1.4880   -0.9570    2.3640 hn        1 DNH      0.351300
@<TRIPOS>BOND
     1    1    2 1   
     2    1    5 1   
     3    1    9 1   
     4    1   10 1   
     5    2    6 1   
     6    2   11 1   
     7    2   12 1   
     8    3    4 1   
     9    3    5 1   
    10    3    7 1   
    11    3   13 1   
    12    4    6 1   
    13    4    8 1   
    14    4   14 1   
    15    5   15 1   
    16    5   16 1   
    17    6   17 1   
    18    6   18 1   
    19    7   19 1   
    20    7   20 1   
    21    8   21 1   
    22    8   22 1   
@<TRIPOS>SUBSTRUCTURE
     1 DNH         1 TEMP              0 ****  ****    0 ROOT
