@<TRIPOS>MOLECULE
DNH
   24    24     1     0     0
SMALL
bcc


@<TRIPOS>ATOM
      1 C7          0.0150   -0.0370   -0.0210 c3        1 DNH     -0.094400
      2 C8          1.5210    0.0530    0.0350 c3        1 DNH     -0.094400
      3 C3         -0.0110   -1.2900    2.1630 c3        1 DNH      0.101500
      4 C4          1.5390   -1.2330    2.2000 c3        1 DNH      0.101500
      5 C5         -0.4730   -1.2810    0.6890 c3        1 DNH     -0.103400
      6 C6          2.0050    0.0460    1.4690 c3        1 DNH     -0.103400
      7 N1         -0.6040   -2.4960    2.8480 n4        1 DNH     -0.860600
      8 N2          2.1270   -1.2370    3.5880 n4        1 DNH     -0.860600
      9 H71        -0.3220   -0.0830   -1.0950 hc        1 DNH      0.102700
     10 H72        -0.4510    0.8790    0.4300 hc        1 DNH      0.102700
     11 H81         1.9880   -0.7910   -0.5400 hc        1 DNH      0.102700
     12 H82         1.8610    1.0100   -0.4530 hc        1 DNH      0.102700
     13 H3         -0.4410   -0.3770    2.6830 hx        1 DNH      0.138700
     14 H4          1.9680   -2.1350    1.6620 hx        1 DNH      0.138700
     15 H51        -0.0840   -2.1930    0.1610 hc        1 DNH      0.094700
     16 H52        -1.5980   -1.3020    0.6470 hc        1 DNH      0.094700
     17 H61         3.1300    0.0900    1.4700 hc        1 DNH      0.094700
     18 H62         1.6160    0.9550    2.0010 hc        1 DNH      0.094700
     19 H11        -0.4810   -2.4680    3.8620 hn        1 DNH      0.475133
     20 H12        -1.6200   -2.5120    2.6500 hn        1 DNH      0.475133
     21 H21         2.0000   -2.1330    4.0630 hn        1 DNH      0.475133
     22 H22         1.7250   -0.4820    4.1590 hn        1 DNH      0.475133
     23 H13        -0.2020   -3.3640    2.4730 hn        1 DNH      0.475133
     24 H23         3.1440   -1.0600    3.5090 hn        1 DNH      0.475133
@<TRIPOS>BOND
     1    1    2 1   
     2    1    5 1   
     3    1    9 1   
     4    1   10 1   
     5    2    6 1   
     6    2   11 1   
     7    2   12 1   
     8    3    4 1   
     9    3    5 1   
    10    3    7 1   
    11    3   13 1   
    12    4    6 1   
    13    4    8 1   
    14    4   14 1   
    15    5   15 1   
    16    5   16 1   
    17    6   17 1   
    18    6   18 1   
    19    7   19 1   
    20    7   20 1   
    21    7   23 1   
    22    8   21 1   
    23    8   22 1   
    24    8   24 1   
@<TRIPOS>SUBSTRUCTURE
     1 DNH         1 TEMP              0 ****  ****    0 ROOT
