@<TRIPOS>MOLECULE
DNH
   24    24     1     0     0
SMALL
bcc


@<TRIPOS>ATOM
      1 C7          0.0110   -0.0400   -0.0200 c3        1 DNH     -0.094400
      2 C8          1.5180    0.0380    0.0250 c3        1 DNH     -0.094400
      3 C3         -0.0110   -1.2810    2.1710 c3        1 DNH      0.101500
      4 C4          1.5400   -1.2370    2.1960 c3        1 DNH      0.101500
      5 C5         -0.4830   -1.2760    0.7000 c3        1 DNH     -0.103400
      6 C6          2.0120    0.0340    1.4540 c3        1 DNH     -0.103400
      7 N1         -0.6090   -2.4780    2.8650 n4        1 DNH     -0.860600
      8 N2          2.1380   -1.2380    3.5800 n4        1 DNH     -0.860600
      9 H71        -0.4450    0.8820    0.4280 hc        1 DNH      0.102700
     10 H72        -0.3340   -0.0880   -1.0920 hc        1 DNH      0.102700
     11 H81         1.9740   -0.8130   -0.5490 hc        1 DNH      0.102700
     12 H82         1.8630    0.9890   -0.4710 hc        1 DNH      0.102700
     13 H3         -0.4290   -0.3610    2.6880 hx        1 DNH      0.138700
     14 H4          1.9580   -2.1450    1.6590 hx        1 DNH      0.138700
     15 H51        -1.6080   -1.2870    0.6660 hc        1 DNH      0.094700
     16 H52        -0.1050   -2.1940    0.1730 hc        1 DNH      0.094700
     17 H61         3.1370    0.0690    1.4470 hc        1 DNH      0.094700
     18 H62         1.6340    0.9490    1.9850 hc        1 DNH      0.094700
     19 H11        -0.2170   -3.3520    2.4930 hn        1 DNH      0.475133
     20 H12        -1.6260   -2.4870    2.6760 hn        1 DNH      0.475133
     21 H21         1.7460   -0.4770    4.1490 hn        1 DNH      0.475133
     22 H22         2.0070   -2.1310    4.0600 hn        1 DNH      0.475133
     23 H13        -0.4780   -2.4460    3.8780 hn        1 DNH      0.475133
     24 H23         3.1560   -1.0690    3.4930 hn        1 DNH      0.475133
@<TRIPOS>BOND
     1    1    2 1   
     2    1    5 1   
     3    1    9 1   
     4    1   10 1   
     5    2    6 1   
     6    2   11 1   
     7    2   12 1   
     8    3    4 1   
     9    3    5 1   
    10    3    7 1   
    11    3   13 1   
    12    4    6 1   
    13    4    8 1   
    14    4   14 1   
    15    5   15 1   
    16    5   16 1   
    17    6   17 1   
    18    6   18 1   
    19    7   19 1   
    20    7   20 1   
    21    7   23 1   
    22    8   21 1   
    23    8   22 1   
    24    8   24 1   
@<TRIPOS>SUBSTRUCTURE
     1 DNH         1 TEMP              0 ****  ****    0 ROOT
