@<TRIPOS>MOLECULE
DNJ
   24    24     1     0     0
SMALL
bcc


@<TRIPOS>ATOM
      1 C1          0.1270    0.0350   -0.0680 c3        1 DNJ      0.127800
      2 C2          1.6630    0.0280    0.0570 c3        1 DNJ      0.066100
      3 O2          2.2160   -1.1640   -0.4820 oh        1 DNJ     -0.602800
      4 C3          2.0590    0.0440    1.5400 c3        1 DNJ      0.110100
      5 O3          3.4580    0.2270    1.6920 oh        1 DNJ     -0.612800
      6 C4          1.3900    1.2250    2.2620 c3        1 DNJ      0.113100
      7 O4          1.6220    1.1370    3.6570 oh        1 DNJ     -0.597800
      8 C5         -0.1490    1.1840    2.0500 c3        1 DNJ      0.169500
      9 C6         -0.7480    2.4150    2.7560 c3        1 DNJ      0.134400
     10 O6         -2.1400    2.1910    2.8970 oh        1 DNJ     -0.587800
     11 N5         -0.5390    1.0940    0.6510 n7        1 DNJ     -0.786200
     12 H11        -0.1520    0.1130   -1.1550 h1        1 DNJ      0.063200
     13 H12        -0.2600   -0.9490    0.3210 h1        1 DNJ      0.063200
     14 H2          2.1130    0.9150   -0.4680 h1        1 DNJ      0.047700
     15 HO2         1.8940   -1.2390   -1.3880 ho        1 DNJ      0.410000
     16 H3          1.7530   -0.9260    2.0230 h1        1 DNJ      0.066700
     17 HO3         3.8830   -0.4820    1.1920 ho        1 DNJ      0.426000
     18 H4          1.8170    2.1910    1.8730 h1        1 DNJ      0.045700
     19 HO4         2.5770    1.0340    3.7700 ho        1 DNJ      0.423000
     20 H5         -0.5500    0.2620    2.5670 h1        1 DNJ      0.095700
     21 H61        -0.2650    2.5160    3.7660 h1        1 DNJ      0.034700
     22 H62        -0.5690    3.3530    2.1640 h1        1 DNJ      0.034700
     23 HO6        -2.4750    2.9080    3.4480 ho        1 DNJ      0.398000
     24 HN5        -0.4020    1.9770    0.1940 hn        1 DNJ      0.356800
@<TRIPOS>BOND
     1    1    2 1   
     2    1   11 1   
     3    1   12 1   
     4    1   13 1   
     5    2    3 1   
     6    2    4 1   
     7    2   14 1   
     8    3   15 1   
     9    4    5 1   
    10    4    6 1   
    11    4   16 1   
    12    5   17 1   
    13    6    7 1   
    14    6    8 1   
    15    6   18 1   
    16    7   19 1   
    17    8    9 1   
    18    8   11 1   
    19    8   20 1   
    20    9   10 1   
    21    9   21 1   
    22    9   22 1   
    23   10   23 1   
    24   11   24 1   
@<TRIPOS>SUBSTRUCTURE
     1 DNJ         1 TEMP              0 ****  ****    0 ROOT
