@<TRIPOS>MOLECULE
DNJ
   24    24     1     0     0
SMALL
bcc


@<TRIPOS>ATOM
      1 C1         -0.7810   -0.6850   -1.5430 c3        1 DNJ      0.133800
      2 C2          0.7500   -0.6980   -1.5460 c3        1 DNJ      0.102100
      3 O2          1.1920   -1.8400   -2.2420 oh        1 DNJ     -0.608800
      4 C3          1.3150   -0.7200   -0.1770 c3        1 DNJ      0.119100
      5 O3          2.7780   -0.5460   -0.2640 oh        1 DNJ     -0.587800
      6 C4          0.7500    0.3590    0.6810 c3        1 DNJ      0.147100
      7 O4          1.1890    0.1700    1.9960 oh        1 DNJ     -0.580800
      8 C5         -0.7860    0.3690    0.6690 c3        1 DNJ      0.141500
      9 C6         -1.2770    1.6190    1.4130 c3        1 DNJ      0.129400
     10 O6         -2.5450    1.3850    1.9320 oh        1 DNJ     -0.613800
     11 N5         -1.3360    0.3820   -0.6840 n3        1 DNJ     -0.815200
     12 H11        -1.1110   -1.5640   -1.2200 h1        1 DNJ      0.039200
     13 H12        -1.1040   -0.5420   -2.4810 h1        1 DNJ      0.039200
     14 H2          1.0780    0.1100   -2.0150 h1        1 DNJ      0.064700
     15 HO2         1.3710   -1.6250   -3.0610 ho        1 DNJ      0.410000
     16 H3          1.1170   -1.6140    0.2460 h1        1 DNJ      0.044700
     17 HO3         3.2060   -1.3380    0.0270 ho        1 DNJ      0.417000
     18 H4          1.0750    1.2190    0.3610 h1        1 DNJ      0.103700
     19 HO4         1.2700   -0.6570    2.1490 ho        1 DNJ      0.401000
     20 H5         -1.1060   -0.4080    1.1260 h1        1 DNJ      0.031700
     21 H61        -1.3110    2.3360    0.8240 h1        1 DNJ      0.045700
     22 H62        -0.6610    1.8260    2.1420 h1        1 DNJ      0.045700
     23 HO6        -2.8710    2.1670    2.3110 ho        1 DNJ      0.406000
     24 HN5        -2.2000    0.2980   -0.6440 hn        1 DNJ      0.386800
@<TRIPOS>BOND
     1    1    2 1   
     2    1   11 1   
     3    1   12 1   
     4    1   13 1   
     5    2    3 1   
     6    2    4 1   
     7    2   14 1   
     8    3   15 1   
     9    4    5 1   
    10    4    6 1   
    11    4   16 1   
    12    5   17 1   
    13    6    7 1   
    14    6    8 1   
    15    6   18 1   
    16    7   19 1   
    17    8    9 1   
    18    8   11 1   
    19    8   20 1   
    20    9   10 1   
    21    9   21 1   
    22    9   22 1   
    23   10   23 1   
    24   11   24 1   
@<TRIPOS>SUBSTRUCTURE
     1 DNJ         1 TEMP              0 ****  ****    0 ROOT
