@<TRIPOS>MOLECULE
DNJ
   24    24     1     0     0
SMALL
bcc


@<TRIPOS>ATOM
      1 C1          0.0820    0.0280   -0.0400 c3        1 DNJ      0.134800
      2 C2          1.6180    0.0250    0.0610 c3        1 DNJ      0.104100
      3 O2          2.1490   -1.1770   -0.4790 oh        1 DNJ     -0.608800
      4 C3          2.0530    0.0550    1.5330 c3        1 DNJ      0.111100
      5 O3          3.4550    0.2370    1.6470 oh        1 DNJ     -0.611800
      6 C4          1.4000    1.2450    2.2560 c3        1 DNJ      0.150100
      7 O4          1.6630    1.1740    3.6480 oh        1 DNJ     -0.604800
      8 C5         -0.1370    1.1770    2.0860 c3        1 DNJ      0.173500
      9 C6         -0.7640    2.3880    2.8010 c3        1 DNJ      0.131400
     10 O6         -2.1680    2.1780    2.8090 oh        1 DNJ     -0.612800
     11 N5         -0.4990    1.1440    0.6720 n3        1 DNJ     -0.820200
     12 H11        -0.2890   -0.9750    0.3270 h1        1 DNJ      0.039200
     13 H12        -0.2120    0.1250   -1.1220 h1        1 DNJ      0.039200
     14 H2          2.0540    0.9080   -0.4830 h1        1 DNJ      0.062700
     15 HO2         1.8740   -1.2150   -1.4020 ho        1 DNJ      0.409000
     16 H3          1.7600   -0.9100    2.0340 h1        1 DNJ      0.061700
     17 HO3         3.8670   -0.4680    1.1300 ho        1 DNJ      0.424000
     18 H4          1.8080    2.2100    1.8460 h1        1 DNJ      0.061700
     19 HO4         2.6210    1.0890    3.7400 ho        1 DNJ      0.423000
     20 H5         -0.4950    0.2480    2.6280 h1        1 DNJ      0.049700
     21 H61        -0.5200    3.3450    2.2700 h1        1 DNJ      0.044700
     22 H62        -0.3690    2.4260    3.8520 h1        1 DNJ      0.044700
     23 HO6        -2.5540    2.9180    3.2910 ho        1 DNJ      0.405000
     24 HN5        -1.4990    1.1460    0.5860 hn        1 DNJ      0.388800
@<TRIPOS>BOND
     1    1    2 1   
     2    1   11 1   
     3    1   12 1   
     4    1   13 1   
     5    2    3 1   
     6    2    4 1   
     7    2   14 1   
     8    3   15 1   
     9    4    5 1   
    10    4    6 1   
    11    4   16 1   
    12    5   17 1   
    13    6    7 1   
    14    6    8 1   
    15    6   18 1   
    16    7   19 1   
    17    8    9 1   
    18    8   11 1   
    19    8   20 1   
    20    9   10 1   
    21    9   21 1   
    22    9   22 1   
    23   10   23 1   
    24   11   24 1   
@<TRIPOS>SUBSTRUCTURE
     1 DNJ         1 TEMP              0 ****  ****    0 ROOT
