@<TRIPOS>MOLECULE
DNJ
   24    24     1     0     0
SMALL
bcc


@<TRIPOS>ATOM
      1 C1          1.8210    0.1410   -0.5290 c3        1 DNJ      0.134800
      2 C2          0.8190   -0.2750   -1.6210 c3        1 DNJ      0.104100
      3 O2          1.1520    0.3340   -2.8600 oh        1 DNJ     -0.608800
      4 C3         -0.5880    0.2290   -1.2690 c3        1 DNJ      0.111100
      5 O3         -1.5570   -0.2970   -2.1620 oh        1 DNJ     -0.611800
      6 C4         -0.9880   -0.2520    0.1370 c3        1 DNJ      0.150100
      7 O4         -2.2090    0.3530    0.5300 oh        1 DNJ     -0.604800
      8 C5          0.0820    0.1930    1.1630 c3        1 DNJ      0.173500
      9 C6         -0.3310   -0.3160    2.5560 c3        1 DNJ      0.131400
     10 O6          0.5500    0.2880    3.4910 oh        1 DNJ     -0.612800
     11 N5          1.4010   -0.3030    0.7810 n3        1 DNJ     -0.820200
     12 H11         1.9570    1.2610   -0.5960 h1        1 DNJ      0.039200
     13 H12         2.8170   -0.3370   -0.7480 h1        1 DNJ      0.039200
     14 H2          0.8040   -1.3940   -1.7420 h1        1 DNJ      0.062700
     15 HO2         2.0400    0.0350   -3.0890 ho        1 DNJ      0.409000
     16 H3         -0.6100    1.3540   -1.3140 h1        1 DNJ      0.061700
     17 HO3        -1.2660   -0.0590   -3.0530 ho        1 DNJ      0.424000
     18 H4         -1.1050   -1.3710    0.1380 h1        1 DNJ      0.061700
     19 HO4        -2.8410    0.1770   -0.1810 ho        1 DNJ      0.423000
     20 H5          0.0610    1.3260    1.2010 h1        1 DNJ      0.049700
     21 H61        -0.2550   -1.4330    2.6200 h1        1 DNJ      0.044700
     22 H62        -1.3890    0.0040    2.7530 h1        1 DNJ      0.044700
     23 HO6         0.2640   -0.0030    4.3640 ho        1 DNJ      0.405000
     24 HN5         2.0700   -0.0420    1.4830 hn        1 DNJ      0.388800
@<TRIPOS>BOND
     1    1    2 1   
     2    1   11 1   
     3    1   12 1   
     4    1   13 1   
     5    2    3 1   
     6    2    4 1   
     7    2   14 1   
     8    3   15 1   
     9    4    5 1   
    10    4    6 1   
    11    4   16 1   
    12    5   17 1   
    13    6    7 1   
    14    6    8 1   
    15    6   18 1   
    16    7   19 1   
    17    8    9 1   
    18    8   11 1   
    19    8   20 1   
    20    9   10 1   
    21    9   21 1   
    22    9   22 1   
    23   10   23 1   
    24   11   24 1   
@<TRIPOS>SUBSTRUCTURE
     1 DNJ         1 TEMP              0 ****  ****    0 ROOT
