@<TRIPOS>MOLECULE
DNJ
   24    24     1     0     0
SMALL
bcc


@<TRIPOS>ATOM
      1 C1          0.0850    0.0110   -0.0320 c3        1 DNJ      0.134800
      2 C2          1.6220    0.0230    0.0650 c3        1 DNJ      0.104100
      3 O2          2.1620   -1.1780   -0.4680 oh        1 DNJ     -0.608800
      4 C3          2.0600    0.0660    1.5350 c3        1 DNJ      0.111100
      5 O3          3.4610    0.2620    1.6450 oh        1 DNJ     -0.611800
      6 C4          1.3980    1.2560    2.2510 c3        1 DNJ      0.150100
      7 O4          1.6640    1.1970    3.6440 oh        1 DNJ     -0.604800
      8 C5         -0.1390    1.1740    2.0850 c3        1 DNJ      0.173500
      9 C6         -0.7750    2.3840    2.7930 c3        1 DNJ      0.131400
     10 O6         -2.1770    2.1620    2.8050 oh        1 DNJ     -0.612800
     11 N5         -0.5040    1.1280    0.6730 n3        1 DNJ     -0.820200
     12 H11        -0.2760   -0.9920    0.3420 h1        1 DNJ      0.039200
     13 H12        -0.2110    0.0980   -1.1150 h1        1 DNJ      0.039200
     14 H2          2.0490    0.9060   -0.4870 h1        1 DNJ      0.062700
     15 HO2         1.8860   -1.2260   -1.3900 ho        1 DNJ      0.409000
     16 H3          1.7760   -0.8970    2.0440 h1        1 DNJ      0.061700
     17 HO3         3.8770   -0.4440    1.1330 ho        1 DNJ      0.424000
     18 H4          1.7970    2.2220    1.8330 h1        1 DNJ      0.061700
     19 HO4         2.6230    1.1210    3.7340 ho        1 DNJ      0.423000
     20 H5         -0.4870    0.2450    2.6340 h1        1 DNJ      0.049700
     21 H61        -0.3780    2.4330    3.8430 h1        1 DNJ      0.044700
     22 H62        -0.5400    3.3400    2.2550 h1        1 DNJ      0.044700
     23 HO6        -2.5680    2.9030    3.2820 ho        1 DNJ      0.405000
     24 HN5        -1.5040    1.1200    0.5890 hn        1 DNJ      0.388800
@<TRIPOS>BOND
     1    1    2 1   
     2    1   11 1   
     3    1   12 1   
     4    1   13 1   
     5    2    3 1   
     6    2    4 1   
     7    2   14 1   
     8    3   15 1   
     9    4    5 1   
    10    4    6 1   
    11    4   16 1   
    12    5   17 1   
    13    6    7 1   
    14    6    8 1   
    15    6   18 1   
    16    7   19 1   
    17    8    9 1   
    18    8   11 1   
    19    8   20 1   
    20    9   10 1   
    21    9   21 1   
    22    9   22 1   
    23   10   23 1   
    24   11   24 1   
@<TRIPOS>SUBSTRUCTURE
     1 DNJ         1 TEMP              0 ****  ****    0 ROOT
