@<TRIPOS>MOLECULE
DNL
   21    20     1     0     0
SMALL
bcc


@<TRIPOS>ATOM
      1 CA          1.7510   -1.6860    0.5990 c3        1 DNL     -0.204400
      2 C           3.2640   -1.6880    0.5990 c         1 DNL      0.564900
      3 O           3.8730   -1.6190    1.6500 o         1 DNL     -0.527100
      4 CB          1.2470   -0.3450    0.1130 c3        1 DNL     -0.075400
      5 CG         -0.2650   -0.3560    0.0800 c3        1 DNL     -0.078400
      6 CD         -0.7690    0.9900   -0.3920 c3        1 DNL     -0.083400
      7 CE         -2.2810    1.0110   -0.3350 c3        1 DNL      0.159800
      8 NZ         -2.7580    2.2600   -0.8290 n3        1 DNL     -0.916800
      9 HA2         1.4240   -2.3920    0.0060 hc        1 DNL      0.074200
     10 HA          1.4250   -1.8470    1.5080 hc        1 DNL      0.074200
     11 H           3.7520   -1.7430   -0.2470 h4        1 DNL     -0.005800
     12 HB1         1.5550    0.3580    0.7200 hc        1 DNL      0.044700
     13 HB2         1.5920   -0.1740   -0.7860 hc        1 DNL      0.044700
     14 HG1        -0.6100   -0.5370    0.9780 hc        1 DNL      0.043200
     15 HG2        -0.5730   -1.0530   -0.5330 hc        1 DNL      0.043200
     16 HD1        -0.4750    1.1430   -1.3120 hc        1 DNL      0.047700
     17 HD2        -0.4110    1.6930    0.1860 hc        1 DNL      0.047700
     18 HE1        -2.6380    0.2840   -0.8850 h1        1 DNL      0.024700
     19 HE2        -2.5740    0.8930    0.5920 h1        1 DNL      0.024700
     20 HZ1        -3.2180    2.6950   -0.1680 hn        1 DNL      0.349300
     21 HZ2        -3.3130    2.1140   -1.5430 hn        1 DNL      0.349300
@<TRIPOS>BOND
     1    1    2 1   
     2    1    4 1   
     3    1    9 1   
     4    1   10 1   
     5    2    3 2   
     6    2   11 1   
     7    4    5 1   
     8    4   12 1   
     9    4   13 1   
    10    5    6 1   
    11    5   14 1   
    12    5   15 1   
    13    6    7 1   
    14    6   16 1   
    15    6   17 1   
    16    7    8 1   
    17    7   18 1   
    18    7   19 1   
    19    8   20 1   
    20    8   21 1   
@<TRIPOS>SUBSTRUCTURE
     1 DNL         1 TEMP              0 ****  ****    0 ROOT
