@<TRIPOS>MOLECULE
DNL
   21    20     1     0     0
SMALL
bcc


@<TRIPOS>ATOM
      1 CA         -1.9390    0.5620   -0.1180 c3        1 DNL     -0.204400
      2 C          -3.1970   -0.2250   -0.3170 c         1 DNL      0.564900
      3 O          -4.2780    0.1050    0.1730 o         1 DNL     -0.527100
      4 CB         -0.7120   -0.3200   -0.1790 c3        1 DNL     -0.075400
      5 CG          0.5520    0.4940   -0.0020 c3        1 DNL     -0.078400
      6 CD          1.7800   -0.3890   -0.0620 c3        1 DNL     -0.083400
      7 CE          3.0430    0.4530    0.1160 c3        1 DNL      0.159800
      8 NZ          4.2600   -0.3150    0.0110 n3        1 DNL     -0.916800
      9 HA2        -1.8900    1.3420   -0.9260 hc        1 DNL      0.074200
     10 HA         -1.9780    1.1050    0.8630 hc        1 DNL      0.074200
     11 H          -3.1010   -1.1340   -0.9520 h4        1 DNL     -0.005800
     12 HB1        -0.6780   -0.8570   -1.1640 hc        1 DNL      0.044700
     13 HB2        -0.7700   -1.1020    0.6240 hc        1 DNL      0.044700
     14 HG1         0.5180    1.0310    0.9820 hc        1 DNL      0.043200
     15 HG2         0.6100    1.2760   -0.8050 hc        1 DNL      0.043200
     16 HD1         1.8150   -0.9240   -1.0470 hc        1 DNL      0.047700
     17 HD2         1.7230   -1.1690    0.7410 hc        1 DNL      0.047700
     18 HE1         2.9600    1.0010    1.1030 h1        1 DNL      0.024700
     19 HE2         3.0730    1.2380   -0.6930 h1        1 DNL      0.024700
     20 HZ1         5.0510    0.2530    0.2410 hn        1 DNL      0.349300
     21 HZ2         4.2390   -1.1110    0.6170 hn        1 DNL      0.349300
@<TRIPOS>BOND
     1    1    2 1   
     2    1    4 1   
     3    1    9 1   
     4    1   10 1   
     5    2    3 2   
     6    2   11 1   
     7    4    5 1   
     8    4   12 1   
     9    4   13 1   
    10    5    6 1   
    11    5   14 1   
    12    5   15 1   
    13    6    7 1   
    14    6   16 1   
    15    6   17 1   
    16    7    8 1   
    17    7   18 1   
    18    7   19 1   
    19    8   20 1   
    20    8   21 1   
@<TRIPOS>SUBSTRUCTURE
     1 DNL         1 TEMP              0 ****  ****    0 ROOT
