@<TRIPOS>MOLECULE
DNM
   24    23     1     0     0
SMALL
bcc


@<TRIPOS>ATOM
      1 C           1.8440   -0.6530   -0.0880 c         1 DNM      0.927600
      2 N           0.7340    1.5710    0.3300 n3        1 DNM     -0.795200
      3 O           2.8590   -0.3700   -0.7860 o         1 DNM     -0.840800
      4 C1          1.7680    2.3710   -0.2670 c3        1 DNM      0.145100
      5 CA          0.5750    0.2520   -0.2770 c3        1 DNM      0.045500
      6 CB         -0.6450   -0.4930    0.2690 c3        1 DNM     -0.068400
      7 CD         -3.1300   -0.7530    0.1960 c3        1 DNM     -0.081400
      8 CE         -4.4470   -0.1040   -0.1420 c3        1 DNM     -0.089100
      9 CG         -1.9590    0.1580   -0.1080 c3        1 DNM     -0.081400
     10 OXT         1.7700   -1.6350    0.6990 o         1 DNM     -0.840800
     11 HA          0.4390    0.3550   -1.3990 h1        1 DNM     -0.004300
     12 HB         -0.6040   -1.5350   -0.1450 hc        1 DNM      0.056700
     13 HBA        -0.5610   -0.5840    1.3830 hc        1 DNM      0.056700
     14 H1          1.9340    3.2730    0.3800 h1        1 DNM      0.024033
     15 H1A         2.7160    1.7670   -0.3240 h1        1 DNM      0.024033
     16 H1B         1.5220    2.7310   -1.3060 h1        1 DNM      0.024033
     17 HD         -3.1120   -1.0270    1.2840 hc        1 DNM      0.036700
     18 HDA        -3.0200   -1.7070   -0.3840 hc        1 DNM      0.036700
     19 HE         -5.2950   -0.7950    0.0860 hc        1 DNM      0.020700
     20 HEA        -4.5880    0.8320    0.4500 hc        1 DNM      0.020700
     21 HEB        -4.4890    0.1590   -1.2260 hc        1 DNM      0.020700
     22 HG         -2.0910    1.1200    0.4520 hc        1 DNM      0.024200
     23 HGA        -1.9580    0.4100   -1.2020 hc        1 DNM      0.024200
     24 HN         -0.1430    2.0600    0.2680 hn        1 DNM      0.310800
@<TRIPOS>BOND
     1    1    3 1   
     2    1    5 1   
     3    1   10 1   
     4    2    4 1   
     5    2    5 1   
     6    2   24 1   
     7    4   14 1   
     8    4   15 1   
     9    4   16 1   
    10    5    6 1   
    11    5   11 1   
    12    6    9 1   
    13    6   12 1   
    14    6   13 1   
    15    7    8 1   
    16    7    9 1   
    17    7   17 1   
    18    7   18 1   
    19    8   19 1   
    20    8   20 1   
    21    8   21 1   
    22    9   22 1   
    23    9   23 1   
@<TRIPOS>SUBSTRUCTURE
     1 DNM         1 TEMP              0 ****  ****    0 ROOT
