@<TRIPOS>MOLECULE
DNM
   25    24     1     0     0
SMALL
bcc


@<TRIPOS>ATOM
      1 C          -0.2800   -0.2310    0.2960 c         1 DNM      0.934600
      2 N           1.7380   -1.2870   -0.8090 n4        1 DNM     -0.757000
      3 O          -0.7490    0.6260    1.0620 o         1 DNM     -0.759300
      4 C1          2.5870   -0.8660   -1.9310 c3        1 DNM      0.088100
      5 CA          1.3120   -0.1600    0.0880 c3        1 DNM     -0.067500
      6 CB          2.0000   -0.1820    1.4400 c3        1 DNM     -0.096400
      7 CD          4.0900    0.2200    2.7410 c3        1 DNM     -0.080400
      8 CE          5.5670    0.5140    2.6740 c3        1 DNM     -0.094100
      9 CG          3.4790    0.1240    1.3590 c3        1 DNM     -0.087400
     10 OXT        -0.8610   -1.1350   -0.3610 o         1 DNM     -0.759300
     11 HA          1.5230    0.8100   -0.4400 hx        1 DNM      0.088700
     12 HB          1.8350   -1.1650    1.9540 hc        1 DNM      0.085200
     13 HBA         1.4760    0.5990    2.0620 hc        1 DNM      0.085200
     14 H1          2.8720   -1.7620   -2.5430 hx        1 DNM      0.084700
     15 H1A         2.0210   -0.1410   -2.5750 hx        1 DNM      0.084700
     16 H1B         3.5120   -0.3660   -1.5370 hx        1 DNM      0.084700
     17 HD          3.9210   -0.7420    3.2930 hc        1 DNM      0.048200
     18 HDA         3.5700    1.0290    3.3210 hc        1 DNM      0.048200
     19 HE          5.9940    0.5840    3.7030 hc        1 DNM      0.034367
     20 HEA         6.1070   -0.2940    2.1230 hc        1 DNM      0.034367
     21 HEB         5.7540    1.4810    2.1480 hc        1 DNM      0.034367
     22 HG          3.6360    1.0920    0.8130 hc        1 DNM      0.026700
     23 HGA         4.0110   -0.6740    0.7760 hc        1 DNM      0.026700
     24 HN          2.2200   -1.9950   -0.2540 hn        1 DNM      0.456300
     25 H2          0.8400   -1.7050   -1.1670 hn        1 DNM      0.456300
@<TRIPOS>BOND
     1    1    3 1   
     2    1    5 1   
     3    1   10 1   
     4    2    4 1   
     5    2    5 1   
     6    2   24 1   
     7    2   25 1   
     8    4   14 1   
     9    4   15 1   
    10    4   16 1   
    11    5    6 1   
    12    5   11 1   
    13    6    9 1   
    14    6   12 1   
    15    6   13 1   
    16    7    8 1   
    17    7    9 1   
    18    7   17 1   
    19    7   18 1   
    20    8   19 1   
    21    8   20 1   
    22    8   21 1   
    23    9   22 1   
    24    9   23 1   
@<TRIPOS>SUBSTRUCTURE
     1 DNM         1 TEMP              0 ****  ****    0 ROOT
