@<TRIPOS>MOLECULE
DNM
   25    24     1     0     0
SMALL
bcc


@<TRIPOS>ATOM
      1 C          -0.2690    0.0540    0.3120 c         1 DNM      0.934600
      2 N           1.6230   -1.2410   -0.7610 ny        1 DNM     -0.757000
      3 O          -0.6430    0.9830    1.0460 o         1 DNM     -0.759300
      4 C1          2.4990   -0.9520   -1.9030 c3        1 DNM      0.088100
      5 CA          1.3200   -0.0440    0.0930 c3        1 DNM     -0.067500
      6 CB          2.0140   -0.0810    1.4410 c3        1 DNM     -0.096400
      7 CD          4.1460    0.1580    2.7160 c3        1 DNM     -0.080400
      8 CE          5.6440    0.3000    2.6290 c3        1 DNM     -0.094100
      9 CG          3.5150    0.0710    1.3410 c3        1 DNM     -0.087400
     10 OXT        -0.9430   -0.8130   -0.3060 o         1 DNM     -0.759300
     11 HA          1.6230    0.8790   -0.4740 hx        1 DNM      0.088700
     12 HB          1.5760    0.7720    2.0350 hc        1 DNM      0.085200
     13 HBA         1.7570   -1.0230    1.9940 hc        1 DNM      0.085200
     14 H1          3.4730   -0.5320   -1.5340 hx        1 DNM      0.084700
     15 H1A         2.0020   -0.1990   -2.5720 hx        1 DNM      0.084700
     16 H1B         2.6880   -1.8950   -2.4810 hx        1 DNM      0.084700
     17 HD          3.7140    1.0360    3.2660 hc        1 DNM      0.048200
     18 HDA         3.8870   -0.7610    3.3050 hc        1 DNM      0.048200
     19 HE          6.0850    0.3660    3.6520 hc        1 DNM      0.034367
     20 HEA         6.0960   -0.5770    2.1070 hc        1 DNM      0.034367
     21 HEB         5.9210    1.2240    2.0660 hc        1 DNM      0.034367
     22 HG          3.9600   -0.7980    0.7870 hc        1 DNM      0.026700
     23 HGA         3.7640    0.9970    0.7580 hc        1 DNM      0.026700
     24 HN          2.0370   -1.9720   -0.1800 hn        1 DNM      0.456300
     25 H2          0.6840   -1.5810   -1.0970 hn        1 DNM      0.456300
@<TRIPOS>BOND
     1    1    3 1   
     2    1    5 1   
     3    1   10 1   
     4    2    4 1   
     5    2    5 1   
     6    2   24 1   
     7    2   25 1   
     8    4   14 1   
     9    4   15 1   
    10    4   16 1   
    11    5    6 1   
    12    5   11 1   
    13    6    9 1   
    14    6   12 1   
    15    6   13 1   
    16    7    8 1   
    17    7    9 1   
    18    7   17 1   
    19    7   18 1   
    20    8   19 1   
    21    8   20 1   
    22    8   21 1   
    23    9   22 1   
    24    9   23 1   
@<TRIPOS>SUBSTRUCTURE
     1 DNM         1 TEMP              0 ****  ****    0 ROOT
