@<TRIPOS>MOLECULE
DNM
   24    22     1     0     0
SMALL
bcc


@<TRIPOS>ATOM
      1 C          -2.1310    0.4950   -1.0750 c1        1 DNM      0.346000
      2 N          -1.2450   -1.7190   -1.2050 n3        1 DNM     -0.273000
      3 O          -3.1970    0.2090   -0.4760 o         1 DNM     -0.566000
      4 C1         -1.1740   -1.9210   -2.6340 c3        1 DNM     -0.130000
      5 CA         -0.9140   -0.3720   -0.9000 c3        1 DNM     -0.104000
      6 CB         -0.4260   -0.2810    0.5480 c3        1 DNM     -0.136000
      7 CD          1.2600    0.7560    2.0900 c3        1 DNM     -0.155000
      8 CE          2.4840    1.6620    2.1580 c3        1 DNM     -0.205000
      9 CG          0.7780    0.6510    0.6230 c3        1 DNM     -0.159000
     10 OXT        -2.1030    1.4660   -1.8840 os        1 DNM     -0.585000
     11 HA         -0.2000   -0.0630   -1.5080 h1        1 DNM      0.036000
     12 HB         -0.1690   -1.1690    0.8610 hc        1 DNM      0.069000
     13 HBA        -1.1380    0.0660    1.1080 hc        1 DNM      0.069000
     14 H1         -0.2960   -1.6270   -2.9630 h1        1 DNM      0.063667
     15 H1A        -1.2980   -2.8750   -2.8370 h1        1 DNM      0.063667
     16 H1B        -1.8800   -1.3980   -3.0730 h1        1 DNM      0.063667
     17 HD          1.4940   -0.1330    2.4210 hc        1 DNM      0.067000
     18 HDA         0.5460    1.1320    2.6410 hc        1 DNM      0.067000
     19 HE          3.2090    1.2700    1.6320 hc        1 DNM      0.061000
     20 HEA         2.2590    2.5390    1.7990 hc        1 DNM      0.061000
     21 HEB         2.7720    1.7560    3.0980 hc        1 DNM      0.061000
     22 HG          1.5010    0.2960    0.0660 hc        1 DNM      0.090000
     23 HGA         0.5240    1.5370    0.3010 hc        1 DNM      0.090000
     24 HN         -0.6580   -2.2770   -0.7910 hn        1 DNM      0.106000
@<TRIPOS>BOND
     1    1    3 1   
     2    1    5 1   
     3    2    4 1   
     4    2    5 1   
     5    2   24 1   
     6    4   14 1   
     7    4   15 1   
     8    4   16 1   
     9    5    6 1   
    10    5   11 1   
    11    6    9 1   
    12    6   12 1   
    13    6   13 1   
    14    7    8 1   
    15    7    9 1   
    16    7   17 1   
    17    7   18 1   
    18    8   19 1   
    19    8   20 1   
    20    8   21 1   
    21    9   22 1   
    22    9   23 1   
@<TRIPOS>SUBSTRUCTURE
     1 DNM         1 TEMP              0 ****  ****    0 ROOT
