@<TRIPOS>MOLECULE
DNN
   34    33     1     0     0
SMALL
bcc


@<TRIPOS>ATOM
      1 C1          0.0000    0.0000    0.0000 c         1 DNN      0.974600
      2 O1          1.2080    0.0000    0.0000 o         1 DNN     -0.786300
      3 O2         -0.6700    0.0000    1.1630 o         1 DNN     -0.786300
      4 C2         -0.7520   -0.0010   -1.3040 c3        1 DNN     -0.122400
      5 C3          0.2400   -0.0020   -2.4680 c3        1 DNN     -0.013400
      6 C4         -0.5240   -0.0020   -3.7930 c3        1 DNN     -0.029400
      7 C5          0.4690   -0.0030   -4.9540 c3        1 DNN     -0.032400
      8 C6         -0.2950   -0.0040   -6.2790 c3        1 DNN     -0.058400
      9 C7          0.6970   -0.0050   -7.4430 c3        1 DNN     -0.079500
     10 C8         -0.0660   -0.0050   -8.7680 c3        1 DNN     -0.077500
     11 C9          0.9270   -0.0060   -9.9300 c3        1 DNN     -0.019100
     12 N7          1.5440   -1.2020   -7.3640 nz        1 DNN      0.002400
     13 N8         -0.9120    1.1930   -8.8450 nz        1 DNN     -0.000600
     14 H21        -1.3760    0.8830   -1.3620 hc        1 DNN      0.017700
     15 H22        -1.3750   -0.8860   -1.3610 hc        1 DNN      0.017700
     16 H31         0.8630   -0.8860   -2.4100 hc        1 DNN      0.028700
     17 H32         0.8630    0.8830   -2.4110 hc        1 DNN      0.028700
     18 H41        -1.1460    0.8820   -3.8510 hc        1 DNN      0.019200
     19 H42        -1.1470   -0.8870   -3.8500 hc        1 DNN      0.019200
     20 H51         1.0920   -0.8870   -4.8960 hc        1 DNN      0.020200
     21 H52         1.0910    0.8820   -4.8980 hc        1 DNN      0.020200
     22 H61        -0.9180   -0.8890   -6.3360 hc        1 DNN      0.043700
     23 H62        -0.9180    0.8800   -6.3370 hc        1 DNN      0.043700
     24 H7          1.3190    0.8810   -7.3860 hx        1 DNN      0.098700
     25 H8         -0.6890   -0.8900   -8.8250 hx        1 DNN      0.094700
     26 H91         1.8880    0.3570   -9.5850 hc        1 DNN      0.047033
     27 H92         1.0380   -1.0140  -10.3110 hc        1 DNN      0.047033
     28 H93         0.5600    0.6390  -10.7200 hc        1 DNN      0.047033
     29 HN71        1.6940   -1.5670   -8.2840 hn        1 DNN      0.239800
     30 HN72        2.4250   -0.9620   -6.9540 hn        1 DNN      0.239800
     31 HN81       -0.4730    1.9440   -8.3500 hn        1 DNN      0.237133
     32 HN82       -1.8040    0.9990   -8.4350 hn        1 DNN      0.237133
     33 H73         1.0900   -1.8960   -6.8040 hn        1 DNN      0.239800
     34 H83        -1.0360    1.4530   -9.8040 hn        1 DNN      0.237133
@<TRIPOS>BOND
     1    1    2 1   
     2    1    3 1   
     3    1    4 1   
     4    4    5 1   
     5    4   14 1   
     6    4   15 1   
     7    5    6 1   
     8    5   16 1   
     9    5   17 1   
    10    6    7 1   
    11    6   18 1   
    12    6   19 1   
    13    7    8 1   
    14    7   20 1   
    15    7   21 1   
    16    8    9 1   
    17    8   22 1   
    18    8   23 1   
    19    9   10 1   
    20    9   12 1   
    21    9   24 1   
    22   10   11 1   
    23   10   13 1   
    24   10   25 1   
    25   11   26 1   
    26   11   27 1   
    27   11   28 1   
    28   12   29 1   
    29   12   30 1   
    30   12   33 1   
    31   13   31 1   
    32   13   32 1   
    33   13   34 1   
@<TRIPOS>SUBSTRUCTURE
     1 DNN         1 TEMP              0 ****  ****    0 ROOT
