@<TRIPOS>MOLECULE
DNN
   32    30     1     0     0
SMALL
bcc


@<TRIPOS>ATOM
      1 C1          2.9190    3.5160    3.1100 c1        1 DNN      0.327000
      2 O1          3.8460    4.1160    2.5050 o         1 DNN     -0.590000
      3 O2          3.0600    3.1970    4.3190 os        1 DNN     -0.588000
      4 C2          1.6350    3.1810    2.3840 c3        1 DNN     -0.222000
      5 C3          1.7650    1.8220    1.7300 c3        1 DNN     -0.143000
      6 C4          0.4320    1.4160    1.1420 c3        1 DNN     -0.159000
      7 C5          0.6130    0.1770    0.2930 c3        1 DNN     -0.155000
      8 C6         -0.7410   -0.3280   -0.1570 c3        1 DNN     -0.150000
      9 C7         -0.5550   -1.4690   -1.1310 c3        1 DNN     -0.024000
     10 C8         -1.9020   -1.9090   -1.6540 c3        1 DNN     -0.078000
     11 C9         -1.7070   -2.8990   -2.7800 c3        1 DNN     -0.254000
     12 N7          0.0770   -2.5590   -0.4700 n3        1 DNN     -0.337000
     13 N8         -2.6170   -0.7770   -2.1360 n3        1 DNN     -0.331000
     14 H21         0.8940    3.1660    3.0220 hc        1 DNN      0.058000
     15 H22         1.4620    3.8570    1.6980 hc        1 DNN      0.058000
     16 H31         2.4360    1.8650    1.0200 hc        1 DNN      0.083000
     17 H32         2.0410    1.1640    2.3990 hc        1 DNN      0.083000
     18 H41        -0.1990    1.2270    1.8640 hc        1 DNN      0.064000
     19 H42         0.0850    2.1430    0.5880 hc        1 DNN      0.064000
     20 H51         1.1560    0.3950   -0.4910 hc        1 DNN      0.082500
     21 H52         1.0610   -0.5160    0.8180 hc        1 DNN      0.082500
     22 H61        -1.2470   -0.6410    0.6190 hc        1 DNN      0.084500
     23 H62        -1.2300    0.3980   -0.5940 hc        1 DNN      0.084500
     24 H7          0.0030   -1.1720   -1.8780 h1        1 DNN      0.093000
     25 H8         -2.4090   -2.3320   -0.9330 h1        1 DNN      0.094000
     26 H91        -1.0160   -2.5660   -3.3900 hc        1 DNN      0.072000
     27 H92        -1.4290   -3.7630   -2.4110 hc        1 DNN      0.072000
     28 H93        -2.5500   -3.0080   -3.2680 hc        1 DNN      0.072000
     29 HN71        0.7300   -2.9060   -1.0110 hn        1 DNN      0.140000
     30 HN72       -0.5440   -3.2060   -0.2870 hn        1 DNN      0.140000
     31 HN81       -3.4920   -0.8330   -1.8700 hn        1 DNN      0.139000
     32 HN82       -2.5760   -0.7570   -3.0500 hn        1 DNN      0.139000
@<TRIPOS>BOND
     1    1    2 1   
     2    1    4 1   
     3    4    5 1   
     4    4   14 1   
     5    4   15 1   
     6    5    6 1   
     7    5   16 1   
     8    5   17 1   
     9    6    7 1   
    10    6   18 1   
    11    6   19 1   
    12    7    8 1   
    13    7   20 1   
    14    7   21 1   
    15    8    9 1   
    16    8   22 1   
    17    8   23 1   
    18    9   10 1   
    19    9   12 1   
    20    9   24 1   
    21   10   11 1   
    22   10   13 1   
    23   10   25 1   
    24   11   26 1   
    25   11   27 1   
    26   11   28 1   
    27   12   29 1   
    28   12   30 1   
    29   13   31 1   
    30   13   32 1   
@<TRIPOS>SUBSTRUCTURE
     1 DNN         1 TEMP              0 ****  ****    0 ROOT
