@<TRIPOS>MOLECULE
DNN
   32    31     1     0     0
SMALL
bcc


@<TRIPOS>ATOM
      1 C1          0.1290    0.2400   -4.6340 c         1 DNN      0.907600
      2 O1         -0.2390    1.4500   -4.6700 o         1 DNN     -0.854300
      3 O2          0.0530   -0.5470   -5.6220 o         1 DNN     -0.854300
      4 C2          0.7260   -0.3080   -3.3260 c3        1 DNN     -0.193400
      5 C3         -0.1390    0.0380   -2.1390 c3        1 DNN     -0.064400
      6 C4          0.5300   -0.3250   -0.8300 c3        1 DNN     -0.080400
      7 C5         -0.3560   -0.0020    0.3560 c3        1 DNN     -0.076400
      8 C6          0.3310   -0.3540    1.6590 c3        1 DNN     -0.071400
      9 C7         -0.4580    0.1290    2.8870 c3        1 DNN      0.173500
     10 C8          0.3900   -0.1520    4.1800 c3        1 DNN      0.119500
     11 C9         -0.4390    0.1570    5.4310 c3        1 DNN     -0.136100
     12 N7         -1.7930   -0.4270    2.9210 n3        1 DNN     -0.904800
     13 N8          1.6740    0.5260    4.1470 n3        1 DNN     -0.898800
     14 H21         1.7440    0.1410   -3.2010 hc        1 DNN      0.018700
     15 H22         0.8470   -1.4170   -3.4100 hc        1 DNN      0.018700
     16 H31        -1.1190   -0.5020   -2.2210 hc        1 DNN      0.043700
     17 H32        -0.3640    1.1370   -2.1660 hc        1 DNN      0.043700
     18 H41         1.4990    0.2330   -0.7390 hc        1 DNN      0.024700
     19 H42         0.7790   -1.4190   -0.8240 hc        1 DNN      0.024700
     20 H51        -1.3220   -0.5630    0.2610 hc        1 DNN      0.043200
     21 H52        -0.6090    1.0910    0.3470 hc        1 DNN      0.043200
     22 H61         1.3460    0.1200    1.6700 hc        1 DNN      0.045200
     23 H62         0.4820   -1.4630    1.7220 hc        1 DNN      0.045200
     24 H7         -0.5900    1.2500    2.8050 h1        1 DNN      0.053700
     25 H8          0.6300   -1.2580    4.1940 h1        1 DNN      0.054700
     26 H91         0.2050    0.1930    6.3430 hc        1 DNN      0.032700
     27 H92        -0.9590    1.1400    5.3290 hc        1 DNN      0.032700
     28 H93        -1.2030   -0.6380    5.6000 hc        1 DNN      0.032700
     29 HN71       -1.7750   -1.4200    2.8020 hn        1 DNN      0.344800
     30 HN72       -2.2610   -0.2010    3.7750 hn        1 DNN      0.344800
     31 HN81        1.5800    1.4520    3.7790 hn        1 DNN      0.343800
     32 HN82        2.0630    0.5800    5.0670 hn        1 DNN      0.343800
@<TRIPOS>BOND
     1    1    2 1   
     2    1    3 1   
     3    1    4 1   
     4    4    5 1   
     5    4   14 1   
     6    4   15 1   
     7    5    6 1   
     8    5   16 1   
     9    5   17 1   
    10    6    7 1   
    11    6   18 1   
    12    6   19 1   
    13    7    8 1   
    14    7   20 1   
    15    7   21 1   
    16    8    9 1   
    17    8   22 1   
    18    8   23 1   
    19    9   10 1   
    20    9   12 1   
    21    9   24 1   
    22   10   11 1   
    23   10   13 1   
    24   10   25 1   
    25   11   26 1   
    26   11   27 1   
    27   11   28 1   
    28   12   29 1   
    29   12   30 1   
    30   13   31 1   
    31   13   32 1   
@<TRIPOS>SUBSTRUCTURE
     1 DNN         1 TEMP              0 ****  ****    0 ROOT
