@<TRIPOS>MOLECULE
DNO
   24    23     1     0     0
SMALL
bcc


@<TRIPOS>ATOM
      1 C1          3.0270    0.6060   -0.0370 c         1 DNO      0.544900
      2 C2          1.8450   -0.3340    0.0470 c3        1 DNO     -0.002900
      3 C3          0.6530    0.2810   -0.7190 c3        1 DNO      0.090100
      4 C4         -0.6330   -0.5170   -0.4280 c3        1 DNO      0.083100
      5 C5         -1.5500    0.2570    0.5310 c3        1 DNO      0.108100
      6 C6         -2.9360   -0.3970    0.5930 c3        1 DNO      0.099400
      7 O1          3.4640    1.1920    0.9530 o         1 DNO     -0.517100
      8 O2          1.4820   -0.6330    1.3800 oh        1 DNO     -0.595800
      9 O3          0.9420    0.3310   -2.1000 oh        1 DNO     -0.595800
     10 O4         -1.2780   -0.8420   -1.6420 oh        1 DNO     -0.596800
     11 O5         -0.9800    0.3480    1.8210 oh        1 DNO     -0.588800
     12 O6         -3.6390    0.0620   -0.5500 oh        1 DNO     -0.608800
     13 H1          3.4500    0.7350   -1.0560 h4        1 DNO      0.024200
     14 H2          2.1230   -1.3280   -0.4070 h1        1 DNO      0.094700
     15 H3          0.5280    1.3580   -0.4110 h1        1 DNO      0.085700
     16 H4         -0.3650   -1.5170    0.0240 h1        1 DNO      0.087700
     17 H5         -1.6640    1.3270    0.1930 h1        1 DNO      0.096700
     18 H6         -2.8460   -1.5140    0.5830 h1        1 DNO      0.041200
     19 H6A        -3.4700   -0.0690    1.5250 h1        1 DNO      0.041200
     20 HO2         1.4670    0.2030    1.8720 ho        1 DNO      0.429000
     21 HO3         0.7000   -0.5230   -2.4880 ho        1 DNO      0.422000
     22 HO4        -1.7960   -0.0730   -1.9190 ho        1 DNO      0.429000
     23 HO5        -0.7370   -0.5460    2.0990 ho        1 DNO      0.415000
     24 HO6        -4.4090   -0.5090   -0.6530 ho        1 DNO      0.412000
@<TRIPOS>BOND
     1    1    2 1   
     2    1    7 2   
     3    1   13 1   
     4    2    3 1   
     5    2    8 1   
     6    2   14 1   
     7    3    4 1   
     8    3    9 1   
     9    3   15 1   
    10    4    5 1   
    11    4   10 1   
    12    4   16 1   
    13    5    6 1   
    14    5   11 1   
    15    5   17 1   
    16    6   12 1   
    17    6   18 1   
    18    6   19 1   
    19    8   20 1   
    20    9   21 1   
    21   10   22 1   
    22   11   23 1   
    23   12   24 1   
@<TRIPOS>SUBSTRUCTURE
     1 DNO         1 TEMP              0 ****  ****    0 ROOT
