@<TRIPOS>MOLECULE
DNO
   24    22     1     0     0
SMALL
bcc


@<TRIPOS>ATOM
      1 C1         -3.0320    0.2350   -1.5590 c1        1 DNO      0.171000
      2 C2         -1.5200    0.2350   -1.5590 c2        1 DNO     -0.041000
      3 C3         -1.0160    0.2350   -0.1340 c3        1 DNO     -0.004000
      4 C4          0.3470   -0.4170   -0.0810 c3        1 DNO      0.003000
      5 C5          1.1340    0.1550    1.0750 c3        1 DNO     -0.002000
      6 C6          2.4350   -0.6020    1.2220 c3        1 DNO     -0.055000
      7 O1         -3.6400    1.2740   -1.3810 o         1 DNO     -0.292000
      8 O2         -1.0510    1.3850   -2.2230 oh        1 DNO     -0.318000
      9 O3         -1.9120   -0.4830    0.6800 oh        1 DNO     -0.343000
     10 O4          0.1960   -1.8060    0.0940 oh        1 DNO     -0.314000
     11 O5          1.4080    1.5140    0.8300 oh        1 DNO     -0.358000
     12 O6          3.2120   -0.0090    2.2390 oh        1 DNO     -0.341000
     13 H1         -3.5190   -0.5910   -1.7390 ha        1 DNO      0.128000
     14 H2         -1.1940   -0.5620   -2.0190 h4        1 DNO      0.152000
     15 H3         -0.9490    1.1550    0.1870 h1        1 DNO      0.092000
     16 H4          0.8220   -0.2440   -0.9160 h1        1 DNO      0.142000
     17 H5          0.6140    0.0700    1.8960 h1        1 DNO      0.110000
     18 H6          2.2460   -1.5310    1.4560 h1        1 DNO      0.078500
     19 H6A         2.9260   -0.5730    0.3780 h1        1 DNO      0.078500
     20 HO2        -1.1350    1.2760   -3.1000 ho        1 DNO      0.218000
     21 HO3        -2.2550    0.0600    1.2930 ho        1 DNO      0.235000
     22 HO4         0.5060   -2.2300   -0.6210 ho        1 DNO      0.216000
     23 HO5         1.4390    1.9530    1.6010 ho        1 DNO      0.233000
     24 HO6         3.9380   -0.4990    2.3800 ho        1 DNO      0.212000
@<TRIPOS>BOND
     1    1    7 1   
     2    1   13 1   
     3    2    3 1   
     4    2    8 1   
     5    2   14 1   
     6    3    4 1   
     7    3    9 1   
     8    3   15 1   
     9    4    5 1   
    10    4   10 1   
    11    4   16 1   
    12    5    6 1   
    13    5   11 1   
    14    5   17 1   
    15    6   12 1   
    16    6   18 1   
    17    6   19 1   
    18    8   20 1   
    19    9   21 1   
    20   10   22 1   
    21   11   23 1   
    22   12   24 1   
@<TRIPOS>SUBSTRUCTURE
     1 DNO         1 TEMP              0 ****  ****    0 ROOT
