@<TRIPOS>MOLECULE
DNP
   15    14     1     0     0
SMALL
bcc


@<TRIPOS>ATOM
      1 N          -0.6160    1.6100    0.2720 n3        1 DNP     -0.933800
      2 CA         -0.2470    0.2160    0.4180 c3        1 DNP     -0.050500
      3 CB         -1.1560   -0.7000   -0.4050 c3        1 DNP      0.122800
      4 NG         -2.6050   -0.4960   -0.0770 n4        1 DNP     -0.839600
      5 C           1.2260   -0.1750   -0.0730 c         1 DNP      0.921600
      6 O           1.9640    0.7750   -0.4070 o         1 DNP     -0.780300
      7 OXT         1.4570   -1.4070   -0.0750 o         1 DNP     -0.780300
      8 H          -0.3080    2.1130    1.0840 hn        1 DNP      0.366800
      9 H2         -0.1140    1.9920   -0.5150 hn        1 DNP      0.366800
     10 HA         -0.3000   -0.0820    1.5020 h1        1 DNP      0.056700
     11 HB2        -1.0280   -0.4990   -1.5060 hx        1 DNP      0.114200
     12 HB3        -0.8710   -1.7710   -0.1860 hx        1 DNP      0.114200
     13 HG1        -2.7470   -0.6400    0.9240 hn        1 DNP      0.440800
     14 HG2        -2.8640    0.4700   -0.3020 hn        1 DNP      0.440800
     15 HG3        -3.1960   -1.1390   -0.6020 hn        1 DNP      0.440800
@<TRIPOS>BOND
     1    1    2 1   
     2    1    8 1   
     3    1    9 1   
     4    2    3 1   
     5    2    5 1   
     6    2   10 1   
     7    3    4 1   
     8    3   11 1   
     9    3   12 1   
    10    4   13 1   
    11    4   14 1   
    12    4   15 1   
    13    5    6 1   
    14    5    7 1   
@<TRIPOS>SUBSTRUCTURE
     1 DNP         1 TEMP              0 ****  ****    0 ROOT
