@<TRIPOS>MOLECULE
DNQ
   20    21     1     0     0
SMALL
bcc


@<TRIPOS>ATOM
      1 O1         -4.4770   -1.4210   -0.3460 o         1 DNQ     -0.380100
      2 O2         -4.5130    1.3280    0.2230 o         1 DNQ     -0.380100
      3 C1         -3.4350   -0.7950   -0.1650 c         1 DNQ      0.572500
      4 C2         -3.4540    0.7240    0.0710 c         1 DNQ      0.572500
      5 N1         -2.1700   -1.4690   -0.1600 nc        1 DNQ     -0.270400
      6 N2         -2.2040    1.4240    0.1010 nc        1 DNQ     -0.270400
      7 C3         -1.0820   -0.7620   -0.0650 ca        1 DNQ      0.036000
      8 C4         -1.0990    0.7400    0.0360 ca        1 DNQ      0.036000
      9 C5          0.2260   -1.4290   -0.0330 ca        1 DNQ     -0.038000
     10 C6          0.1950    1.4330    0.0390 ca        1 DNQ     -0.038000
     11 C7          1.3770   -0.7160    0.0300 ca        1 DNQ     -0.121200
     12 C8          1.3620    0.7440    0.0090 ca        1 DNQ     -0.121200
     13 N3          2.6760   -1.4570    0.1610 no        1 DNQ      0.320200
     14 N4          2.6480    1.5130   -0.0870 no        1 DNQ      0.320200
     15 O3          2.7950   -2.4820   -0.4470 o         1 DNQ     -0.163500
     16 O4          2.7290    2.5400    0.5240 o         1 DNQ     -0.163500
     17 O5          3.5110   -1.0190    0.8970 o         1 DNQ     -0.163500
     18 O6          3.5120    1.0920   -0.7990 o         1 DNQ     -0.163500
     19 H51         0.2300   -2.5380   -0.0510 ha        1 DNQ      0.209000
     20 H61         0.1760    2.5430    0.0570 ha        1 DNQ      0.209000
@<TRIPOS>BOND
     1    1    3 2   
     2    2    4 2   
     3    3    4 1   
     4    3    5 1   
     5    4    6 1   
     6    5    7 2   
     7    6    8 2   
     8    7    8 ar  
     9    7    9 ar  
    10    8   10 ar  
    11    9   11 ar  
    12    9   19 1   
    13   10   12 ar  
    14   10   20 1   
    15   11   12 ar  
    16   11   13 1   
    17   12   14 1   
    18   13   15 1   
    19   13   17 1   
    20   14   16 1   
    21   14   18 1   
@<TRIPOS>SUBSTRUCTURE
     1 DNQ         1 TEMP              0 ****  ****    0 ROOT
