@<TRIPOS>MOLECULE
DNQ
   20    17     1     0     0
SMALL
bcc


@<TRIPOS>ATOM
      1 O1         -4.5060   -0.1480    1.1500 o         1 DNQ     -0.374500
      2 O2         -3.1160   -0.4220    3.4360 o         1 DNQ     -0.374500
      3 C1         -3.2920   -0.1110    1.1320 c1        1 DNQ      0.647900
      4 C2         -2.5300   -0.3020    2.3790 c1        1 DNQ      0.647900
      5 N1         -2.6150    0.0610   -0.0800 ne        1 DNQ     -0.403400
      6 N2         -1.1310   -0.3100    2.3480 ne        1 DNQ     -0.403400
      7 C3         -1.1540    0.0530   -0.1090 cg        1 DNQ      0.088000
      8 C4         -0.4270   -0.1290    1.0810 cg        1 DNQ      0.088000
      9 C5         -0.4780    0.2200   -1.3220 c1        1 DNQ      0.019500
     10 C6          0.9710   -0.1420    1.0490 c1        1 DNQ      0.019500
     11 C7          0.9180    0.2060   -1.3510 c1        1 DNQ     -0.130300
     12 C8          1.6440    0.0240   -0.1620 c1        1 DNQ     -0.130300
     13 N3          1.4040    0.3800   -2.6730 no        1 DNQ      0.329300
     14 N4          3.0580   -0.0680   -0.0900 no        1 DNQ      0.329300
     15 O3          2.6780   -0.0010   -2.9870 o         1 DNQ     -0.163500
     16 O4          3.6650   -0.3460    1.1020 o         1 DNQ     -0.163500
     17 O5          0.6820    0.8670   -3.5300 o         1 DNQ     -0.163500
     18 O6          3.7330    0.0900   -1.0970 o         1 DNQ     -0.163500
     19 H51        -0.9810    0.3460   -2.1490 ha        1 DNQ      0.151500
     20 H61         1.4770   -0.2690    1.8750 ha        1 DNQ      0.151500
@<TRIPOS>BOND
     1    1    3 2   
     2    2    4 2   
     3    3    5 2   
     4    4    6 2   
     5    5    7 1   
     6    6    8 1   
     7    7    9 3   
     8    8   10 3   
     9    9   19 1   
    10   10   20 1   
    11   11   12 3   
    12   11   13 1   
    13   12   14 1   
    14   13   15 1   
    15   13   17 1   
    16   14   16 1   
    17   14   18 1   
@<TRIPOS>SUBSTRUCTURE
     1 DNQ         1 TEMP              0 ****  ****    0 ROOT
