@<TRIPOS>MOLECULE
DNQ
   20    21     1     0     0
SMALL
bcc


@<TRIPOS>ATOM
      1 O1         -0.0560    0.3760    0.0200 o         1 DNQ     -0.380100
      2 O2          1.3180   -0.2160    2.3960 o         1 DNQ     -0.380100
      3 C1          1.1580    0.1850    0.0220 c         1 DNQ      0.572500
      4 C2          1.9190   -0.0640    1.3350 c         1 DNQ      0.572500
      5 N1          1.8980    0.1790   -1.2050 nc        1 DNQ     -0.270400
      6 N2          3.3510   -0.1050    1.2950 nc        1 DNQ     -0.270400
      7 C3          3.1940    0.0730   -1.1560 ca        1 DNQ      0.036000
      8 C4          3.9490   -0.0400    0.1410 ca        1 DNQ      0.036000
      9 C5          3.9750    0.0410   -2.3990 ca        1 DNQ     -0.038000
     10 C6          5.4150   -0.0550    0.0730 ca        1 DNQ     -0.038000
     11 C7          5.3280   -0.0330   -2.3780 ca        1 DNQ     -0.121200
     12 C8          6.0640   -0.0240   -1.1170 ca        1 DNQ     -0.121200
     13 N3          6.0620   -0.1640   -3.6810 no        1 DNQ      0.320200
     14 N4          7.5640    0.0590   -1.1160 no        1 DNQ      0.320200
     15 O3          5.6440    0.4520   -4.6190 o         1 DNQ     -0.163500
     16 O4          8.1540   -0.5610   -0.2790 o         1 DNQ     -0.163500
     17 O5          6.9980   -0.9070   -3.7370 o         1 DNQ     -0.163500
     18 O6          8.0950    0.7710   -1.9170 o         1 DNQ     -0.163500
     19 H51         3.4100    0.0680   -3.3540 ha        1 DNQ      0.209000
     20 H61         5.9680   -0.0820    1.0350 ha        1 DNQ      0.209000
@<TRIPOS>BOND
     1    1    3 2   
     2    2    4 2   
     3    3    4 1   
     4    3    5 1   
     5    4    6 1   
     6    5    7 2   
     7    6    8 2   
     8    7    8 ar  
     9    7    9 ar  
    10    8   10 ar  
    11    9   11 ar  
    12    9   19 1   
    13   10   12 ar  
    14   10   20 1   
    15   11   12 ar  
    16   11   13 1   
    17   12   14 1   
    18   13   15 1   
    19   13   17 1   
    20   14   16 1   
    21   14   18 1   
@<TRIPOS>SUBSTRUCTURE
     1 DNQ         1 TEMP              0 ****  ****    0 ROOT
