@<TRIPOS>MOLECULE
DNS
   50    51     1     0     0
SMALL
bcc


@<TRIPOS>ATOM
      1 C1          1.2230   -3.5820    0.4960 c3        1 DNS      0.155600
      2 N1          2.4010   -3.0660   -0.1860 nh        1 DNS     -0.648000
      3 C2          2.9450   -4.0060   -1.1380 c3        1 DNS      0.155600
      4 C3          2.3410   -1.7190   -0.6100 ca        1 DNS      0.200600
      5 C4          2.4880   -1.3540   -1.9490 ca        1 DNS     -0.222000
      6 C5          2.4570   -0.0040   -2.3400 ca        1 DNS     -0.062000
      7 C6          2.2300    0.9960   -1.4270 ca        1 DNS     -0.209000
      8 C7          2.0610    0.6850   -0.0510 ca        1 DNS      0.090000
      9 C8          1.7680    1.7060    0.9060 ca        1 DNS     -0.402500
     10 S           1.3590    3.2850    0.4810 sy        1 DNS      1.515200
     11 OA          2.3010    3.8630   -0.4080 o         1 DNS     -0.676300
     12 OB          1.1800    4.0230    1.6770 o         1 DNS     -0.676300
     13 NZ         -0.0340    3.1260   -0.3180 n3        1 DNS     -0.917100
     14 CE         -1.1730    2.3730    0.1280 c3        1 DNS      0.227800
     15 CD         -1.9560    1.6850   -0.9930 c3        1 DNS     -0.092400
     16 CG         -2.8380    0.5800   -0.4450 c3        1 DNS     -0.072400
     17 CB         -2.0530   -0.6870   -0.1890 c3        1 DNS     -0.065400
     18 CA         -2.9250   -1.8730    0.2300 c3        1 DNS      0.028500
     19 C          -1.9770   -3.1100    0.2960 c         1 DNS      0.879600
     20 OXT        -1.6300   -3.6500   -0.7920 o         1 DNS     -0.850300
     21 O          -1.5780   -3.5010    1.4320 o         1 DNS     -0.850300
     22 N          -3.6740   -1.6320    1.4570 n3        1 DNS     -0.889800
     23 C9          1.7680    1.3770    2.2520 ca        1 DNS      0.012000
     24 C10         2.0190    0.0670    2.6880 ca        1 DNS     -0.199000
     25 C11         2.2040   -0.9410    1.7670 ca        1 DNS     -0.006000
     26 C12         2.1950   -0.6660    0.3750 ca        1 DNS     -0.079000
     27 H11A        0.6380   -2.7670    1.0010 h1        1 DNS      0.052367
     28 H12         0.5000   -4.0910   -0.2050 h1        1 DNS      0.052367
     29 H13         1.5750   -4.3160    1.2660 h1        1 DNS      0.052367
     30 H21         2.2520   -4.2170   -1.9990 h1        1 DNS      0.052367
     31 H22         3.9180   -3.6210   -1.5390 h1        1 DNS      0.052367
     32 H23         3.1320   -4.9700   -0.5940 h1        1 DNS      0.052367
     33 H4          2.6030   -2.1150   -2.7340 ha        1 DNS      0.134000
     34 H5          2.5960    0.2410   -3.4040 ha        1 DNS      0.122000
     35 H6          2.2100    2.0460   -1.7580 ha        1 DNS      0.145000
     36 HZ         -0.1250    3.4800   -1.2400 hn        1 DNS      0.442800
     37 HE3        -0.8200    1.5860    0.8580 h1        1 DNS      0.046200
     38 HE2        -1.8760    3.0610    0.6830 h1        1 DNS      0.046200
     39 HD3        -2.5880    2.4500   -1.5170 hc        1 DNS      0.036700
     40 HD2        -1.2550    1.2530   -1.7550 hc        1 DNS      0.036700
     41 HG3        -3.3360    0.9230    0.4990 hc        1 DNS      0.042200
     42 HG2        -3.6500    0.3630   -1.1880 hc        1 DNS      0.042200
     43 HB3        -1.5130   -0.9960   -1.1240 hc        1 DNS      0.044700
     44 HB2        -1.2770   -0.5020    0.6000 hc        1 DNS      0.044700
     45 HA         -3.6820   -2.0640   -0.5850 h1        1 DNS      0.046700
     46 H          -4.1010   -2.5020    1.7260 hn        1 DNS      0.330800
     47 H2         -3.0180   -1.4040    2.1850 hn        1 DNS      0.330800
     48 H9          1.5570    2.1600    3.0060 ha        1 DNS      0.155000
     49 H10         2.0380   -0.1500    3.7660 ha        1 DNS      0.136000
     50 H11         2.3680   -1.9720    2.1250 ha        1 DNS      0.157000
@<TRIPOS>BOND
     1    1    2 1   
     2    1   27 1   
     3    1   28 1   
     4    1   29 1   
     5    2    3 1   
     6    2    4 1   
     7    3   30 1   
     8    3   31 1   
     9    3   32 1   
    10    4    5 ar  
    11    4   26 ar  
    12    5    6 ar  
    13    5   33 1   
    14    6    7 ar  
    15    6   34 1   
    16    7    8 ar  
    17    7   35 1   
    18    8    9 ar  
    19    8   26 ar  
    20    9   10 1   
    21    9   23 ar  
    22   10   11 2   
    23   10   12 2   
    24   10   13 1   
    25   13   14 1   
    26   13   36 1   
    27   14   15 1   
    28   14   37 1   
    29   14   38 1   
    30   15   16 1   
    31   15   39 1   
    32   15   40 1   
    33   16   17 1   
    34   16   41 1   
    35   16   42 1   
    36   17   18 1   
    37   17   43 1   
    38   17   44 1   
    39   18   19 1   
    40   18   22 1   
    41   18   45 1   
    42   19   20 1   
    43   19   21 1   
    44   22   46 1   
    45   22   47 1   
    46   23   24 ar  
    47   23   48 1   
    48   24   25 ar  
    49   24   49 1   
    50   25   26 ar  
    51   25   50 1   
@<TRIPOS>SUBSTRUCTURE
     1 DNS         1 TEMP              0 ****  ****    0 ROOT
