@<TRIPOS>MOLECULE
DNT
   38    38     1     0     0
SMALL
bcc


@<TRIPOS>ATOM
      1 C13         7.1010    0.1410    1.4040 c3        1 DNT     -0.093100
      2 C12         6.0880   -0.4890    0.4850 c3        1 DNT     -0.079400
      3 C11         4.7300    0.1670    0.6230 c3        1 DNT     -0.080400
      4 C9          3.7160   -0.4710   -0.3030 c3        1 DNT     -0.078400
      5 C8          2.3600    0.1860   -0.1570 c3        1 DNT     -0.077400
      6 C7          1.3250   -0.4380   -1.0900 c3        1 DNT     -0.020400
      7 C10         1.4820    0.0750   -2.5090 c3        1 DNT     -0.091100
      8 C6         -0.0630   -0.1590   -0.5940 ca        1 DNT     -0.120300
      9 C1         -0.9800   -1.2300   -0.3800 ca        1 DNT      0.259100
     10 O1         -0.4890   -2.4620   -0.6580 oh        1 DNT     -0.479100
     11 C2         -2.2870   -0.9410    0.0860 ca        1 DNT     -0.288200
     12 C3         -2.6790    0.3900    0.3340 ca        1 DNT      0.021000
     13 C4         -1.7660    1.4190    0.1160 ca        1 DNT     -0.226200
     14 C5         -0.4620    1.1450   -0.3470 ca        1 DNT     -0.007000
     15 N4         -2.1670    2.8260    0.3740 no        1 DNT      0.323200
     16 O61        -1.3650    3.6990    0.1790 o         1 DNT     -0.199500
     17 O41        -3.2790    3.0480    0.7680 o         1 DNT     -0.199500
     18 N6         -3.2920   -2.0000    0.3320 no        1 DNT      0.328200
     19 O62        -4.3820   -1.6920    0.7230 o         1 DNT     -0.206500
     20 O42        -2.9910   -3.1520    0.1330 o         1 DNT     -0.206500
     21 H131        7.2220    1.2280    1.1730 hc        1 DNT      0.034033
     22 H132        6.7820    0.0440    2.4700 hc        1 DNT      0.034033
     23 H133        8.0940   -0.3560    1.2870 hc        1 DNT      0.034033
     24 H121        6.4380   -0.4030   -0.5780 hc        1 DNT      0.039200
     25 H122        5.9990   -1.5840    0.7150 hc        1 DNT      0.039200
     26 H111        4.3780    0.0800    1.6850 hc        1 DNT      0.041700
     27 H112        4.8170    1.2610    0.3910 hc        1 DNT      0.041700
     28 H91         4.0700   -0.3830   -1.3640 hc        1 DNT      0.043200
     29 H92         3.6320   -1.5660   -0.0710 hc        1 DNT      0.043200
     30 H81         2.0140    0.0810    0.9050 hc        1 DNT      0.045700
     31 H82         2.4490    1.2840   -0.3730 hc        1 DNT      0.045700
     32 H7          1.4920   -1.5550   -1.0990 hc        1 DNT      0.083700
     33 H101        2.5120   -0.1450   -2.8810 hc        1 DNT      0.042367
     34 H102        0.7470   -0.4220   -3.1860 hc        1 DNT      0.042367
     35 H103        1.3170    1.1790   -2.5530 hc        1 DNT      0.042367
     36 HO1        -1.1330   -3.1710   -0.4860 ho        1 DNT      0.478000
     37 H3         -3.7040    0.6110    0.6990 ha        1 DNT      0.207000
     38 H5          0.2490    1.9770   -0.5130 ha        1 DNT      0.185000
@<TRIPOS>BOND
     1    1    2 1   
     2    1   21 1   
     3    1   22 1   
     4    1   23 1   
     5    2    3 1   
     6    2   24 1   
     7    2   25 1   
     8    3    4 1   
     9    3   26 1   
    10    3   27 1   
    11    4    5 1   
    12    4   28 1   
    13    4   29 1   
    14    5    6 1   
    15    5   30 1   
    16    5   31 1   
    17    6    7 1   
    18    6    8 1   
    19    6   32 1   
    20    7   33 1   
    21    7   34 1   
    22    7   35 1   
    23    8    9 ar  
    24    8   14 ar  
    25    9   10 1   
    26    9   11 ar  
    27   10   36 1   
    28   11   12 ar  
    29   11   18 1   
    30   12   13 ar  
    31   12   37 1   
    32   13   14 ar  
    33   13   15 1   
    34   14   38 1   
    35   15   16 1   
    36   15   17 1   
    37   18   19 1   
    38   18   20 1   
@<TRIPOS>SUBSTRUCTURE
     1 DNT         1 TEMP              0 ****  ****    0 ROOT
