@<TRIPOS>MOLECULE
DNT
   38    38     1     0     0
SMALL
bcc


@<TRIPOS>ATOM
      1 C13        -0.0120    0.1060    0.0220 c3        1 DNT     -0.093100
      2 C12         1.4920    0.2000    0.0430 c3        1 DNT     -0.079400
      3 C11         2.0460   -0.0900    1.4220 c3        1 DNT     -0.080400
      4 C9          3.5570    0.0060    1.4370 c3        1 DNT     -0.078400
      5 C8          4.1050   -0.2810    2.8190 c3        1 DNT     -0.077400
      6 C7          5.6290   -0.1960    2.8530 c3        1 DNT     -0.020400
      7 C10         6.2630   -1.4500    2.2800 c3        1 DNT     -0.091100
      8 C6          6.1100    0.0280    4.2560 ca        1 DNT     -0.120300
      9 C1          6.9720    1.1230    4.5560 ca        1 DNT      0.259100
     10 O1          7.2930    1.9000    3.4920 oh        1 DNT     -0.479100
     11 C2          7.4160    1.3120    5.8880 ca        1 DNT     -0.288200
     12 C3          7.0130    0.4260    6.9070 ca        1 DNT      0.021000
     13 C4          6.1710   -0.6370    6.5900 ca        1 DNT     -0.226200
     14 C5          5.7220   -0.8360    5.2680 ca        1 DNT     -0.007000
     15 N4          5.7390   -1.5780    7.6550 no        1 DNT      0.323200
     16 O61         5.0140   -2.4890    7.3610 o         1 DNT     -0.199500
     17 O41         6.1270   -1.3990    8.7780 o         1 DNT     -0.199500
     18 N6          8.3110    2.4270    6.2740 no        1 DNT      0.328200
     19 O62         8.6540    2.5310    7.4170 o         1 DNT     -0.206500
     20 O42         8.6740    3.2070    5.4280 o         1 DNT     -0.206500
     21 H131       -0.3480   -0.9180    0.3170 hc        1 DNT      0.034033
     22 H132       -0.4000    0.3230   -1.0020 hc        1 DNT      0.034033
     23 H133       -0.4630    0.8400    0.7330 hc        1 DNT      0.034033
     24 H121        1.8100    1.2270   -0.2800 hc        1 DNT      0.039200
     25 H122        1.9250   -0.5260   -0.6950 hc        1 DNT      0.039200
     26 H111        1.7300   -1.1170    1.7450 hc        1 DNT      0.041700
     27 H112        1.6150    0.6370    2.1600 hc        1 DNT      0.041700
     28 H91         3.8710    1.0330    1.1110 hc        1 DNT      0.043200
     29 H92         3.9860   -0.7210    0.6980 hc        1 DNT      0.043200
     30 H81         3.6750    0.4600    3.5440 hc        1 DNT      0.045700
     31 H82         3.7770   -1.3010    3.1490 hc        1 DNT      0.045700
     32 H7          5.9440    0.6800    2.2140 hc        1 DNT      0.083700
     33 H101        5.9140   -1.6080    1.2310 hc        1 DNT      0.042367
     34 H102        7.3750   -1.3550    2.2730 hc        1 DNT      0.042367
     35 H103        5.9850   -2.3470    2.8850 hc        1 DNT      0.042367
     36 HO1         7.8690    2.6480    3.7330 ho        1 DNT      0.478000
     37 H3          7.3640    0.5780    7.9490 ha        1 DNT      0.207000
     38 H5          5.0530   -1.6870    5.0360 ha        1 DNT      0.185000
@<TRIPOS>BOND
     1    1    2 1   
     2    1   21 1   
     3    1   22 1   
     4    1   23 1   
     5    2    3 1   
     6    2   24 1   
     7    2   25 1   
     8    3    4 1   
     9    3   26 1   
    10    3   27 1   
    11    4    5 1   
    12    4   28 1   
    13    4   29 1   
    14    5    6 1   
    15    5   30 1   
    16    5   31 1   
    17    6    7 1   
    18    6    8 1   
    19    6   32 1   
    20    7   33 1   
    21    7   34 1   
    22    7   35 1   
    23    8    9 ar  
    24    8   14 ar  
    25    9   10 1   
    26    9   11 ar  
    27   10   36 1   
    28   11   12 ar  
    29   11   18 1   
    30   12   13 ar  
    31   12   37 1   
    32   13   14 ar  
    33   13   15 1   
    34   14   38 1   
    35   15   16 1   
    36   15   17 1   
    37   18   19 1   
    38   18   20 1   
@<TRIPOS>SUBSTRUCTURE
     1 DNT         1 TEMP              0 ****  ****    0 ROOT
