@<TRIPOS>MOLECULE
DNT
   38    36     1     0     0
SMALL
bcc


@<TRIPOS>ATOM
      1 C13        -5.1750   -0.3910   -2.4410 c3        1 DNT     -0.211000
      2 C12        -3.7060   -0.7400   -2.5200 c3        1 DNT     -0.158000
      3 C11        -2.9970   -0.2150   -1.2920 c3        1 DNT     -0.159000
      4 C9         -1.5460   -0.6390   -1.3280 c3        1 DNT     -0.157000
      5 C8         -0.8070   -0.0080   -0.1690 c3        1 DNT     -0.156000
      6 C7          0.3620   -0.8850    0.2210 c3        1 DNT     -0.067000
      7 C10        -0.0740   -1.8620    1.2910 c3        1 DNT     -0.209000
      8 C6          1.4840   -0.0220    0.7530 c2        1 DNT     -0.113000
      9 C1          2.7190   -0.0250    0.1240 c2        1 DNT      0.214000
     10 O1          2.9510   -0.8840   -0.9660 oh        1 DNT     -0.233000
     11 C2          3.7390    0.7860    0.5960 c1        1 DNT     -0.243000
     12 C3          3.5240    1.6000    1.6960 c1        1 DNT      0.021000
     13 C4          2.2890    1.6040    2.3250 c1        1 DNT     -0.181000
     14 C5          1.2690    0.7930    1.8530 c1        1 DNT     -0.007000
     15 N4          2.0550    2.4690    3.4240 no        1 DNT      0.578000
     16 O61         0.8530    2.4400    4.0730 o         1 DNT     -0.349500
     17 O41         2.9180    3.2610    3.7730 o         1 DNT     -0.349500
     18 N6          4.9840    0.8260   -0.0820 no        1 DNT      0.583000
     19 O62         6.0290    1.5260    0.4500 o         1 DNT     -0.356500
     20 O42         5.1120    0.2600   -1.1580 o         1 DNT     -0.356500
     21 H131       -5.6450   -0.7810   -3.2080 hc        1 DNT      0.073333
     22 H132       -5.5520   -0.7500   -1.6100 hc        1 DNT      0.073333
     23 H133       -5.2810    0.5830   -2.4530 hc        1 DNT      0.073333
     24 H121       -3.6030   -1.7110   -2.5650 hc        1 DNT      0.078500
     25 H122       -3.3170   -0.3330   -3.3200 hc        1 DNT      0.078500
     26 H111       -3.4230   -0.5770   -0.4890 hc        1 DNT      0.081000
     27 H112       -3.0510    0.7620   -1.2770 hc        1 DNT      0.081000
     28 H91        -1.4890   -1.6130   -1.2590 hc        1 DNT      0.082500
     29 H92        -1.1420   -0.3480   -2.1700 hc        1 DNT      0.082500
     30 H81        -0.4790    0.8750   -0.4340 hc        1 DNT      0.085000
     31 H82        -1.4140    0.0840    0.5930 hc        1 DNT      0.085000
     32 H7          0.6750   -1.3780   -0.5620 hc        1 DNT      0.123000
     33 H101       -0.2860   -1.3720    2.1130 hc        1 DNT      0.081667
     34 H102       -0.8680   -2.3470    0.9860 hc        1 DNT      0.081667
     35 H103        0.6500   -2.4980    1.4680 hc        1 DNT      0.081667
     36 HO1         3.6000   -1.4560   -0.7600 ho        1 DNT      0.277000
     37 H3          4.2420    2.1710    2.0290 ha        1 DNT      0.207000
     38 H5          0.3990    0.7950    2.2960 ha        1 DNT      0.185000
@<TRIPOS>BOND
     1    1    2 1   
     2    1   21 1   
     3    1   22 1   
     4    1   23 1   
     5    2    3 1   
     6    2   24 1   
     7    2   25 1   
     8    3    4 1   
     9    3   26 1   
    10    3   27 1   
    11    4    5 1   
    12    4   28 1   
    13    4   29 1   
    14    5    6 1   
    15    5   30 1   
    16    5   31 1   
    17    6    7 1   
    18    6    8 1   
    19    6   32 1   
    20    7   33 1   
    21    7   34 1   
    22    7   35 1   
    23    8    9 1   
    24    8   14 1   
    25    9   10 1   
    26    9   11 1   
    27   10   36 1   
    28   11   18 1   
    29   12   13 1   
    30   12   37 1   
    31   13   15 1   
    32   14   38 1   
    33   15   16 1   
    34   15   17 1   
    35   18   19 1   
    36   18   20 1   
@<TRIPOS>SUBSTRUCTURE
     1 DNT         1 TEMP              0 ****  ****    0 ROOT
