@<TRIPOS>MOLECULE
DNT
   38    38     1     0     0
SMALL
bcc


@<TRIPOS>ATOM
      1 C13        -0.0080    0.1160    0.0180 c3        1 DNT     -0.093100
      2 C12         1.4960    0.1980    0.0390 c3        1 DNT     -0.079400
      3 C11         2.0480   -0.0860    1.4200 c3        1 DNT     -0.080400
      4 C9          3.5590   -0.0000    1.4360 c3        1 DNT     -0.078400
      5 C8          4.1040   -0.2810    2.8210 c3        1 DNT     -0.077400
      6 C7          5.6280   -0.2050    2.8550 c3        1 DNT     -0.020400
      7 C10         6.2560   -1.4670    2.2910 c3        1 DNT     -0.091100
      8 C6          6.1100    0.0250    4.2580 ca        1 DNT     -0.120300
      9 C1          6.9750    1.1190    4.5520 ca        1 DNT      0.259100
     10 O1          7.3000    1.8890    3.4840 oh        1 DNT     -0.479100
     11 C2          7.4190    1.3140    5.8840 ca        1 DNT     -0.288200
     12 C3          7.0120    0.4350    6.9070 ca        1 DNT      0.021000
     13 C4          6.1670   -0.6270    6.5950 ca        1 DNT     -0.226200
     14 C5          5.7180   -0.8320    5.2740 ca        1 DNT     -0.007000
     15 N4          5.7320   -1.5600    7.6660 no        1 DNT      0.323200
     16 O61         5.0030   -2.4710    7.3750 o         1 DNT     -0.199500
     17 O41         6.1200   -1.3770    8.7870 o         1 DNT     -0.199500
     18 N6          8.3170    2.4280    6.2640 no        1 DNT      0.328200
     19 O62         8.6600    2.5370    7.4070 o         1 DNT     -0.206500
     20 O42         8.6830    3.2020    5.4130 o         1 DNT     -0.206500
     21 H131       -0.3520   -0.9030    0.3210 hc        1 DNT      0.034033
     22 H132       -0.4540    0.8590    0.7230 hc        1 DNT      0.034033
     23 H133       -0.3940    0.3280   -1.0080 hc        1 DNT      0.034033
     24 H121        1.9240   -0.5370   -0.6930 hc        1 DNT      0.039200
     25 H122        1.8230    1.2200   -0.2910 hc        1 DNT      0.039200
     26 H111        1.7240   -1.1080    1.7510 hc        1 DNT      0.041700
     27 H112        1.6210    0.6490    2.1530 hc        1 DNT      0.041700
     28 H91         3.8810    1.0220    1.1040 hc        1 DNT      0.043200
     29 H92         3.9840   -0.7360    0.7030 hc        1 DNT      0.043200
     30 H81         3.7690   -1.2970    3.1570 hc        1 DNT      0.045700
     31 H82         3.6780    0.4670    3.5400 hc        1 DNT      0.045700
     32 H7          5.9490    0.6650    2.2110 hc        1 DNT      0.083700
     33 H101        7.3690   -1.3780    2.2840 hc        1 DNT      0.042367
     34 H102        5.9060   -1.6290    1.2430 hc        1 DNT      0.042367
     35 H103        5.9720   -2.3580    2.9010 hc        1 DNT      0.042367
     36 HO1         7.8770    2.6360    3.7210 ho        1 DNT      0.478000
     37 H3          7.3630    0.5920    7.9490 ha        1 DNT      0.207000
     38 H5          5.0460   -1.6820    5.0470 ha        1 DNT      0.185000
@<TRIPOS>BOND
     1    1    2 1   
     2    1   21 1   
     3    1   22 1   
     4    1   23 1   
     5    2    3 1   
     6    2   24 1   
     7    2   25 1   
     8    3    4 1   
     9    3   26 1   
    10    3   27 1   
    11    4    5 1   
    12    4   28 1   
    13    4   29 1   
    14    5    6 1   
    15    5   30 1   
    16    5   31 1   
    17    6    7 1   
    18    6    8 1   
    19    6   32 1   
    20    7   33 1   
    21    7   34 1   
    22    7   35 1   
    23    8    9 ar  
    24    8   14 ar  
    25    9   10 1   
    26    9   11 ar  
    27   10   36 1   
    28   11   12 ar  
    29   11   18 1   
    30   12   13 ar  
    31   12   37 1   
    32   13   14 ar  
    33   13   15 1   
    34   14   38 1   
    35   15   16 1   
    36   15   17 1   
    37   18   19 1   
    38   18   20 1   
@<TRIPOS>SUBSTRUCTURE
     1 DNT         1 TEMP              0 ****  ****    0 ROOT
