@<TRIPOS>MOLECULE
DNX
   17    17     1     0     0
SMALL
bcc


@<TRIPOS>ATOM
      1 C1          2.4590    0.1010   -0.1130 ca        1 DNX      0.165100
      2 C2          1.4800   -0.9030   -0.1670 ca        1 DNX     -0.180000
      3 C3          0.1290   -0.5430   -0.1020 ca        1 DNX     -0.070200
      4 N3         -0.8880   -1.6360   -0.2330 no        1 DNX      0.316200
      5 C4         -0.2380    0.8090    0.0490 ca        1 DNX     -0.163200
      6 N4         -1.6590    1.2360    0.2100 no        1 DNX      0.322200
      7 C5          0.7580    1.8020    0.0750 ca        1 DNX     -0.045000
      8 C6          2.0990    1.4560   -0.0050 ca        1 DNX     -0.136000
      9 O1          3.7980   -0.1730   -0.1700 oh        1 DNX     -0.474100
     10 O31        -0.6520   -2.6870    0.2950 o         1 DNX     -0.174500
     11 O32        -1.8670   -1.4360   -0.8920 o         1 DNX     -0.174500
     12 O41        -1.9830    2.2940   -0.2540 o         1 DNX     -0.181500
     13 O42        -2.4090    0.5380    0.8310 o         1 DNX     -0.181500
     14 H2          1.7690   -1.9640   -0.2540 ha        1 DNX      0.179000
     15 H5          0.4670    2.8650    0.1600 ha        1 DNX      0.183000
     16 H6          2.8860    2.2270    0.0190 ha        1 DNX      0.177000
     17 HO1         3.9180   -1.1350   -0.2290 ho        1 DNX      0.438000
@<TRIPOS>BOND
     1    1    2 ar  
     2    1    8 ar  
     3    1    9 1   
     4    2    3 ar  
     5    2   14 1   
     6    3    4 1   
     7    3    5 ar  
     8    4   10 1   
     9    4   11 1   
    10    5    6 1   
    11    5    7 ar  
    12    6   12 1   
    13    6   13 1   
    14    7    8 ar  
    15    7   15 1   
    16    8   16 1   
    17    9   17 1   
@<TRIPOS>SUBSTRUCTURE
     1 DNX         1 TEMP              0 ****  ****    0 ROOT
