@<TRIPOS>MOLECULE
DNX
   17    17     1     0     0
SMALL
bcc


@<TRIPOS>ATOM
      1 C1         -0.0500   -0.0870    0.0550 ca        1 DNX      0.165100
      2 C2          1.3520   -0.1140    0.0110 ca        1 DNX     -0.180000
      3 C3          2.0730   -0.0850    1.2100 ca        1 DNX     -0.070200
      4 N3          3.5660   -0.1850    1.1250 no        1 DNX      0.316200
      5 C4          1.3970    0.0040    2.4420 ca        1 DNX     -0.163200
      6 N4          2.1200    0.1270    3.7420 no        1 DNX      0.322200
      7 C5         -0.0100    0.0050    2.4650 ca        1 DNX     -0.045000
      8 C6         -0.7350   -0.0400    1.2830 ca        1 DNX     -0.136000
      9 O1         -0.8240   -0.1130   -1.0730 oh        1 DNX     -0.474100
     10 O31         4.1160    0.3900    0.2270 o         1 DNX     -0.174500
     11 O32         4.1430   -0.8670    1.9210 o         1 DNX     -0.174500
     12 O41         1.6270   -0.3860    4.7090 o         1 DNX     -0.181500
     13 O42         3.1330    0.7630    3.7850 o         1 DNX     -0.181500
     14 H2          1.8820   -0.1520   -0.9560 ha        1 DNX      0.179000
     15 H5         -0.5400    0.0410    3.4350 ha        1 DNX      0.183000
     16 H6         -1.8360   -0.0370    1.2920 ha        1 DNX      0.177000
     17 HO1        -0.2410   -0.1290   -1.8500 ho        1 DNX      0.438000
@<TRIPOS>BOND
     1    1    2 ar  
     2    1    8 ar  
     3    1    9 1   
     4    2    3 ar  
     5    2   14 1   
     6    3    4 1   
     7    3    5 ar  
     8    4   10 1   
     9    4   11 1   
    10    5    6 1   
    11    5    7 ar  
    12    6   12 1   
    13    6   13 1   
    14    7    8 ar  
    15    7   15 1   
    16    8   16 1   
    17    9   17 1   
@<TRIPOS>SUBSTRUCTURE
     1 DNX         1 TEMP              0 ****  ****    0 ROOT
