@<TRIPOS>MOLECULE
DNX
   17    17     1     0     0
SMALL
bcc


@<TRIPOS>ATOM
      1 C1         -0.0550   -0.1000    0.0600 ca        1 DNX      0.165100
      2 C2          1.3470   -0.1100    0.0100 ca        1 DNX     -0.180000
      3 C3          2.0730   -0.0750    1.2060 ca        1 DNX     -0.070200
      4 N3          3.5660   -0.1580    1.1150 no        1 DNX      0.316200
      5 C4          1.4000    0.0040    2.4420 ca        1 DNX     -0.163200
      6 N4          2.1270    0.1330    3.7390 no        1 DNX      0.322200
      7 C5         -0.0070   -0.0110    2.4700 ca        1 DNX     -0.045000
      8 C6         -0.7350   -0.0630    1.2910 ca        1 DNX     -0.136000
      9 O1         -0.8330   -0.1320   -1.0650 oh        1 DNX     -0.474100
     10 O31         4.1060    0.4250    0.2160 o         1 DNX     -0.174500
     11 O32         4.1540   -0.8340    1.9080 o         1 DNX     -0.174500
     12 O41         1.6440   -0.3870    4.7070 o         1 DNX     -0.181500
     13 O42         3.1330    0.7820    3.7790 o         1 DNX     -0.181500
     14 H2          1.8730   -0.1410   -0.9590 ha        1 DNX      0.179000
     15 H5         -0.5330    0.0170    3.4420 ha        1 DNX      0.183000
     16 H6         -1.8360   -0.0730    1.3040 ha        1 DNX      0.177000
     17 HO1        -0.2530   -0.1410   -1.8440 ho        1 DNX      0.438000
@<TRIPOS>BOND
     1    1    2 ar  
     2    1    8 ar  
     3    1    9 1   
     4    2    3 ar  
     5    2   14 1   
     6    3    4 1   
     7    3    5 ar  
     8    4   10 1   
     9    4   11 1   
    10    5    6 1   
    11    5    7 ar  
    12    6   12 1   
    13    6   13 1   
    14    7    8 ar  
    15    7   15 1   
    16    8   16 1   
    17    9   17 1   
@<TRIPOS>SUBSTRUCTURE
     1 DNX         1 TEMP              0 ****  ****    0 ROOT
