@<TRIPOS>MOLECULE
DNX
   17    17     1     0     0
SMALL
bcc


@<TRIPOS>ATOM
      1 C1         -0.0550   -0.0500    0.0600 ca        1 DNX      0.165100
      2 C2          1.3440   -0.1320    0.0110 ca        1 DNX     -0.180000
      3 C3          2.0710   -0.1190    1.2070 ca        1 DNX     -0.070200
      4 N3          3.5580   -0.2780    1.1190 no        1 DNX      0.316200
      5 C4          1.4020    0.0090    2.4410 ca        1 DNX     -0.163200
      6 N4          2.1340    0.1160    3.7370 no        1 DNX      0.322200
      7 C5         -0.0030    0.0640    2.4690 ca        1 DNX     -0.045000
      8 C6         -0.7330    0.0350    1.2890 ca        1 DNX     -0.136000
      9 O1         -0.8330   -0.0570   -1.0660 oh        1 DNX     -0.474100
     10 O31         4.1260    0.2660    0.2130 o         1 DNX     -0.174500
     11 O32         4.1110   -0.9730    1.9200 o         1 DNX     -0.174500
     12 O41         1.6250   -0.3670    4.7110 o         1 DNX     -0.181500
     13 O42         3.1710    0.7140    3.7710 o         1 DNX     -0.181500
     14 H2          1.8690   -0.2000   -0.9570 ha        1 DNX      0.179000
     15 H5         -0.5280    0.1300    3.4400 ha        1 DNX      0.183000
     16 H6         -1.8330    0.0810    1.3020 ha        1 DNX      0.177000
     17 HO1        -0.2550   -0.1040   -1.8440 ho        1 DNX      0.438000
@<TRIPOS>BOND
     1    1    2 ar  
     2    1    8 ar  
     3    1    9 1   
     4    2    3 ar  
     5    2   14 1   
     6    3    4 1   
     7    3    5 ar  
     8    4   10 1   
     9    4   11 1   
    10    5    6 1   
    11    5    7 ar  
    12    6   12 1   
    13    6   13 1   
    14    7    8 ar  
    15    7   15 1   
    16    8   16 1   
    17    9   17 1   
@<TRIPOS>SUBSTRUCTURE
     1 DNX         1 TEMP              0 ****  ****    0 ROOT
