@<TRIPOS>MOLECULE
DNX
   17    14     1     0     0
SMALL
bcc


@<TRIPOS>ATOM
      1 C1         -1.2290   -0.0270   -1.3980 c1        1 DNX      0.120000
      2 C2          0.1570   -0.0130   -1.3950 c1        1 DNX     -0.180000
      3 C3          0.8480   -0.0230   -0.1940 c1        1 DNX     -0.025000
      4 N3          2.2660    0.0060   -0.1910 n2        1 DNX      0.462400
      5 C4          0.1530   -0.0460    1.0050 c2        1 DNX     -0.118000
      6 N4          0.8610   -0.0810    2.2340 no        1 DNX      0.577000
      7 C5         -1.2330   -0.0590    1.0030 c1        1 DNX     -0.045000
      8 C6         -1.9240   -0.0500   -0.1990 c1        1 DNX     -0.136000
      9 O1         -1.9300   -0.0480   -2.6180 oh        1 DNX     -0.228000
     10 O31         2.8560    1.0440    0.0750 o         1 DNX     -0.270200
     11 O32         2.9730   -1.1220   -0.4950 o         1 DNX     -0.270200
     12 O41         1.9900    0.3810    2.3030 o         1 DNX     -0.331500
     13 O42         0.2740   -0.6180    3.3440 o         1 DNX     -0.331500
     14 H2          0.6460    0.0030   -2.2400 ha        1 DNX      0.179000
     15 H5         -1.7220   -0.0750    1.8470 ha        1 DNX      0.183000
     16 H6         -2.9000   -0.0590   -0.2000 ha        1 DNX      0.177000
     17 HO1        -2.0880    0.7860   -2.8830 ho        1 DNX      0.237000
@<TRIPOS>BOND
     1    1    8 1   
     2    1    9 1   
     3    2    3 1   
     4    2   14 1   
     5    3    5 1   
     6    4   10 2   
     7    4   11 2   
     8    5    6 1   
     9    5    7 1   
    10    6   12 1   
    11    6   13 1   
    12    7   15 1   
    13    8   16 1   
    14    9   17 1   
@<TRIPOS>SUBSTRUCTURE
     1 DNX         1 TEMP              0 ****  ****    0 ROOT
