@<TRIPOS>MOLECULE
DO2
   22    21     1     0     0
SMALL
bcc


@<TRIPOS>ATOM
      1 C          -2.8760   -0.3380    0.0950 c         1 DO2      0.888600
      2 N          -1.9320    1.8100   -0.8930 n3        1 DO2     -0.891800
      3 OXT        -3.9710    0.2810    0.2120 o         1 DO2     -0.839300
      4 CA         -1.6880    0.4030   -0.6090 c3        1 DO2      0.018500
      5 CB         -0.4280    0.1680    0.2250 c3        1 DO2     -0.075400
      6 CD          2.0940   -0.0110    0.1480 c3        1 DO2      0.229600
      7 CE          3.3460    0.6220   -0.4580 c         1 DO2      0.593900
      8 CG          0.8320    0.5440   -0.5200 c3        1 DO2     -0.123400
      9 OE1         3.7050    0.4130   -1.6140 o         1 DO2     -0.521100
     10 O          -2.6700   -1.5200    0.4870 o         1 DO2     -0.839300
     11 H          -2.8570    1.8760   -1.2860 hn        1 DO2      0.333300
     12 H2         -1.9620    2.3110   -0.0220 hn        1 DO2      0.333300
     13 HA         -1.5510   -0.1060   -1.6080 h1        1 DO2      0.042700
     14 HB         -0.4880    0.7510    1.1820 hc        1 DO2      0.050200
     15 HBA        -0.4200   -0.9230    0.4980 hc        1 DO2      0.050200
     16 O4          2.2210   -1.4150    0.0690 oh        1 DO2     -0.623300
     17 O5          2.1530    0.2560    1.5380 oh        1 DO2     -0.623300
     18 HE          3.8930    1.3000    0.2310 h4        1 DO2      0.010200
     19 HG          0.7980    0.1490   -1.5700 hc        1 DO2      0.066200
     20 HGA         0.9170    1.6600   -0.5770 hc        1 DO2      0.066200
     21 H10         1.3470   -1.7900   -0.1040 ho        1 DO2      0.426500
     22 H11         1.4030   -0.1940    1.9480 ho        1 DO2      0.426500
@<TRIPOS>BOND
     1    1    3 1   
     2    1    4 1   
     3    1   10 1   
     4    2    4 1   
     5    2   11 1   
     6    2   12 1   
     7    4    5 1   
     8    4   13 1   
     9    5    8 1   
    10    5   14 1   
    11    5   15 1   
    12    6    7 1   
    13    6    8 1   
    14    6   16 1   
    15    6   17 1   
    16    7    9 2   
    17    7   18 1   
    18    8   19 1   
    19    8   20 1   
    20   16   21 1   
    21   17   22 1   
@<TRIPOS>SUBSTRUCTURE
     1 DO2         1 TEMP              0 ****  ****    0 ROOT
