@<TRIPOS>MOLECULE
DO3
   57    57     1     0     0
SMALL
bcc


@<TRIPOS>ATOM
      1 N1         -0.8180   -0.7700    2.2440 n3        1 DO3     -0.712600
      2 N2         -1.5090    1.5620   -0.0760 n3        1 DO3     -0.757600
      3 N3          0.2250   -0.3030   -2.7840 n3        1 DO3     -0.712600
      4 N4          1.7600   -2.3150   -0.1130 n3        1 DO3     -0.787600
      5 O1         -2.3670   -3.0070    4.4520 o         1 DO3     -0.860550
      6 O3          0.6760    3.5670    1.8570 o         1 DO3     -0.861800
      7 O5         -0.0090   -1.2660   -6.1700 o         1 DO3     -0.860550
      8 O7          4.5360   -0.5000   -0.5820 oh        1 DO3     -0.633800
      9 C1         -1.2680    0.6150    2.3570 c3        1 DO3      0.131300
     10 C2         -2.1090    1.1660    1.1820 c3        1 DO3      0.186800
     11 C3         -1.4130    0.4720   -1.0350 c3        1 DO3      0.186800
     12 C4         -0.7070    0.7490   -2.3860 c3        1 DO3      0.131300
     13 C5          1.3390   -0.4540   -1.8530 c3        1 DO3      0.134800
     14 C6          1.6100   -1.9410   -1.5010 c3        1 DO3      0.183300
     15 C7          0.5930   -2.1700    0.7360 c3        1 DO3      0.183300
     16 C8          0.4730   -0.8710    1.5670 c3        1 DO3      0.134800
     17 C9         -2.1190   -1.7850    4.2190 c         1 DO3      0.918600
     18 C10        -0.7720   -1.4710    3.5210 c3        1 DO3      0.063800
     19 C11        -0.3770    3.5090    1.1530 c         1 DO3      0.910600
     20 C12        -0.3870    2.4670    0.0030 c3        1 DO3      0.078800
     21 C13        -0.3360   -0.4150   -5.2880 c         1 DO3      0.918600
     22 C14         0.6940   -0.1770   -4.1550 c3        1 DO3      0.063800
     23 C15         3.6240   -0.6450    0.5070 c3        1 DO3      0.095100
     24 C16         3.0340   -2.0750    0.5060 c3        1 DO3      0.170800
     25 C17         4.4230   -0.3930    1.7720 c3        1 DO3     -0.084100
     26 O2         -2.8610   -0.8460    4.6240 o         1 DO3     -0.860550
     27 O4         -1.3430    4.3120    1.2930 o         1 DO3     -0.861800
     28 O6         -1.3850    0.2830   -5.3580 o         1 DO3     -0.860550
     29 HO7         4.0060   -0.5830   -1.3850 ho        1 DO3      0.407000
     30 HC11       -0.4050    1.3240    2.5300 h1        1 DO3      0.062450
     31 HC12       -1.9510    0.6690    3.2590 h1        1 DO3      0.062450
     32 HC21       -2.5690    2.1170    1.5890 h1        1 DO3      0.036950
     33 HC22       -2.9340    0.4320    0.9600 h1        1 DO3      0.036950
     34 HC31       -2.4820    0.2030   -1.2880 h1        1 DO3      0.036950
     35 HC32       -0.9690   -0.4510   -0.5580 h1        1 DO3      0.036950
     36 HC41       -0.1890    1.7500   -2.3790 h1        1 DO3      0.062450
     37 HC42       -1.4940    0.7890   -3.1960 h1        1 DO3      0.062450
     38 HC51        1.1310    0.1300   -0.9140 h1        1 DO3      0.023950
     39 HC52        2.2940   -0.0220   -2.2810 h1        1 DO3      0.023950
     40 HC61        2.5530   -2.2520   -2.0360 h1        1 DO3      0.048700
     41 HC62        0.7670   -2.5750   -1.9050 h1        1 DO3      0.048700
     42 HC71       -0.3250   -2.2830    0.0920 h1        1 DO3      0.048700
     43 HC72        0.6160   -3.0430    1.4510 h1        1 DO3      0.048700
     44 HC81        0.5990    0.0210    0.8940 h1        1 DO3      0.023950
     45 HC82        1.3390   -0.8420    2.2960 h1        1 DO3      0.023950
     46 H101       -0.2660   -2.4630    3.3450 h1        1 DO3      0.002200
     47 H102       -0.1500   -0.9030    4.2750 h1        1 DO3      0.002200
     48 H121        0.5990    1.9160    0.0440 h1        1 DO3      0.002200
     49 H122       -0.3920    3.0810   -0.9440 h1        1 DO3      0.002200
     50 H141        1.1430    0.8440   -4.3410 h1        1 DO3      0.002200
     51 H142        1.5130   -0.9390   -4.2990 h1        1 DO3      0.002200
     52 HA          2.8100    0.1300    0.4180 h1        1 DO3      0.077700
     53 H161        3.7880   -2.7340   -0.0180 h1        1 DO3      0.035200
     54 H162        2.9620   -2.4180    1.5770 h1        1 DO3      0.035200
     55 H171        4.9470    0.5890    1.7000 hc        1 DO3      0.033700
     56 H172        3.7290   -0.3740    2.6460 hc        1 DO3      0.033700
     57 H173        5.1860   -1.1940    1.9220 hc        1 DO3      0.033700
@<TRIPOS>BOND
     1    1    9 1   
     2    1   16 1   
     3    1   18 1   
     4    2   10 1   
     5    2   11 1   
     6    2   20 1   
     7    3   12 1   
     8    3   13 1   
     9    3   22 1   
    10    4   14 1   
    11    4   15 1   
    12    4   24 1   
    13    5   17 1   
    14    6   19 1   
    15    7   21 1   
    16    8   23 1   
    17    8   29 1   
    18    9   10 1   
    19    9   30 1   
    20    9   31 1   
    21   10   32 1   
    22   10   33 1   
    23   11   12 1   
    24   11   34 1   
    25   11   35 1   
    26   12   36 1   
    27   12   37 1   
    28   13   14 1   
    29   13   38 1   
    30   13   39 1   
    31   14   40 1   
    32   14   41 1   
    33   15   16 1   
    34   15   42 1   
    35   15   43 1   
    36   16   44 1   
    37   16   45 1   
    38   17   18 1   
    39   17   26 1   
    40   18   46 1   
    41   18   47 1   
    42   19   20 1   
    43   19   27 1   
    44   20   48 1   
    45   20   49 1   
    46   21   22 1   
    47   21   28 1   
    48   22   50 1   
    49   22   51 1   
    50   23   24 1   
    51   23   25 1   
    52   23   52 1   
    53   24   53 1   
    54   24   54 1   
    55   25   55 1   
    56   25   56 1   
    57   25   57 1   
@<TRIPOS>SUBSTRUCTURE
     1 DO3         1 TEMP              0 ****  ****    0 ROOT
