@<TRIPOS>MOLECULE
DO3
   61    61     1     0     0
SMALL
bcc


@<TRIPOS>ATOM
      1 N1          0.2710    0.1220    0.2150 n4        1 DO3     -0.677900
      2 N2          2.8230    1.6200    1.4540 n4        1 DO3     -0.672400
      3 N3         -0.0860    2.9960    3.0890 n4        1 DO3     -0.677900
      4 N4         -1.2650    2.9360   -0.1920 n4        1 DO3     -0.685400
      5 O1         -2.3090   -1.4120    2.2730 o         1 DO3     -0.771550
      6 O3          1.3580    2.7170   -1.4950 o         1 DO3     -0.780300
      7 O5         -0.4870    2.1060    6.6140 o         1 DO3     -0.771550
      8 O7          0.4300    5.0240   -0.6680 oh        1 DO3     -0.646800
      9 C1          1.6830   -0.1610   -0.1590 c3        1 DO3      0.095300
     10 C2          2.7680    0.2480    0.8480 c3        1 DO3      0.080800
     11 C3          2.0560    1.6850    2.7540 c3        1 DO3      0.080800
     12 C4          1.4140    3.0330    3.1350 c3        1 DO3      0.095300
     13 C5         -0.6880    3.9470    2.1090 c3        1 DO3      0.080800
     14 C6         -1.7560    3.3450    1.1750 c3        1 DO3      0.081800
     15 C7         -1.7020    1.5500   -0.5760 c3        1 DO3      0.081800
     16 C8         -0.5560    0.5900   -0.9480 c3        1 DO3      0.080800
     17 C9         -1.5010   -0.5710    1.8790 c         1 DO3      0.944100
     18 C10        -0.3600   -1.0510    0.9110 c3        1 DO3     -0.076200
     19 C11         2.4840    2.4260   -0.9850 c         1 DO3      0.918600
     20 C12         2.5450    2.7550    0.5400 c3        1 DO3     -0.088200
     21 C13        -0.0470    2.0360    5.4620 c         1 DO3      0.944100
     22 C14        -0.6250    3.1640    4.4820 c3        1 DO3     -0.076200
     23 C15        -0.4760    4.8120   -1.7440 c3        1 DO3      0.140100
     24 C16        -1.6620    3.9560   -1.2310 c3        1 DO3      0.094800
     25 C17        -1.0020    6.1430   -2.2420 c3        1 DO3     -0.124100
     26 O2         -1.4840    0.6850    2.1160 o         1 DO3     -0.771550
     27 O4          3.4670    1.9010   -1.5300 o         1 DO3     -0.780300
     28 O6          0.7940    1.2440    4.9520 o         1 DO3     -0.771550
     29 HO7         1.3180    4.8490   -1.0160 ho        1 DO3      0.448000
     30 HC11        1.9080    0.2830   -1.1790 hx        1 DO3      0.136950
     31 HC12        1.7980   -1.2840   -0.2790 hx        1 DO3      0.136950
     32 HC21        2.7660   -0.4830    1.7120 hx        1 DO3      0.146200
     33 HC22        3.7340    0.1290    0.2560 hx        1 DO3      0.146200
     34 HC31        2.7820    1.4270    3.5910 hx        1 DO3      0.146200
     35 HC32        1.2890    0.8490    2.7960 hx        1 DO3      0.146200
     36 HC41        1.7170    3.2020    4.2220 hx        1 DO3      0.136950
     37 HC42        1.8060    3.9170    2.5620 hx        1 DO3      0.136950
     38 HC51       -1.2140    4.7520    2.7090 hx        1 DO3      0.132700
     39 HC52        0.1140    4.4710    1.5100 hx        1 DO3      0.132700
     40 HC61       -2.5450    4.1430    1.0440 hx        1 DO3      0.147450
     41 HC62       -2.2820    2.4710    1.6790 hx        1 DO3      0.147450
     42 HC71       -2.3300    1.1050    0.2600 hx        1 DO3      0.147450
     43 HC72       -2.3640    1.6060   -1.4900 hx        1 DO3      0.147450
     44 HC81        0.1220    1.0790   -1.7170 hx        1 DO3      0.132700
     45 HC82       -1.0350   -0.3150   -1.4250 hx        1 DO3      0.132700
     46 H101        0.4180   -1.5660    1.5370 hx        1 DO3      0.100950
     47 H102       -0.7710   -1.7730    0.1590 hx        1 DO3      0.100950
     48 H121        3.3440    3.5350    0.6840 hx        1 DO3      0.089700
     49 H122        1.5460    3.2080    0.7810 hx        1 DO3      0.089700
     50 H141       -1.7380    3.0420    4.4430 hx        1 DO3      0.100950
     51 H142       -0.3520    4.1730    4.8790 hx        1 DO3      0.100950
     52 HA          0.0390    4.2480   -2.5750 h1        1 DO3      0.101700
     53 H161       -2.4550    4.6340   -0.8080 hx        1 DO3      0.101200
     54 H162       -2.1030    3.4350   -2.1270 hx        1 DO3      0.101200
     55 H171       -1.7980    5.9820   -3.0080 hc        1 DO3      0.065700
     56 H172       -0.1650    6.7200   -2.7060 hc        1 DO3      0.065700
     57 H173       -1.4160    6.7480   -1.4000 hc        1 DO3      0.065700
     58 H11         0.2460    0.8820    0.9190 hn        1 DO3      0.467800
     59 H21         3.8210    1.7220    1.7150 hn        1 DO3      0.461800
     60 H31        -0.3720    2.0150    2.8620 hn        1 DO3      0.467800
     61 H41        -0.2210    2.9540   -0.1980 hn        1 DO3      0.472800
@<TRIPOS>BOND
     1    1    9 1   
     2    1   16 1   
     3    1   18 1   
     4    1   58 1   
     5    2   10 1   
     6    2   11 1   
     7    2   20 1   
     8    2   59 1   
     9    3   12 1   
    10    3   13 1   
    11    3   22 1   
    12    3   60 1   
    13    4   14 1   
    14    4   15 1   
    15    4   24 1   
    16    4   61 1   
    17    5   17 1   
    18    6   19 1   
    19    7   21 1   
    20    8   23 1   
    21    8   29 1   
    22    9   10 1   
    23    9   30 1   
    24    9   31 1   
    25   10   32 1   
    26   10   33 1   
    27   11   12 1   
    28   11   34 1   
    29   11   35 1   
    30   12   36 1   
    31   12   37 1   
    32   13   14 1   
    33   13   38 1   
    34   13   39 1   
    35   14   40 1   
    36   14   41 1   
    37   15   16 1   
    38   15   42 1   
    39   15   43 1   
    40   16   44 1   
    41   16   45 1   
    42   17   18 1   
    43   17   26 1   
    44   18   46 1   
    45   18   47 1   
    46   19   20 1   
    47   19   27 1   
    48   20   48 1   
    49   20   49 1   
    50   21   22 1   
    51   21   28 1   
    52   22   50 1   
    53   22   51 1   
    54   23   24 1   
    55   23   25 1   
    56   23   52 1   
    57   24   53 1   
    58   24   54 1   
    59   25   55 1   
    60   25   56 1   
    61   25   57 1   
@<TRIPOS>SUBSTRUCTURE
     1 DO3         1 TEMP              0 ****  ****    0 ROOT
