@<TRIPOS>MOLECULE
DO3
   61    61     1     0     0
SMALL
bcc


@<TRIPOS>ATOM
      1 N1          0.2520    0.1140   -0.2160 n4        1 DO3     -0.679900
      2 N2          2.7060    1.4770    1.5360 n4        1 DO3     -0.666400
      3 N3         -0.0700    2.9130    3.2420 n4        1 DO3     -0.679900
      4 N4         -1.1630    2.8870   -0.3060 n4        1 DO3     -0.711400
      5 O1         -1.5600   -1.7350    2.3540 o         1 DO3     -0.759800
      6 O3          1.4920    2.9560   -1.4970 o         1 DO3     -0.774800
      7 O5         -0.6480    2.6160    6.8340 o         1 DO3     -0.759800
      8 O7          0.3790    5.1830   -0.6620 oh        1 DO3     -0.642800
      9 C1          1.7170   -0.1700   -0.2930 c3        1 DO3      0.098800
     10 C2          2.4400    0.0800    1.0440 c3        1 DO3      0.085300
     11 C3          2.1680    1.6940    2.9440 c3        1 DO3      0.085300
     12 C4          1.4310    3.0130    3.2410 c3        1 DO3      0.098800
     13 C5         -0.7370    3.6340    2.1120 c3        1 DO3      0.072300
     14 C6         -1.5350    2.7320    1.1410 c3        1 DO3      0.078800
     15 C7         -1.5280    1.6750   -1.1090 c3        1 DO3      0.078800
     16 C8         -0.3500    0.7280   -1.4290 c3        1 DO3      0.072300
     17 C9         -0.8550   -0.8860    1.8120 c         1 DO3      0.937100
     18 C10        -0.5330   -1.0650    0.2800 c3        1 DO3     -0.087200
     19 C11         2.5170    2.5380   -0.8680 c         1 DO3      0.920600
     20 C12         2.3230    2.6140    0.6750 c3        1 DO3     -0.080200
     21 C13        -0.0470    2.4280    5.7700 c         1 DO3      0.937100
     22 C14        -0.5920    3.3640    4.5750 c3        1 DO3     -0.087200
     23 C15        -0.6740    4.9980   -1.6010 c3        1 DO3      0.140100
     24 C16        -1.7500    4.1530   -0.8740 c3        1 DO3      0.092800
     25 C17        -1.2720    6.3340   -1.9910 c3        1 DO3     -0.124100
     26 O2         -0.3400    0.1710    2.3210 o         1 DO3     -0.759800
     27 O4          3.5780    2.0980   -1.3330 o         1 DO3     -0.774800
     28 O6          0.9060    1.6660    5.4680 o         1 DO3     -0.759800
     29 HO7         1.2150    5.0600   -1.1390 ho        1 DO3      0.460000
     30 HC11        1.8630   -1.2710   -0.5170 hx        1 DO3      0.138200
     31 HC12        2.1860    0.3900   -1.1550 hx        1 DO3      0.138200
     32 HC21        1.8700   -0.4740    1.8580 hx        1 DO3      0.153200
     33 HC22        3.4540   -0.4120    0.9190 hx        1 DO3      0.153200
     34 HC31        3.0640    1.6650    3.6360 hx        1 DO3      0.153200
     35 HC32        1.5020    0.8220    3.2650 hx        1 DO3      0.153200
     36 HC41        1.7530    3.8910    2.6220 hx        1 DO3      0.138200
     37 HC42        1.7450    3.2450    4.3190 hx        1 DO3      0.138200
     38 HC51       -1.4790    4.3560    2.5720 hx        1 DO3      0.135950
     39 HC52        0.0110    4.2770    1.5570 hx        1 DO3      0.135950
     40 HC61       -1.4520    1.6380    1.4400 hx        1 DO3      0.129950
     41 HC62       -2.6300    2.9970    1.2360 hx        1 DO3      0.129950
     42 HC71       -1.9190    2.0120   -2.1160 hx        1 DO3      0.129950
     43 HC72       -2.3550    1.1190   -0.5790 hx        1 DO3      0.129950
     44 HC81       -0.7520   -0.0900   -2.0970 hx        1 DO3      0.135950
     45 HC82        0.4500    1.2890   -2.0130 hx        1 DO3      0.135950
     46 H101       -1.5020   -1.1460   -0.2790 hx        1 DO3      0.097700
     47 H102        0.0420   -2.0170    0.1400 hx        1 DO3      0.097700
     48 H121        1.2390    2.8250    0.8550 hx        1 DO3      0.078200
     49 H122        2.9360    3.5090    0.9940 hx        1 DO3      0.078200
     50 H141       -1.7100    3.2840    4.5680 hx        1 DO3      0.097700
     51 H142       -0.2780    4.4180    4.7730 hx        1 DO3      0.097700
     52 HA         -0.2980    4.4430   -2.5070 h1        1 DO3      0.085700
     53 H161       -2.1620    4.7680   -0.0230 hx        1 DO3      0.105200
     54 H162       -2.5880    3.9120   -1.5820 hx        1 DO3      0.105200
     55 H171       -1.5770    6.9120   -1.0860 hc        1 DO3      0.067367
     56 H172       -2.1590    6.1850   -2.6520 hc        1 DO3      0.067367
     57 H173       -0.5050    6.9320   -2.5430 hc        1 DO3      0.067367
     58 H11         0.1710    0.8140    0.5590 hn        1 DO3      0.476800
     59 H21         3.7370    1.5300    1.6040 hn        1 DO3      0.461800
     60 H31        -0.3180    1.8990    3.2280 hn        1 DO3      0.476800
     61 H41        -0.1190    3.0180   -0.3970 hn        1 DO3      0.496800
@<TRIPOS>BOND
     1    1    9 1   
     2    1   16 1   
     3    1   18 1   
     4    1   58 1   
     5    2   10 1   
     6    2   11 1   
     7    2   20 1   
     8    2   59 1   
     9    3   12 1   
    10    3   13 1   
    11    3   22 1   
    12    3   60 1   
    13    4   14 1   
    14    4   15 1   
    15    4   24 1   
    16    4   61 1   
    17    5   17 1   
    18    6   19 1   
    19    7   21 1   
    20    8   23 1   
    21    8   29 1   
    22    9   10 1   
    23    9   30 1   
    24    9   31 1   
    25   10   32 1   
    26   10   33 1   
    27   11   12 1   
    28   11   34 1   
    29   11   35 1   
    30   12   36 1   
    31   12   37 1   
    32   13   14 1   
    33   13   38 1   
    34   13   39 1   
    35   14   40 1   
    36   14   41 1   
    37   15   16 1   
    38   15   42 1   
    39   15   43 1   
    40   16   44 1   
    41   16   45 1   
    42   17   18 1   
    43   17   26 1   
    44   18   46 1   
    45   18   47 1   
    46   19   20 1   
    47   19   27 1   
    48   20   48 1   
    49   20   49 1   
    50   21   22 1   
    51   21   28 1   
    52   22   50 1   
    53   22   51 1   
    54   23   24 1   
    55   23   25 1   
    56   23   52 1   
    57   24   53 1   
    58   24   54 1   
    59   25   55 1   
    60   25   56 1   
    61   25   57 1   
@<TRIPOS>SUBSTRUCTURE
     1 DO3         1 TEMP              0 ****  ****    0 ROOT
