@<TRIPOS>MOLECULE
DO3
   61    61     1     0     0
SMALL
bcc


@<TRIPOS>ATOM
      1 N1          0.3310    0.1240    0.2190 nx        1 DO3     -0.677900
      2 N2          2.8330    1.6860    1.4810 nx        1 DO3     -0.672400
      3 N3         -0.1250    2.9910    3.0850 nx        1 DO3     -0.677900
      4 N4         -1.2700    2.8980   -0.2070 nx        1 DO3     -0.685400
      5 O1         -2.2290   -1.4710    2.2540 o         1 DO3     -0.771550
      6 O3          1.3700    2.7440   -1.4850 o         1 DO3     -0.780300
      7 O5         -0.5380    2.0950    6.6070 o         1 DO3     -0.771550
      8 O7          0.3780    5.0280   -0.6690 oh        1 DO3     -0.646800
      9 C1          1.7530   -0.1240   -0.1410 c3        1 DO3      0.095300
     10 C2          2.8180    0.3130    0.8760 c3        1 DO3      0.080800
     11 C3          2.0520    1.7340    2.7720 c3        1 DO3      0.080800
     12 C4          1.3730    3.0660    3.1450 c3        1 DO3      0.095300
     13 C5         -0.7410    3.9260    2.0980 c3        1 DO3      0.080800
     14 C6         -1.7840    3.2960    1.1540 c3        1 DO3      0.081800
     15 C7         -1.6690    1.5020   -0.5940 c3        1 DO3      0.081800
     16 C8         -0.4960    0.5700   -0.9530 c3        1 DO3      0.080800
     17 C9         -1.4390   -0.6110    1.8670 c         1 DO3      0.944100
     18 C10        -0.2770   -1.0640    0.9100 c3        1 DO3     -0.076200
     19 C11         2.4980    2.4810   -0.9630 c         1 DO3      0.918600
     20 C12         2.5350    2.8120    0.5620 c3        1 DO3     -0.088200
     21 C13        -0.0860    2.0350    5.4590 c         1 DO3      0.944100
     22 C14        -0.6810    3.1470    4.4720 c3        1 DO3     -0.076200
     23 C15        -0.5130    4.7920   -1.7530 c3        1 DO3      0.140100
     24 C16        -1.6820    3.9070   -1.2520 c3        1 DO3      0.094800
     25 C17        -1.0670    6.1100   -2.2570 c3        1 DO3     -0.124100
     26 O2         -1.4560    0.6460    2.1020 o         1 DO3     -0.771550
     27 O4          3.4990    1.9790   -1.4980 o         1 DO3     -0.780300
     28 O6          0.7800    1.2630    4.9590 o         1 DO3     -0.771550
     29 HO7         1.2720    4.8740   -1.0080 ho        1 DO3      0.448000
     30 HC11        1.8970   -1.2440   -0.2580 hx        1 DO3      0.136950
     31 HC12        1.9780    0.3240   -1.1590 hx        1 DO3      0.136950
     32 HC21        2.8260   -0.4170    1.7400 hx        1 DO3      0.146200
     33 HC22        3.7930    0.2170    0.2940 hx        1 DO3      0.146200
     34 HC31        2.7760    1.4950    3.6170 hx        1 DO3      0.146200
     35 HC32        1.3050    0.8780    2.8080 hx        1 DO3      0.146200
     36 HC41        1.6610    3.2440    4.2350 hx        1 DO3      0.136950
     37 HC42        1.7480    3.9580    2.5750 hx        1 DO3      0.136950
     38 HC51       -1.2930    4.7180    2.6920 hx        1 DO3      0.132700
     39 HC52        0.0540    4.4690    1.5060 hx        1 DO3      0.132700
     40 HC61       -2.2940    2.4100    1.6540 hx        1 DO3      0.147450
     41 HC62       -2.5920    4.0750    1.0150 hx        1 DO3      0.147450
     42 HC71       -2.2940    1.0420    0.2370 hx        1 DO3      0.147450
     43 HC72       -2.3230    1.5400   -1.5150 hx        1 DO3      0.147450
     44 HC81        0.1780    1.0740   -1.7160 hx        1 DO3      0.132700
     45 HC82       -0.9480   -0.3480   -1.4330 hx        1 DO3      0.132700
     46 H101        0.5080   -1.5580    1.5450 hx        1 DO3      0.100950
     47 H102       -0.6630   -1.7960    0.1550 hx        1 DO3      0.100950
     48 H121        1.5230    3.2420    0.7930 hx        1 DO3      0.089700
     49 H122        3.3140    3.6130    0.7130 hx        1 DO3      0.089700
     50 H141       -0.4390    4.1630    4.8710 hx        1 DO3      0.100950
     51 H142       -1.7920    2.9980    4.4230 hx        1 DO3      0.100950
     52 HA          0.0250    4.2420   -2.5790 h1        1 DO3      0.101700
     53 H161       -2.4970    4.5650   -0.8380 hx        1 DO3      0.101200
     54 H162       -2.1000    3.3740   -2.1520 hx        1 DO3      0.101200
     55 H171       -1.5050    6.7040   -1.4200 hc        1 DO3      0.065700
     56 H172       -1.8510    5.9290   -3.0310 hc        1 DO3      0.065700
     57 H173       -0.2400    6.7070   -2.7130 hc        1 DO3      0.065700
     58 H11         0.2810    0.8840    0.9210 hn        1 DO3      0.467300
     59 H21         3.8250    1.8140    1.7510 hn        1 DO3      0.461800
     60 H31        -0.3850    2.0030    2.8570 hn        1 DO3      0.467300
     61 H41        -0.2270    2.9420   -0.2030 hn        1 DO3      0.472800
@<TRIPOS>BOND
     1    1    9 1   
     2    1   16 1   
     3    1   18 1   
     4    1   58 1   
     5    2   10 1   
     6    2   11 1   
     7    2   20 1   
     8    2   59 1   
     9    3   12 1   
    10    3   13 1   
    11    3   22 1   
    12    3   60 1   
    13    4   14 1   
    14    4   15 1   
    15    4   24 1   
    16    4   61 1   
    17    5   17 1   
    18    6   19 1   
    19    7   21 1   
    20    8   23 1   
    21    8   29 1   
    22    9   10 1   
    23    9   30 1   
    24    9   31 1   
    25   10   32 1   
    26   10   33 1   
    27   11   12 1   
    28   11   34 1   
    29   11   35 1   
    30   12   36 1   
    31   12   37 1   
    32   13   14 1   
    33   13   38 1   
    34   13   39 1   
    35   14   40 1   
    36   14   41 1   
    37   15   16 1   
    38   15   42 1   
    39   15   43 1   
    40   16   44 1   
    41   16   45 1   
    42   17   18 1   
    43   17   26 1   
    44   18   46 1   
    45   18   47 1   
    46   19   20 1   
    47   19   27 1   
    48   20   48 1   
    49   20   49 1   
    50   21   22 1   
    51   21   28 1   
    52   22   50 1   
    53   22   51 1   
    54   23   24 1   
    55   23   25 1   
    56   23   52 1   
    57   24   53 1   
    58   24   54 1   
    59   25   55 1   
    60   25   56 1   
    61   25   57 1   
@<TRIPOS>SUBSTRUCTURE
     1 DO3         1 TEMP              0 ****  ****    0 ROOT
