@<TRIPOS>MOLECULE
DO3
   57    57     1     0     0
SMALL
bcc


@<TRIPOS>ATOM
      1 N1         -0.4010   -2.4460   -0.7700 n3        1 DO3     -0.717100
      2 N2          2.8380   -1.5410    0.9490 n3        1 DO3     -0.717600
      3 N3          1.5780    2.0250    0.7000 n3        1 DO3     -0.717100
      4 N4         -2.0100    0.9090   -0.0700 n3        1 DO3     -0.750600
      5 O1         -0.4520   -4.1240   -3.2240 o         1 DO3     -0.863800
      6 O3          4.9480   -3.3540    2.1730 o         1 DO3     -0.862800
      7 O5          2.8470    4.6670    0.6590 o         1 DO3     -0.863800
      8 O7         -4.8300    0.8820   -0.9320 oh        1 DO3     -0.641800
      9 C1          1.1240   -2.4280   -0.6990 c3        1 DO3      0.149800
     10 C2          1.5920   -2.3650    0.8350 c3        1 DO3      0.144800
     11 C3          2.6130   -0.2080    0.3180 c3        1 DO3      0.144800
     12 C4          1.8100    0.7170    1.3170 c3        1 DO3      0.149800
     13 C5          0.2860    1.9910   -0.1360 c3        1 DO3      0.147300
     14 C6         -0.9320    1.5600    0.7810 c3        1 DO3      0.153800
     15 C7         -1.3930   -0.1290   -0.9770 c3        1 DO3      0.153800
     16 C8         -1.5680   -1.5530   -0.3450 c3        1 DO3      0.147300
     17 C9         -1.3030   -4.1060   -2.2980 c         1 DO3      0.915600
     18 C10        -0.8650   -3.8200   -0.8700 c3        1 DO3      0.062300
     19 C11         5.0670   -2.4590    1.2960 c         1 DO3      0.915600
     20 C12         3.9370   -2.2150    0.2900 c3        1 DO3      0.062800
     21 C13         2.6490    3.9520    1.6830 c         1 DO3      0.915600
     22 C14         1.4580    3.0240    1.7370 c3        1 DO3      0.062300
     23 C15        -4.1410    2.0070   -0.4560 c3        1 DO3      0.141100
     24 C16        -2.6730    1.9180   -0.8670 c3        1 DO3      0.123800
     25 C17        -4.7550    3.2550   -1.0390 c3        1 DO3     -0.092100
     26 O2         -2.5050   -4.4280   -2.5380 o         1 DO3     -0.863800
     27 O4          6.0940   -1.7140    1.2870 o         1 DO3     -0.862800
     28 O6          3.4150    4.0530    2.6830 o         1 DO3     -0.863800
     29 HO7        -5.6590    0.8960   -0.6310 ho        1 DO3      0.423000
     30 HC11        1.4790   -3.2420   -1.1150 h1        1 DO3      0.028950
     31 HC12        1.4650   -1.6400   -1.1780 h1        1 DO3      0.028950
     32 HC21        1.7700   -3.2750    1.1610 h1        1 DO3      0.045700
     33 HC22        0.8850   -1.9580    1.3740 h1        1 DO3      0.045700
     34 HC31        2.0980   -0.3200   -0.5100 h1        1 DO3      0.045700
     35 HC32        3.4830    0.2090    0.1110 h1        1 DO3      0.045700
     36 HC41        2.3310    0.8350    2.1450 h1        1 DO3      0.028950
     37 HC42        0.9520    0.3000    1.5290 h1        1 DO3      0.028950
     38 HC51        0.1120    2.8950   -0.5130 h1        1 DO3      0.054700
     39 HC52        0.3850    1.3550   -0.8570 h1        1 DO3      0.054700
     40 HC61       -0.6220    0.9250    1.4550 h1        1 DO3      0.040200
     41 HC62       -1.3020    2.3530    1.2260 h1        1 DO3      0.040200
     42 HC71       -1.8390   -0.1030   -1.8540 h1        1 DO3      0.040200
     43 HC72       -0.4490    0.0600   -1.0880 h1        1 DO3      0.040200
     44 HC81       -2.4170   -1.9500   -0.6590 h1        1 DO3      0.054700
     45 HC82       -1.5830   -1.4790    0.6190 h1        1 DO3      0.054700
     46 H101       -0.1380   -4.4300   -0.6230 h1        1 DO3      0.011450
     47 H102       -1.6230   -3.9530   -0.2630 h1        1 DO3      0.011450
     48 H121        3.6270   -3.0700   -0.0670 h1        1 DO3      0.011200
     49 H122        4.2690   -1.6560   -0.4430 h1        1 DO3      0.011200
     50 H141        0.6460    3.5330    1.6020 h1        1 DO3      0.011450
     51 H142        1.4260    2.5800    2.6180 h1        1 DO3      0.011450
     52 HA         -4.2040    2.0370    0.5120 h1        1 DO3      0.036700
     53 H161       -2.2400    2.7870   -0.7220 h1        1 DO3      0.064700
     54 H162       -2.6140    1.6780   -1.8160 h1        1 DO3      0.064700
     55 H171       -4.4670    3.3570   -1.9600 hc        1 DO3      0.031033
     56 H172       -5.7220    3.1840   -1.0100 hc        1 DO3      0.031033
     57 H173       -4.4750    4.0200   -0.5300 hc        1 DO3      0.031033
@<TRIPOS>BOND
     1    1    9 1   
     2    1   16 1   
     3    1   18 1   
     4    2   10 1   
     5    2   11 1   
     6    2   20 1   
     7    3   12 1   
     8    3   13 1   
     9    3   22 1   
    10    4   14 1   
    11    4   15 1   
    12    4   24 1   
    13    5   17 1   
    14    6   19 1   
    15    7   21 1   
    16    8   23 1   
    17    8   29 1   
    18    9   10 1   
    19    9   30 1   
    20    9   31 1   
    21   10   32 1   
    22   10   33 1   
    23   11   12 1   
    24   11   34 1   
    25   11   35 1   
    26   12   36 1   
    27   12   37 1   
    28   13   14 1   
    29   13   38 1   
    30   13   39 1   
    31   14   40 1   
    32   14   41 1   
    33   15   16 1   
    34   15   42 1   
    35   15   43 1   
    36   16   44 1   
    37   16   45 1   
    38   17   18 1   
    39   17   26 1   
    40   18   46 1   
    41   18   47 1   
    42   19   20 1   
    43   19   27 1   
    44   20   48 1   
    45   20   49 1   
    46   21   22 1   
    47   21   28 1   
    48   22   50 1   
    49   22   51 1   
    50   23   24 1   
    51   23   25 1   
    52   23   52 1   
    53   24   53 1   
    54   24   54 1   
    55   25   55 1   
    56   25   56 1   
    57   25   57 1   
@<TRIPOS>SUBSTRUCTURE
     1 DO3         1 TEMP              0 ****  ****    0 ROOT
