@<TRIPOS>MOLECULE
DO4
   14    13     1     0     0
SMALL
bcc


@<TRIPOS>ATOM
      1 O3          0.0230    0.3500   -0.1450 o         1 DO4     -0.569100
      2 C5          1.1530   -0.1150    0.0340 c         1 DO4      0.571900
      3 C4          1.8780   -0.0570    1.3370 c3        1 DO4     -0.195400
      4 C3          2.8520   -1.1990    1.5000 c3        1 DO4     -0.198400
      5 C2          3.8510   -0.9850    2.6120 c         1 DO4      0.468100
      6 O5          3.8740    0.0600    3.2710 o         1 DO4     -0.590100
      7 C1          4.8100   -2.1730    2.7960 c         1 DO4      0.856600
      8 O1          5.8400   -2.1840    2.0710 o         1 DO4     -0.810800
      9 O2          4.4690   -3.0630    3.6170 o         1 DO4     -0.810800
     10 H5          1.7040   -0.6050   -0.8030 h4        1 DO4     -0.015800
     11 H41         2.4400    0.9180    1.3830 hc        1 DO4      0.079700
     12 H42         1.1490   -0.0460    2.1900 hc        1 DO4      0.079700
     13 H31         3.4440   -1.3550    0.5580 hc        1 DO4      0.067700
     14 H32         2.3040   -2.1530    1.7180 hc        1 DO4      0.067700
@<TRIPOS>BOND
     1    1    2 2   
     2    2    3 1   
     3    2   10 1   
     4    3    4 1   
     5    3   11 1   
     6    3   12 1   
     7    4    5 1   
     8    4   13 1   
     9    4   14 1   
    10    5    6 2   
    11    5    7 1   
    12    7    8 1   
    13    7    9 1   
@<TRIPOS>SUBSTRUCTURE
     1 DO4         1 TEMP              0 ****  ****    0 ROOT
