@<TRIPOS>MOLECULE
DO4
   14    13     1     0     0
SMALL
bcc


@<TRIPOS>ATOM
      1 O3         -0.0300    0.3160   -0.0800 o         1 DO4     -0.569100
      2 C5          1.0990   -0.1620    0.0720 c         1 DO4      0.571900
      3 C4          1.8840   -0.0500    1.3350 c3        1 DO4     -0.195400
      4 C3          2.8410   -1.2040    1.5160 c3        1 DO4     -0.198400
      5 C2          3.8970   -0.9510    2.5670 c         1 DO4      0.468100
      6 O5          3.9730    0.1280    3.1640 o         1 DO4     -0.590100
      7 C1          4.8390   -2.1490    2.7720 c         1 DO4      0.856600
      8 O1          5.8330   -2.2240    2.0020 o         1 DO4     -0.810800
      9 O2          4.5200   -2.9840    3.6580 o         1 DO4     -0.810800
     10 H5          1.6010   -0.7070   -0.7620 h4        1 DO4     -0.015800
     11 H41         2.4670    0.9130    1.3030 hc        1 DO4      0.079700
     12 H42         1.1960    0.0230    2.2190 hc        1 DO4      0.079700
     13 H31         3.3850   -1.4250    0.5590 hc        1 DO4      0.067700
     14 H32         2.2860   -2.1320    1.8130 hc        1 DO4      0.067700
@<TRIPOS>BOND
     1    1    2 2   
     2    2    3 1   
     3    2   10 1   
     4    3    4 1   
     5    3   11 1   
     6    3   12 1   
     7    4    5 1   
     8    4   13 1   
     9    4   14 1   
    10    5    6 2   
    11    5    7 1   
    12    7    8 1   
    13    7    9 1   
@<TRIPOS>SUBSTRUCTURE
     1 DO4         1 TEMP              0 ****  ****    0 ROOT
