@<TRIPOS>MOLECULE
DO4
   14    13     1     0     0
SMALL
bcc


@<TRIPOS>ATOM
      1 O3         -4.0930   -0.0510    0.1820 o         1 DO4     -0.569100
      2 C5         -2.9720   -0.3950   -0.2070 c         1 DO4      0.571900
      3 C4         -1.7590    0.4680   -0.1090 c3        1 DO4     -0.195400
      4 C3         -0.4890   -0.3430   -0.0040 c3        1 DO4     -0.198400
      5 C2          0.7620    0.4610   -0.2690 c         1 DO4      0.468100
      6 O5          0.7120    1.6530   -0.5890 o         1 DO4     -0.590100
      7 C1          2.0500   -0.3660   -0.1170 c         1 DO4      0.856600
      8 O1          2.4280   -1.0120   -1.1300 o         1 DO4     -0.810800
      9 O2          2.5980   -0.3710    1.0160 o         1 DO4     -0.810800
     10 H5         -2.8160   -1.3950   -0.6750 h4        1 DO4     -0.015800
     11 H41        -1.7110    1.1130   -1.0310 hc        1 DO4      0.079700
     12 H42        -1.8440    1.1660    0.7650 hc        1 DO4      0.079700
     13 H31        -0.3930   -0.7900    1.0200 hc        1 DO4      0.067700
     14 H32        -0.4930   -1.1880   -0.7440 hc        1 DO4      0.067700
@<TRIPOS>BOND
     1    1    2 2   
     2    2    3 1   
     3    2   10 1   
     4    3    4 1   
     5    3   11 1   
     6    3   12 1   
     7    4    5 1   
     8    4   13 1   
     9    4   14 1   
    10    5    6 2   
    11    5    7 1   
    12    7    8 1   
    13    7    9 1   
@<TRIPOS>SUBSTRUCTURE
     1 DO4         1 TEMP              0 ****  ****    0 ROOT
