@<TRIPOS>MOLECULE
DO4
   14    12     1     0     0
SMALL
bcc


@<TRIPOS>ATOM
      1 O3         -2.4470    0.9240   -1.8050 o         1 DO4     -0.330000
      2 C5         -1.2330    0.9960   -1.8240 c1        1 DO4      0.190000
      3 C4         -0.4570    1.0410   -0.5260 c2        1 DO4     -0.224000
      4 C3          0.2550   -0.2770   -0.3170 c3        1 DO4     -0.227000
      5 C2          0.9030   -0.2900    1.0490 c2        1 DO4      0.179000
      6 O5          1.4430    0.7120    1.4740 o         1 DO4     -0.351000
      7 C1          0.8790   -1.5490    1.8870 c2        1 DO4      0.326000
      8 O1         -0.0510   -1.7370    2.7140 o         1 DO4     -0.545500
      9 O2          1.7900   -2.4090    1.7580 o         1 DO4     -0.545500
     10 H5         -0.7580    1.0240   -2.6790 ha        1 DO4      0.077000
     11 H41         0.2000    1.7640   -0.5640 ha        1 DO4      0.119000
     12 H42        -1.0740    1.2000    0.2170 ha        1 DO4      0.119000
     13 H31         0.9410   -0.3890   -1.0050 hc        1 DO4      0.107000
     14 H32        -0.3910   -1.0100   -0.3790 hc        1 DO4      0.107000
@<TRIPOS>BOND
     1    1    2 1   
     2    2   10 1   
     3    3    4 1   
     4    3   11 1   
     5    3   12 1   
     6    4    5 1   
     7    4   13 1   
     8    4   14 1   
     9    5    6 1   
    10    5    7 1   
    11    7    8 1   
    12    7    9 1   
@<TRIPOS>SUBSTRUCTURE
     1 DO4         1 TEMP              0 ****  ****    0 ROOT
