@<TRIPOS>MOLECULE
DO8
   32    32     1     0     0
SMALL
bcc


@<TRIPOS>ATOM
      1 C1         -3.6660   -1.9820    1.1140 c         1 DO8      0.924600
      2 O1A        -4.3900   -1.4050    1.9660 o         1 DO8     -0.840800
      3 O1B        -3.5920   -3.2360    0.9630 o         1 DO8     -0.840800
      4 C2         -2.8550   -1.1200    0.0830 c3        1 DO8      0.213600
      5 C3         -3.6610    0.1030   -0.3530 c3        1 DO8     -0.106400
      6 C4         -2.8310    1.0890   -1.1620 c3        1 DO8      0.118100
      7 O4         -3.5650    2.2900   -1.3790 oh        1 DO8     -0.638800
      8 C5         -1.4980    1.3840   -0.4420 c3        1 DO8      0.104100
      9 O5         -1.8020    2.1260    0.7290 oh        1 DO8     -0.640800
     10 C6         -0.7830    0.0510   -0.1830 c3        1 DO8      0.099100
     11 O6         -1.5970   -0.7820    0.6540 os        1 DO8     -0.418600
     12 C7          0.5980    0.2030    0.4870 c3        1 DO8      0.123100
     13 O7          0.5020    1.1210    1.5600 oh        1 DO8     -0.653800
     14 C8          1.6700    0.6110   -0.5650 c3        1 DO8      0.193400
     15 P1          4.2260    1.2880   -0.5160 p5        1 DO8      1.319900
     16 O2P         4.9540    2.0760    0.5370 o         1 DO8     -0.933500
     17 O3P         4.2140    1.8830   -1.8990 o         1 DO8     -0.933500
     18 O           2.5610    1.4930   -0.0140 os        1 DO8     -0.571200
     19 O1P         4.3920   -0.2080   -0.4700 o         1 DO8     -0.933500
     20 O2         -2.5420   -1.8890   -1.0630 oh        1 DO8     -0.656800
     21 H31        -4.5430   -0.2340   -0.9510 hc        1 DO8      0.054700
     22 H32        -4.0310    0.6000    0.5820 hc        1 DO8      0.054700
     23 H4         -2.6260    0.6860   -2.1910 h1        1 DO8      0.062700
     24 HO4        -3.5490    2.7680   -0.5400 ho        1 DO8      0.406000
     25 H5         -0.8520    2.0510   -1.0770 h1        1 DO8      0.072700
     26 HO5        -1.5610    1.5750    1.4880 ho        1 DO8      0.446000
     27 H6         -0.6370   -0.4680   -1.1730 h1        1 DO8      0.052700
     28 H7          0.8690   -0.7910    0.9430 h1        1 DO8      0.046700
     29 HO7         1.2090    1.7780    1.4420 ho        1 DO8      0.447000
     30 H81         2.1950   -0.3170   -0.9290 h1        1 DO8      0.003700
     31 H82         1.1220    1.0910   -1.4330 h1        1 DO8      0.003700
     32 HO2        -2.3680   -2.7880   -0.7450 ho        1 DO8      0.425000
@<TRIPOS>BOND
     1    1    2 1   
     2    1    3 1   
     3    1    4 1   
     4    4    5 1   
     5    4   11 1   
     6    4   20 1   
     7    5    6 1   
     8    5   21 1   
     9    5   22 1   
    10    6    7 1   
    11    6    8 1   
    12    6   23 1   
    13    7   24 1   
    14    8    9 1   
    15    8   10 1   
    16    8   25 1   
    17    9   26 1   
    18   10   11 1   
    19   10   12 1   
    20   10   27 1   
    21   12   13 1   
    22   12   14 1   
    23   12   28 1   
    24   13   29 1   
    25   14   18 1   
    26   14   30 1   
    27   14   31 1   
    28   15   16 1   
    29   15   17 1   
    30   15   18 1   
    31   15   19 1   
    32   20   32 1   
@<TRIPOS>SUBSTRUCTURE
     1 DO8         1 TEMP              0 ****  ****    0 ROOT
