@<TRIPOS>MOLECULE
DO8
   32    32     1     0     0
SMALL
bcc


@<TRIPOS>ATOM
      1 C1          1.4140   -0.1390    1.5350 c         1 DO8      0.922600
      2 O1A         1.3810    0.4950    2.6220 o         1 DO8     -0.842800
      3 O1B         2.4130   -0.7950    1.1180 o         1 DO8     -0.842800
      4 C2          0.1230   -0.2190    0.6460 c3        1 DO8      0.215600
      5 C3         -1.1330   -0.3260    1.5090 c3        1 DO8     -0.106400
      6 C4         -2.4160   -0.1520    0.7050 c3        1 DO8      0.118100
      7 O4         -3.5310   -0.0670    1.5840 oh        1 DO8     -0.637800
      8 C5         -2.3200    1.0990   -0.1920 c3        1 DO8      0.097100
      9 O5         -2.3280    2.2370    0.6580 oh        1 DO8     -0.637800
     10 C6         -1.0630    0.9740   -1.0600 c3        1 DO8      0.087100
     11 O6          0.1040    0.9030   -0.2270 os        1 DO8     -0.429600
     12 C7         -0.8740    2.1640   -2.0250 c3        1 DO8      0.127100
     13 O7         -1.2470    3.3710   -1.3920 oh        1 DO8     -0.641800
     14 C8         -1.6350    1.9440   -3.3610 c3        1 DO8      0.183400
     15 P1         -3.4420    3.1070   -4.8810 p5        1 DO8      1.317900
     16 O2P        -4.5340    4.0570   -4.4740 o         1 DO8     -0.933833
     17 O3P        -3.8810    1.8270   -5.5390 o         1 DO8     -0.933833
     18 O          -2.8650    2.5480   -3.3230 os        1 DO8     -0.572200
     19 O1P        -2.2080    3.7340   -5.4780 o         1 DO8     -0.933833
     20 O2          0.1850   -1.3460   -0.2080 oh        1 DO8     -0.654800
     21 H31        -1.0650    0.4790    2.2870 hc        1 DO8      0.053200
     22 H32        -1.1390   -1.3180    2.0240 hc        1 DO8      0.053200
     23 H4         -2.6130   -1.0590    0.0710 h1        1 DO8      0.064700
     24 HO4        -3.5350    0.8360    1.9280 ho        1 DO8      0.406000
     25 H5         -3.2260    1.2000   -0.8530 h1        1 DO8      0.102700
     26 HO5        -1.4400    2.6230    0.6280 ho        1 DO8      0.437000
     27 H6         -1.1360    0.0200   -1.6530 h1        1 DO8      0.056700
     28 H7          0.2300    2.2650   -2.2250 h1        1 DO8      0.040700
     29 HO7        -2.1680    3.5520   -1.6490 ho        1 DO8      0.446000
     30 H81        -1.0150    2.3790   -4.1980 h1        1 DO8      0.008200
     31 H82        -1.7290    0.8290   -3.5190 h1        1 DO8      0.008200
     32 HO2         1.1150   -1.4400   -0.4630 ho        1 DO8      0.422000
@<TRIPOS>BOND
     1    1    2 1   
     2    1    3 1   
     3    1    4 1   
     4    4    5 1   
     5    4   11 1   
     6    4   20 1   
     7    5    6 1   
     8    5   21 1   
     9    5   22 1   
    10    6    7 1   
    11    6    8 1   
    12    6   23 1   
    13    7   24 1   
    14    8    9 1   
    15    8   10 1   
    16    8   25 1   
    17    9   26 1   
    18   10   11 1   
    19   10   12 1   
    20   10   27 1   
    21   12   13 1   
    22   12   14 1   
    23   12   28 1   
    24   13   29 1   
    25   14   18 1   
    26   14   30 1   
    27   14   31 1   
    28   15   16 1   
    29   15   17 1   
    30   15   18 1   
    31   15   19 1   
    32   20   32 1   
@<TRIPOS>SUBSTRUCTURE
     1 DO8         1 TEMP              0 ****  ****    0 ROOT
