@<TRIPOS>MOLECULE
DO8
   32    30     1     0     0
SMALL
bcc


@<TRIPOS>ATOM
      1 C1          3.2560   -1.1410    0.5850 c1        1 DO8      0.344000
      2 O1A         3.8660   -1.5500   -0.4410 os        1 DO8     -0.922000
      3 O1B         3.9200   -0.6620    1.5830 o         1 DO8     -0.563000
      4 C2          1.7440   -1.2740    0.6750 c3        1 DO8      0.120000
      5 C3          1.2660   -1.2510    2.1470 c3        1 DO8     -0.185000
      6 C4         -0.2070   -1.2590    2.2770 c3        1 DO8      0.007000
      7 O4         -0.5540   -1.0730    3.6830 oh        1 DO8     -0.366000
      8 C5         -0.8610   -0.1880    1.4790 c3        1 DO8     -0.007000
      9 O5         -0.5390    1.0900    2.0720 oh        1 DO8     -0.368000
     10 C6         -0.4310   -0.1740    0.0540 c3        1 DO8     -0.012000
     11 O6          1.0320   -0.1570   -0.1020 os        1 DO8     -0.275000
     12 C7         -1.0060    1.0650   -0.6100 c3        1 DO8      0.012000
     13 O7         -2.4010    1.0450   -0.5040 oh        1 DO8     -0.381000
     14 C8         -0.6070    1.0890   -2.0670 c3        1 DO8      0.043000
     15 P1         -1.2130    2.2390   -4.2710 p3        1 DO8      2.512000
     16 O2P         0.2000    2.5590   -4.7180 os        1 DO8     -0.922000
     17 O3P        -1.6420    0.8830   -4.8630 o         1 DO8     -1.251500
     18 O          -1.2600    2.1670   -2.7150 os        1 DO8     -0.734000
     19 O1P        -2.1620    3.3320   -4.7610 o         1 DO8     -1.251500
     20 O2          1.5470   -2.4980    0.0960 oh        1 DO8     -0.384000
     21 H31         1.6380   -2.0650    2.6210 hc        1 DO8      0.094000
     22 H32         1.6180   -0.4430    2.5840 hc        1 DO8      0.094000
     23 H4         -0.5340   -2.0980    1.9880 h1        1 DO8      0.102000
     24 HO4        -0.9100   -1.8020    3.9920 ho        1 DO8      0.205000
     25 H5         -1.8440   -0.3170    1.5160 h1        1 DO8      0.112000
     26 HO5        -1.2280    1.3630    2.5870 ho        1 DO8      0.245000
     27 H6         -0.7860   -0.9610   -0.3890 h1        1 DO8      0.092000
     28 H7         -0.6360    1.9130   -0.1380 h1        1 DO8      0.086000
     29 HO7        -2.6970    1.8630   -0.3460 ho        1 DO8      0.246000
     30 H81        -0.8710    0.2350   -2.4960 h1        1 DO8      0.043000
     31 H82         0.4030    1.2080   -2.1430 h1        1 DO8      0.043000
     32 HO2         1.8990   -3.1380    0.6220 ho        1 DO8      0.224000
@<TRIPOS>BOND
     1    1    3 1   
     2    1    4 1   
     3    4    5 1   
     4    4   11 1   
     5    4   20 1   
     6    5    6 1   
     7    5   21 1   
     8    5   22 1   
     9    6    7 1   
    10    6    8 1   
    11    6   23 1   
    12    7   24 1   
    13    8    9 1   
    14    8   10 1   
    15    8   25 1   
    16    9   26 1   
    17   10   11 1   
    18   10   12 1   
    19   10   27 1   
    20   12   13 1   
    21   12   14 1   
    22   12   28 1   
    23   13   29 1   
    24   14   18 1   
    25   14   30 1   
    26   14   31 1   
    27   15   17 1   
    28   15   18 1   
    29   15   19 1   
    30   20   32 1   
@<TRIPOS>SUBSTRUCTURE
     1 DO8         1 TEMP              0 ****  ****    0 ROOT
