@<TRIPOS>MOLECULE
DO8
   32    32     1     0     0
SMALL
bcc


@<TRIPOS>ATOM
      1 C1          1.4370   -0.0330    1.5600 c         1 DO8      0.922600
      2 O1A         1.3440    0.5680    2.6630 o         1 DO8     -0.842800
      3 O1B         2.4820   -0.6160    1.1480 o         1 DO8     -0.842800
      4 C2          0.1710   -0.1660    0.6430 c3        1 DO8      0.215600
      5 C3         -1.0940   -0.3730    1.4760 c3        1 DO8     -0.106400
      6 C4         -2.3680   -0.2540    0.6500 c3        1 DO8      0.118100
      7 O4         -3.5040   -0.2600    1.5070 oh        1 DO8     -0.637800
      8 C5         -2.3320    1.0250   -0.2110 c3        1 DO8      0.097100
      9 O5         -2.4250    2.1370    0.6680 oh        1 DO8     -0.637800
     10 C6         -1.0520    1.0000   -1.0560 c3        1 DO8      0.087100
     11 O6          0.1000    0.9760   -0.2000 os        1 DO8     -0.429600
     12 C7         -0.9170    2.2260   -1.9840 c3        1 DO8      0.127100
     13 O7         -1.3760    3.3900   -1.3280 oh        1 DO8     -0.641800
     14 C8         -1.6370    1.9970   -3.3420 c3        1 DO8      0.183400
     15 P1         -3.4810    3.0920   -4.8700 p5        1 DO8      1.317900
     16 O2P        -4.6360    3.9620   -4.4610 o         1 DO8     -0.933833
     17 O3P        -3.8270    1.8060   -5.5710 o         1 DO8     -0.933833
     18 O          -2.9020    2.5250   -3.3140 os        1 DO8     -0.572200
     19 O1P        -2.2750    3.8080   -5.4230 o         1 DO8     -0.933833
     20 O2          0.3180   -1.2630   -0.2390 oh        1 DO8     -0.654800
     21 H31        -1.0490   -1.3770    1.9640 hc        1 DO8      0.053200
     22 H32        -1.0900    0.4140    2.2760 hc        1 DO8      0.053200
     23 H4         -2.4980   -1.1530   -0.0110 h1        1 DO8      0.064700
     24 HO4        -3.5690    0.6310    1.8750 ho        1 DO8      0.406000
     25 H5         -3.2290    1.0890   -0.8890 h1        1 DO8      0.102700
     26 HO5        -1.5620    2.5760    0.6660 ho        1 DO8      0.437000
     27 H6         -1.0550    0.0600   -1.6750 h1        1 DO8      0.056700
     28 H7          0.1820    2.3980   -2.1590 h1        1 DO8      0.040700
     29 HO7        -2.3010    3.5220   -1.6000 ho        1 DO8      0.446000
     30 H81        -1.6610    0.8830   -3.5310 h1        1 DO8      0.008200
     31 H82        -1.0280    2.4910   -4.1540 h1        1 DO8      0.008200
     32 HO2         1.2570   -1.2940   -0.4760 ho        1 DO8      0.422000
@<TRIPOS>BOND
     1    1    2 1   
     2    1    3 1   
     3    1    4 1   
     4    4    5 1   
     5    4   11 1   
     6    4   20 1   
     7    5    6 1   
     8    5   21 1   
     9    5   22 1   
    10    6    7 1   
    11    6    8 1   
    12    6   23 1   
    13    7   24 1   
    14    8    9 1   
    15    8   10 1   
    16    8   25 1   
    17    9   26 1   
    18   10   11 1   
    19   10   12 1   
    20   10   27 1   
    21   12   13 1   
    22   12   14 1   
    23   12   28 1   
    24   13   29 1   
    25   14   18 1   
    26   14   30 1   
    27   14   31 1   
    28   15   16 1   
    29   15   17 1   
    30   15   18 1   
    31   15   19 1   
    32   20   32 1   
@<TRIPOS>SUBSTRUCTURE
     1 DO8         1 TEMP              0 ****  ****    0 ROOT
