@<TRIPOS>MOLECULE
DOA
   39    38     1     0     0
SMALL
bcc


@<TRIPOS>ATOM
      1 N          -6.1550   -0.2460   -4.0090 n3        1 DOA     -0.915800
      2 CA         -4.7550    0.0230   -3.9750 c3        1 DOA      0.156800
      3 C2         -4.2030   -0.3490   -2.6160 c3        1 DOA     -0.083400
      4 C3         -2.7460    0.0480   -2.5380 c3        1 DOA     -0.079400
      5 C4         -2.1840   -0.3570   -1.1930 c3        1 DOA     -0.079400
      6 C5         -0.7520    0.1170   -1.0810 c3        1 DOA     -0.078400
      7 C6         -0.1900   -0.2890    0.2640 c3        1 DOA     -0.079400
      8 C7          1.2210    0.2390    0.4010 c3        1 DOA     -0.078400
      9 C8          1.7960   -0.1990    1.7300 c3        1 DOA     -0.078400
     10 C9          3.1620    0.4250    1.9190 c3        1 DOA     -0.078400
     11 C10         3.7870   -0.1050    3.1900 c3        1 DOA     -0.065400
     12 CA2         5.1190    0.5750    3.4190 c3        1 DOA     -0.194400
     13 C           5.7530    0.0310    4.6800 c         1 DOA      0.907600
     14 O           6.4970   -0.9830    4.6240 o         1 DOA     -0.853300
     15 OXT         5.5390    0.5940    5.7860 o         1 DOA     -0.853300
     16 H          -6.6110    0.5310   -4.1750 hn        1 DOA      0.344300
     17 H2         -6.3330   -0.8520   -4.6730 hn        1 DOA      0.344300
     18 HA1        -4.6020    0.9760   -4.1400 h1        1 DOA      0.023700
     19 HA2        -4.3040   -0.5050   -4.6660 h1        1 DOA      0.023700
     20 H21        -4.7070    0.1190   -1.9210 hc        1 DOA      0.045700
     21 H22        -4.2860   -1.3150   -2.4850 hc        1 DOA      0.045700
     22 H31        -2.2460   -0.4010   -3.2490 hc        1 DOA      0.038700
     23 H32        -2.6660    1.0170   -2.6460 hc        1 DOA      0.038700
     24 H41        -2.2130   -1.3310   -1.1080 hc        1 DOA      0.039700
     25 H42        -2.7190    0.0480   -0.4810 hc        1 DOA      0.039700
     26 H51        -0.2180   -0.2870   -1.7930 hc        1 DOA      0.037200
     27 H52        -0.7240    1.0920   -1.1650 hc        1 DOA      0.037200
     28 H61        -0.1820   -1.2640    0.3330 hc        1 DOA      0.037700
     29 H62        -0.7480    0.0830    0.9760 hc        1 DOA      0.037700
     30 H71         1.2090    1.2160    0.3570 hc        1 DOA      0.034200
     31 H72         1.7730   -0.1140   -0.3250 hc        1 DOA      0.034200
     32 H81         1.8780   -1.1730    1.7450 hc        1 DOA      0.036700
     33 H82         1.2030    0.0900    2.4530 hc        1 DOA      0.036700
     34 H91         3.0710    1.3970    1.9810 hc        1 DOA      0.025700
     35 H92         3.7310    0.1990    1.1560 hc        1 DOA      0.025700
     36 H101        3.1940    0.0770    3.9460 hc        1 DOA      0.043700
     37 H102        3.9240   -1.0700    3.1080 hc        1 DOA      0.043700
     38 HA21        4.9800    1.5390    3.5130 hc        1 DOA      0.018700
     39 HA22        5.7080    0.4030    2.6570 hc        1 DOA      0.018700
@<TRIPOS>BOND
     1    1    2 1   
     2    1   16 1   
     3    1   17 1   
     4    2    3 1   
     5    2   18 1   
     6    2   19 1   
     7    3    4 1   
     8    3   20 1   
     9    3   21 1   
    10    4    5 1   
    11    4   22 1   
    12    4   23 1   
    13    5    6 1   
    14    5   24 1   
    15    5   25 1   
    16    6    7 1   
    17    6   26 1   
    18    6   27 1   
    19    7    8 1   
    20    7   28 1   
    21    7   29 1   
    22    8    9 1   
    23    8   30 1   
    24    8   31 1   
    25    9   10 1   
    26    9   32 1   
    27    9   33 1   
    28   10   11 1   
    29   10   34 1   
    30   10   35 1   
    31   11   12 1   
    32   11   36 1   
    33   11   37 1   
    34   12   13 1   
    35   12   38 1   
    36   12   39 1   
    37   13   14 1   
    38   13   15 1   
@<TRIPOS>SUBSTRUCTURE
     1 DOA         1 TEMP              0 ****  ****    0 ROOT
