@<TRIPOS>MOLECULE
DOA
   39    38     1     0     0
SMALL
bcc


@<TRIPOS>ATOM
      1 N          -0.3800    0.0320    8.5750 n3        1 DOA     -0.915800
      2 CA          0.3930    0.0860    7.3560 c3        1 DOA      0.156800
      3 C2         -0.4520   -0.0290    6.0890 c3        1 DOA     -0.083400
      4 C3          0.4350    0.0020    4.8640 c3        1 DOA     -0.079400
      5 C4         -0.3830   -0.0820    3.5930 c3        1 DOA     -0.079400
      6 C5          0.5020   -0.0350    2.3650 c3        1 DOA     -0.078400
      7 C6         -0.3160   -0.0950    1.0930 c3        1 DOA     -0.079400
      8 C7          0.5680   -0.0370   -0.1340 c3        1 DOA     -0.078400
      9 C8         -0.2500   -0.0770   -1.4080 c3        1 DOA     -0.078400
     10 C9          0.6320   -0.0150   -2.6360 c3        1 DOA     -0.078400
     11 C10        -0.1880   -0.0320   -3.9090 c3        1 DOA     -0.065400
     12 CA2         0.6830    0.0140   -5.1410 c3        1 DOA     -0.193400
     13 C          -0.1590    0.1960   -6.4160 c         1 DOA      0.907600
     14 O          -1.0680    1.0770   -6.4200 o         1 DOA     -0.853300
     15 OXT         0.1140   -0.5360   -7.4110 o         1 DOA     -0.853300
     16 H          -1.1820    0.6280    8.5190 hn        1 DOA      0.344300
     17 H2          0.1820    0.3130    9.3540 hn        1 DOA      0.344300
     18 HA1         1.0070    1.0330    7.2790 h1        1 DOA      0.024200
     19 HA2         1.1210   -0.7740    7.3870 h1        1 DOA      0.024200
     20 H21        -1.0390   -0.9850    6.1070 hc        1 DOA      0.045700
     21 H22        -1.1890    0.8150    6.0410 hc        1 DOA      0.045700
     22 H31         1.0400    0.9470    4.8580 hc        1 DOA      0.039200
     23 H32         1.1600   -0.8540    4.9010 hc        1 DOA      0.039200
     24 H41        -0.9800   -1.0310    3.5910 hc        1 DOA      0.039700
     25 H42        -1.1150    0.7680    3.5600 hc        1 DOA      0.039700
     26 H51         1.1110    0.9070    2.3760 hc        1 DOA      0.036700
     27 H52         1.2230   -0.8940    2.3890 hc        1 DOA      0.036700
     28 H61        -0.9200   -1.0400    1.0770 hc        1 DOA      0.038200
     29 H62        -1.0420    0.7610    1.0720 hc        1 DOA      0.038200
     30 H71         1.1810    0.9020   -0.1120 hc        1 DOA      0.034200
     31 H72         1.2860   -0.8990   -0.1210 hc        1 DOA      0.034200
     32 H81        -0.8610   -1.0180   -1.4320 hc        1 DOA      0.036700
     33 H82        -0.9690    0.7840   -1.4200 hc        1 DOA      0.036700
     34 H91         1.2540    0.9180   -2.6030 hc        1 DOA      0.025700
     35 H92         1.3420   -0.8830   -2.6330 hc        1 DOA      0.025700
     36 H101       -0.8210   -0.9570   -3.9340 hc        1 DOA      0.044200
     37 H102       -0.8860    0.8470   -3.9310 hc        1 DOA      0.044200
     38 HA21        1.3930    0.8770   -5.0750 hc        1 DOA      0.018700
     39 HA22        1.2880   -0.9230   -5.2260 hc        1 DOA      0.018700
@<TRIPOS>BOND
     1    1    2 1   
     2    1   16 1   
     3    1   17 1   
     4    2    3 1   
     5    2   18 1   
     6    2   19 1   
     7    3    4 1   
     8    3   20 1   
     9    3   21 1   
    10    4    5 1   
    11    4   22 1   
    12    4   23 1   
    13    5    6 1   
    14    5   24 1   
    15    5   25 1   
    16    6    7 1   
    17    6   26 1   
    18    6   27 1   
    19    7    8 1   
    20    7   28 1   
    21    7   29 1   
    22    8    9 1   
    23    8   30 1   
    24    8   31 1   
    25    9   10 1   
    26    9   32 1   
    27    9   33 1   
    28   10   11 1   
    29   10   34 1   
    30   10   35 1   
    31   11   12 1   
    32   11   36 1   
    33   11   37 1   
    34   12   13 1   
    35   12   38 1   
    36   12   39 1   
    37   13   14 1   
    38   13   15 1   
@<TRIPOS>SUBSTRUCTURE
     1 DOA         1 TEMP              0 ****  ****    0 ROOT
