@<TRIPOS>MOLECULE
DOB
   16    13     1     0     0
SMALL
bcc


@<TRIPOS>ATOM
      1 C1'         1.0850   -0.1460    2.3200 c1        1 DOB      0.368000
      2 O1'         1.3850   -1.2830    2.7700 o         1 DOB     -0.592000
      3 O2'         1.4120    0.8890    2.9580 os        1 DOB     -0.548000
      4 C1          0.3410   -0.0240    1.0080 c2        1 DOB     -0.222000
      5 C2          1.0440    0.1630   -0.1720 c2        1 DOB      0.161000
      6 C3          0.3630    0.2850   -1.3720 c1        1 DOB     -0.235000
      7 C4         -1.0210    0.2210   -1.3930 c1        1 DOB      0.082000
      8 C5         -1.7240    0.0350   -0.2140 c1        1 DOB     -0.285000
      9 C6         -1.0430   -0.0880    0.9870 c1        1 DOB     -0.036000
     10 O2          2.4490    0.2410   -0.1490 oh        1 DOB     -0.304000
     11 O4         -1.7140    0.3700   -2.6090 oh        1 DOB     -0.276000
     12 H3          0.8580    0.4170   -2.2030 ha        1 DOB      0.140000
     13 H5         -2.6990   -0.0100   -0.2280 ha        1 DOB      0.109000
     14 H6         -1.5380   -0.2190    1.8180 ha        1 DOB      0.154000
     15 HO2         2.7910   -0.4250   -0.6280 ho        1 DOB      0.284000
     16 HO4        -1.9880   -0.4260   -2.8940 ho        1 DOB      0.200000
@<TRIPOS>BOND
     1    1    2 1   
     2    1    4 1   
     3    4    5 1   
     4    4    9 1   
     5    5    6 1   
     6    5   10 1   
     7    6   12 1   
     8    7    8 1   
     9    7   11 1   
    10    8   13 1   
    11    9   14 1   
    12   10   15 1   
    13   11   16 1   
@<TRIPOS>SUBSTRUCTURE
     1 DOB         1 TEMP              0 ****  ****    0 ROOT
