@<TRIPOS>MOLECULE
DOB
   16    16     1     0     0
SMALL
bcc


@<TRIPOS>ATOM
      1 C1'         0.2370   -0.0440    2.0690 c         1 DOB      0.919200
      2 O1'        -0.8690   -0.1150    2.6910 o         1 DOB     -0.835800
      3 O2'         1.3500    0.0490    2.6550 o         1 DOB     -0.835800
      4 C1          0.2190   -0.0720    0.5550 ca        1 DOB     -0.241600
      5 C2         -0.9720   -0.1730   -0.1940 ca        1 DOB      0.211100
      6 C3         -0.9380   -0.1950   -1.6020 ca        1 DOB     -0.291000
      7 C4          0.2990   -0.1140   -2.2470 ca        1 DOB      0.128100
      8 C5          1.4940   -0.0130   -1.5240 ca        1 DOB     -0.230000
      9 C6          1.4310    0.0060   -0.1320 ca        1 DOB     -0.042000
     10 O2         -2.2200   -0.2560    0.3550 oh        1 DOB     -0.553100
     11 O4          0.4010   -0.1310   -3.6270 oh        1 DOB     -0.523100
     12 H3         -1.8740   -0.2740   -2.1680 ha        1 DOB      0.125000
     13 H5          2.4520    0.0480   -2.0550 ha        1 DOB      0.125000
     14 H6          2.3550    0.0850    0.4670 ha        1 DOB      0.155000
     15 HO2        -2.1390   -0.2330    1.3350 ho        1 DOB      0.485000
     16 HO4        -0.4960   -0.2030   -3.9800 ho        1 DOB      0.402000
@<TRIPOS>BOND
     1    1    2 1   
     2    1    3 1   
     3    1    4 1   
     4    4    5 ar  
     5    4    9 ar  
     6    5    6 ar  
     7    5   10 1   
     8    6    7 ar  
     9    6   12 1   
    10    7    8 ar  
    11    7   11 1   
    12    8    9 ar  
    13    8   13 1   
    14    9   14 1   
    15   10   15 1   
    16   11   16 1   
@<TRIPOS>SUBSTRUCTURE
     1 DOB         1 TEMP              0 ****  ****    0 ROOT
