@<TRIPOS>MOLECULE
DOB
   16    16     1     0     0
SMALL
bcc


@<TRIPOS>ATOM
      1 C1'         0.0810    0.2050   -0.0490 c         1 DOB      0.919200
      2 O1'         1.3500    0.2550   -0.1180 o         1 DOB     -0.835800
      3 O2'        -0.5490    0.2570    1.0420 o         1 DOB     -0.835800
      4 C1         -0.7090    0.0790   -1.3350 ca        1 DOB     -0.241600
      5 C2         -0.0980    0.0140   -2.6040 ca        1 DOB      0.211100
      6 C3         -0.8760   -0.1030   -3.7730 ca        1 DOB     -0.291000
      7 C4         -2.2680   -0.1540   -3.6520 ca        1 DOB      0.128100
      8 C5         -2.8960   -0.0910   -2.4020 ca        1 DOB     -0.230000
      9 C6         -2.1010    0.0250   -1.2630 ca        1 DOB     -0.042000
     10 O2          1.2510    0.0570   -2.8110 oh        1 DOB     -0.553100
     11 O4         -3.0890   -0.2690   -4.7610 oh        1 DOB     -0.523100
     12 H3         -0.3850   -0.1520   -4.7510 ha        1 DOB      0.125000
     13 H5         -3.9890   -0.1330   -2.3360 ha        1 DOB      0.125000
     14 H6         -2.5650    0.0770   -0.2630 ha        1 DOB      0.155000
     15 HO2         1.7040    0.1390   -1.9420 ho        1 DOB      0.485000
     16 HO4        -2.5160   -0.3000   -5.5390 ho        1 DOB      0.402000
@<TRIPOS>BOND
     1    1    2 1   
     2    1    3 1   
     3    1    4 1   
     4    4    5 ar  
     5    4    9 ar  
     6    5    6 ar  
     7    5   10 1   
     8    6    7 ar  
     9    6   12 1   
    10    7    8 ar  
    11    7   11 1   
    12    8    9 ar  
    13    8   13 1   
    14    9   14 1   
    15   10   15 1   
    16   11   16 1   
@<TRIPOS>SUBSTRUCTURE
     1 DOB         1 TEMP              0 ****  ****    0 ROOT
