@<TRIPOS>MOLECULE
DOC
   31    31     1     0     0
SMALL
bcc


@<TRIPOS>ATOM
      1 N1          0.2460    1.5010    0.0650 n         1 DOC     -0.247000
      2 C2         -0.4860    1.2550    1.3060 c2        1 DOC      0.335000
      3 N3          0.2300    1.1990    2.5790 n2        1 DOC     -0.349000
      4 C4          1.6460    1.2980    2.6040 c1        1 DOC      0.170000
      5 C5          2.3900    1.4660    1.3490 c1        1 DOC     -0.388000
      6 C6          1.6640    1.5590    0.0760 c2        1 DOC      0.096000
      7 O2         -1.6980    1.1710    1.2880 o         1 DOC     -0.433000
      8 N4          2.3330    1.3230    3.8450 n3        1 DOC     -0.328000
      9 C1'        -0.4730    1.6260   -1.1870 c3        1 DOC      0.152000
     10 C2'         0.2440    0.7850   -2.3180 c3        1 DOC     -0.188000
     11 C3'        -0.6320   -0.4070   -2.5460 c3        1 DOC     -0.206000
     12 C4'        -1.4850   -0.3980   -1.5430 c3        1 DOC     -0.003000
     13 O4'        -1.6210    1.1240   -1.0820 os        1 DOC     -0.293000
     14 C5'        -0.9580   -1.2360   -0.4100 c3        1 DOC      0.064000
     15 O5'        -0.9680   -2.5940   -0.7870 os        1 DOC     -0.737000
     16 P          -1.5660   -3.6510    0.2230 p5        1 DOC      1.552500
     17 OP1        -2.9460   -3.2120    0.6530 o         1 DOC     -0.909500
     18 OP2        -0.6700   -3.7520    1.4340 o         1 DOC     -0.909500
     19 OP3        -1.6540   -4.9980   -0.4520 o         1 DOC     -0.909500
     20 H5          3.3580    1.5900    1.3690 ha        1 DOC      0.161000
     21 H6          2.1550    1.6710   -0.7600 h4        1 DOC      0.329000
     22 HN41        3.2440    1.3820    3.8620 hn        1 DOC      0.174000
     23 HN42        1.8640    1.2810    4.6290 hn        1 DOC      0.174000
     24 H1'        -0.5360    2.5650   -1.4510 h2        1 DOC      0.112000
     25 H2'         1.1310    0.5000   -2.0170 hc        1 DOC      0.105000
     26 H2''        0.3170    1.3130   -3.1380 hc        1 DOC      0.105000
     27 H3'1       -0.1000   -1.2280   -2.5330 hc        1 DOC      0.121000
     28 H3'2       -1.1080   -0.3210   -3.3980 hc        1 DOC      0.121000
     29 H4'        -2.3530   -0.7380   -1.8380 h1        1 DOC      0.045000
     30 H5'        -0.0410   -0.9620   -0.2000 h1        1 DOC      0.043000
     31 H5''       -1.5250   -1.1120    0.3780 h1        1 DOC      0.043000
@<TRIPOS>BOND
     1    1    2 1   
     2    1    6 1   
     3    1    9 1   
     4    2    3 1   
     5    2    7 1   
     6    3    4 1   
     7    4    8 1   
     8    5    6 1   
     9    5   20 1   
    10    6   21 1   
    11    8   22 1   
    12    8   23 1   
    13    9   10 1   
    14    9   13 1   
    15    9   24 1   
    16   10   11 1   
    17   10   25 1   
    18   10   26 1   
    19   11   12 1   
    20   11   27 1   
    21   11   28 1   
    22   12   13 1   
    23   12   14 1   
    24   12   29 1   
    25   14   15 1   
    26   14   30 1   
    27   14   31 1   
    28   15   16 1   
    29   16   17 1   
    30   16   18 1   
    31   16   19 1   
@<TRIPOS>SUBSTRUCTURE
     1 DOC         1 TEMP              0 ****  ****    0 ROOT
