@<TRIPOS>MOLECULE
DOC
   31    32     1     0     0
SMALL
bcc


@<TRIPOS>ATOM
      1 N1         -0.9100    0.1850    2.7840 n         1 DOC     -0.325400
      2 C2         -1.4040   -0.3870    4.0140 c         1 DOC      0.750500
      3 N3         -0.6240   -0.3440    5.1700 ne        1 DOC     -0.808100
      4 C4          0.6020    0.2410    5.0860 cf        1 DOC      0.664500
      5 C5          1.0790    0.8520    3.8980 cf        1 DOC     -0.589700
      6 C6          0.2990    0.8030    2.7270 c1        1 DOC     -0.088900
      7 O2         -2.5670   -0.8820    4.0460 o         1 DOC     -0.708100
      8 N4          1.4390    0.2130    6.2390 nh        1 DOC     -0.883800
      9 C1'        -1.7410    0.0930    1.5960 c3        1 DOC      0.319500
     10 C2'        -1.7030    1.3350    0.6760 c3        1 DOC     -0.108400
     11 C3'        -1.7900    0.7820   -0.7350 c3        1 DOC     -0.109400
     12 C4'        -1.4610   -0.7070   -0.6160 c3        1 DOC      0.128100
     13 O4'        -1.3660   -1.0450    0.7760 os        1 DOC     -0.434600
     14 C5'        -0.1510   -1.1090   -1.3140 c3        1 DOC      0.187400
     15 O5'        -0.4250   -1.6430   -2.5760 os        1 DOC     -0.583200
     16 P           0.1570   -0.8380   -3.8880 p5        1 DOC      1.429800
     17 OP1         1.7620   -1.0380   -3.6220 oh        1 DOC     -0.787400
     18 OP2        -0.2580   -1.5730   -5.0980 o         1 DOC     -0.845500
     19 OP3        -0.0120    0.6150   -3.6480 o         1 DOC     -0.845500
     20 H5          2.0570    1.3350    3.8510 ha        1 DOC      0.109000
     21 H6          2.1390   -0.2840   -3.1830 ho        1 DOC      0.422000
     22 HN41        0.9510    0.0130    7.0870 hn        1 DOC      0.352800
     23 HN42        1.9570    1.0620    6.3160 hn        1 DOC      0.352800
     24 H1'        -2.8010   -0.1210    1.9330 h2        1 DOC      0.061700
     25 H2'        -2.5590    2.0100    0.9140 hc        1 DOC      0.056700
     26 H2''       -0.7470    1.9010    0.8220 hc        1 DOC      0.056700
     27 H3'1       -2.8210    0.9120   -1.1500 hc        1 DOC      0.057700
     28 H3'2       -1.0810    1.2970   -1.4320 hc        1 DOC      0.057700
     29 H4'        -2.2960   -1.3370   -1.0320 h1        1 DOC      0.043700
     30 H5'         0.5360   -0.2240   -1.4060 h1        1 DOC      0.034200
     31 H5''        0.3460   -1.9070   -0.6940 h1        1 DOC      0.034200
@<TRIPOS>BOND
     1    1    2 1   
     2    1    6 2   
     3    1    9 1   
     4    2    3 1   
     5    2    7 2   
     6    3    4 2   
     7    4    5 1   
     8    4    8 1   
     9    5    6 2   
    10    5   20 1   
    11    8   22 1   
    12    8   23 1   
    13    9   10 1   
    14    9   13 1   
    15    9   24 1   
    16   10   11 1   
    17   10   25 1   
    18   10   26 1   
    19   11   12 1   
    20   11   27 1   
    21   11   28 1   
    22   12   13 1   
    23   12   14 1   
    24   12   29 1   
    25   14   15 1   
    26   14   30 1   
    27   14   31 1   
    28   15   16 1   
    29   16   17 1   
    30   16   18 1   
    31   16   19 1   
    32   17   21 1   
@<TRIPOS>SUBSTRUCTURE
     1 DOC         1 TEMP              0 ****  ****    0 ROOT
