@<TRIPOS>MOLECULE
DOD
    3     2     1     0     0
SMALL
bcc


@<TRIPOS>ATOM
      1 O          -0.0000   -0.0750   -0.0000 oh        1 DOD     -0.785000
      2 D1         -0.7550    0.5200   -0.0000 ho        1 DOD      0.392000
      3 D2          0.7550    0.5200    0.0000 ho        1 DOD      0.392000
@<TRIPOS>BOND
     1    1    2 1   
     2    1    3 1   
@<TRIPOS>SUBSTRUCTURE
     1 DOD         1 TEMP              0 ****  ****    0 ROOT
