@<TRIPOS>MOLECULE
DOD
    3     2     1     0     0
SMALL
bcc


@<TRIPOS>ATOM
      1 O          -0.0190    0.0000   -0.0270 oh        1 DOD     -0.785000
      2 D1          0.9410   -0.0000    0.0240 ho        1 DOD      0.392000
      3 D2         -0.2930   -0.0000    0.8940 ho        1 DOD      0.392000
@<TRIPOS>BOND
     1    1    2 1   
     2    1    3 1   
@<TRIPOS>SUBSTRUCTURE
     1 DOD         1 TEMP              0 ****  ****    0 ROOT
