@<TRIPOS>MOLECULE
DOE
   80    81     1     0     0
SMALL
bcc


@<TRIPOS>ATOM
      1 C1         -1.3550    2.3330    5.2410 c3        1 DOE      0.220500
      2 C2         -0.4470    2.9500    4.1310 c3        1 DOE      0.135800
      3 C3         -1.1960    3.4720    1.8830 c3        1 DOE      0.129300
      4 C4         -2.1290    2.2560    1.6450 c3        1 DOE      0.165800
      5 C5         -0.7590    0.3880    0.8940 c3        1 DOE      0.160800
      6 C6         -1.2760   -0.9440    1.4880 c3        1 DOE      0.176800
      7 C7         -0.8330   -0.6570    3.8720 c3        1 DOE      0.129300
      8 C8         -1.4530   -0.1250    5.1930 c3        1 DOE      0.193800
      9 C10         0.7770    1.0130    7.7040 c         1 DOE      0.902600
     10 C12        -1.3750    6.4380    2.8220 c         1 DOE      0.914600
     11 C14        -1.4090    1.2390   -1.9870 c         1 DOE      0.914600
     12 C16        -2.0860   -3.5010    3.0730 c         1 DOE      0.884600
     13 C17        -1.5390    3.3950    6.3500 c3        1 DOE     -0.070100
     14 C18        -2.6790    3.0670    7.2470 ca        1 DOE     -0.017300
     15 C19        -3.9620    3.5650    7.0080 ca        1 DOE     -0.106500
     16 C20        -5.0350    3.2330    7.8370 ca        1 DOE     -0.167500
     17 C21        -4.8310    2.3770    8.9310 ca        1 DOE     -0.023400
     18 C22        -3.5260    1.8950    9.1960 ca        1 DOE     -0.167500
     19 C23        -2.4710    2.2410    8.3650 ca        1 DOE     -0.106500
     20 C24        -7.1480    2.4230    9.8660 c         1 DOE      0.647100
     21 C25        -8.1350    1.6310   10.7210 c3        1 DOE     -0.095300
     22 C26        -8.1280   -0.6740    9.1430 c3        1 DOE     -0.044300
     23 C27        -8.5400   -2.1280    9.1730 c3        1 DOE      0.136400
     24 N1         -0.8980    1.0660    5.8040 n3        1 DOE     -0.766600
     25 N2         -1.1430    3.9140    3.2740 n3        1 DOE     -0.712600
     26 N3         -1.7900    1.3560    0.5510 n3        1 DOE     -0.714600
     27 N4         -1.8280   -0.9090    2.8360 n3        1 DOE     -0.723600
     28 N5         -5.8830    1.9210    9.7660 n         1 DOE     -0.433100
     29 O1          0.6750    2.1140    8.3300 o         1 DOE     -0.873800
     30 O2          1.1850   -0.0420    8.2750 o         1 DOE     -0.873800
     31 O3         -1.7810    7.3250    3.6340 o         1 DOE     -0.865800
     32 O4         -1.4990    6.5560    1.5700 o         1 DOE     -0.865800
     33 O5         -2.3440    1.2980   -2.8420 o         1 DOE     -0.875300
     34 O6         -0.3280    0.6150   -2.2140 o         1 DOE     -0.875300
     35 O7         -2.9240   -4.4470    3.2360 o         1 DOE     -0.876800
     36 O8         -0.8540   -3.7200    2.8920 o         1 DOE     -0.876800
     37 O9         -7.5580    3.4890    9.3570 o         1 DOE     -0.622100
     38 O10        -9.8810   -2.3120    9.5960 oh        1 DOE     -0.614800
     39 S1         -7.9120   -0.1160   10.8200 ss        1 DOE     -0.356200
     40 HC1        -2.3730    2.1470    4.7810 h1        1 DOE      0.062700
     41 HC21        0.4370    3.4320    4.6410 h1        1 DOE      0.028200
     42 HC22       -0.0400    2.1000    3.5100 h1        1 DOE      0.028200
     43 HC31       -0.1580    3.2250    1.5050 h1        1 DOE      0.040450
     44 HC32       -1.5740    4.3410    1.2690 h1        1 DOE      0.040450
     45 HC41       -2.2070    1.6410    2.5840 h1        1 DOE      0.049700
     46 HC42       -3.1550    2.6640    1.4200 h1        1 DOE      0.049700
     47 HC51        0.0070    0.8360    1.5910 h1        1 DOE      0.038200
     48 HC52       -0.2200    0.0940   -0.0570 h1        1 DOE      0.038200
     49 HC61       -2.0850   -1.3310    0.8050 h1        1 DOE      0.037700
     50 HC62       -0.4110   -1.6700    1.4330 h1        1 DOE      0.037700
     51 HC71       -0.0900    0.0880    3.4770 h1        1 DOE      0.040450
     52 HC72       -0.2580   -1.6000    4.1130 h1        1 DOE      0.040450
     53 HC81       -2.5560    0.0580    5.0500 h1        1 DOE      0.040200
     54 HC82       -1.3440   -0.9450    5.9600 h1        1 DOE      0.040200
     55 HC91        1.1050    1.8030    5.7290 h1        1 DOE      0.021200
     56 HC92        0.9290   -0.0030    5.7980 h1        1 DOE      0.021200
     57 H111        0.4560    5.3060    2.9660 h1        1 DOE      0.004700
     58 H112       -0.4790    5.4570    4.5220 h1        1 DOE      0.004700
     59 H131       -0.6200    2.7110   -0.6290 h1        1 DOE      0.012200
     60 H132       -2.4270    2.7660   -0.8390 h1        1 DOE      0.012200
     61 H151       -3.5250   -2.0390    2.4040 h1        1 DOE      0.026700
     62 H152       -3.0750   -1.9320    4.1620 h1        1 DOE      0.026700
     63 H171       -1.7230    4.3870    5.8590 hc        1 DOE      0.083700
     64 H172       -0.5910    3.4550    6.9580 hc        1 DOE      0.083700
     65 H19        -4.1340    4.2200    6.1380 ha        1 DOE      0.185500
     66 H20        -6.0340    3.6410    7.6240 ha        1 DOE      0.122000
     67 H22        -3.3370    1.2270   10.0490 ha        1 DOE      0.122000
     68 H23        -1.4420    1.8600    8.5560 ha        1 DOE      0.185500
     69 H251       -8.0460    1.9900   11.7770 h1        1 DOE      0.085700
     70 H252       -9.1600    1.8710   10.3470 h1        1 DOE      0.085700
     71 H261       -8.9020   -0.0550    8.6290 h1        1 DOE      0.095200
     72 H262       -7.1650   -0.5650    8.5840 h1        1 DOE      0.095200
     73 H271       -7.8520   -2.7160    9.8400 h1        1 DOE      0.063200
     74 H272       -8.5080   -2.5600    8.1350 h1        1 DOE      0.063200
     75 HN5        -5.6980    1.0580   10.2360 hn        1 DOE      0.319500
     76 H10        -9.9800   -1.8270   10.4250 ho        1 DOE      0.400000
     77 C9          0.4990    0.9670    6.1800 c3        1 DOE      0.082800
     78 C11        -0.5800    5.2500    3.4190 c3        1 DOE      0.066800
     79 C13        -1.5510    2.0740   -0.6930 c3        1 DOE      0.067800
     80 C15        -2.6590   -2.0690    3.1240 c3        1 DOE      0.066800
@<TRIPOS>BOND
     1    1    2 1   
     2    1   13 1   
     3    1   24 1   
     4    1   40 1   
     5    2   25 1   
     6    2   41 1   
     7    2   42 1   
     8    3    4 1   
     9    3   25 1   
    10    3   43 1   
    11    3   44 1   
    12    4   26 1   
    13    4   45 1   
    14    4   46 1   
    15    5    6 1   
    16    5   26 1   
    17    5   47 1   
    18    5   48 1   
    19    6   27 1   
    20    6   49 1   
    21    6   50 1   
    22    7    8 1   
    23    7   27 1   
    24    7   51 1   
    25    7   52 1   
    26    8   24 1   
    27    8   53 1   
    28    8   54 1   
    29    9   29 1   
    30    9   30 1   
    31    9   77 1   
    32   10   31 1   
    33   10   32 1   
    34   10   78 1   
    35   11   33 1   
    36   11   34 1   
    37   11   79 1   
    38   12   35 1   
    39   12   36 1   
    40   12   80 1   
    41   13   14 1   
    42   13   63 1   
    43   13   64 1   
    44   14   15 ar  
    45   14   19 ar  
    46   15   16 ar  
    47   15   65 1   
    48   16   17 ar  
    49   16   66 1   
    50   17   18 ar  
    51   17   28 1   
    52   18   19 ar  
    53   18   67 1   
    54   19   68 1   
    55   20   21 1   
    56   20   28 1   
    57   20   37 2   
    58   21   39 1   
    59   21   69 1   
    60   21   70 1   
    61   22   23 1   
    62   22   39 1   
    63   22   71 1   
    64   22   72 1   
    65   23   38 1   
    66   23   73 1   
    67   23   74 1   
    68   24   77 1   
    69   25   78 1   
    70   26   79 1   
    71   27   80 1   
    72   28   75 1   
    73   38   76 1   
    74   55   77 1   
    75   56   77 1   
    76   57   78 1   
    77   58   78 1   
    78   59   79 1   
    79   60   79 1   
    80   61   80 1   
    81   62   80 1   
@<TRIPOS>SUBSTRUCTURE
     1 DOE         1 TEMP              0 ****  ****    0 ROOT
