@<TRIPOS>MOLECULE
DOE
   80    78     1     0     0
SMALL
bcc


@<TRIPOS>ATOM
      1 C1          0.2040   -1.2550    0.6560 c3        1 DOE     -0.053000
      2 C2          1.7260   -1.2510    0.6650 c3        1 DOE     -0.081000
      3 C3          1.7250   -2.5680    2.8310 c3        1 DOE     -0.072000
      4 C4          1.1120   -2.1970    4.2490 c3        1 DOE     -0.072000
      5 C5         -1.3700   -2.2150    4.6870 c3        1 DOE     -0.105000
      6 C6         -0.9800   -0.7700    5.0660 c3        1 DOE     -0.105000
      7 C7         -1.5960   -0.2540    2.7540 c3        1 DOE     -0.072000
      8 C8         -0.4540    0.6140    1.9740 c3        1 DOE     -0.079000
      9 C9          0.6960    0.8700   -0.1380 c3        1 DOE     -0.105000
     10 C10         0.0350    2.1610   -0.6390 c2        1 DOE      0.331000
     11 C11         3.7100   -1.3310    2.1310 c3        1 DOE     -0.115000
     12 C12         4.2770   -0.2320    3.1320 c2        1 DOE      0.334000
     13 C13         0.1690   -3.8760    5.6780 c3        1 DOE     -0.115000
     14 C14        -0.3690   -5.2430    5.4650 c2        1 DOE      0.335000
     15 C15        -3.1610    0.3180    4.5450 c3        1 DOE     -0.122000
     16 C16        -3.3680    1.5510    5.4160 c2        1 DOE      0.334000
     17 C17        -0.2860   -2.0530   -0.5410 c3        1 DOE     -0.125000
     18 C18        -0.0990   -1.2060   -1.8390 c2        1 DOE     -0.026000
     19 C19        -1.2070   -0.5450   -2.4030 c2        1 DOE     -0.091000
     20 C20        -1.1190   -0.0060   -3.6670 c1        1 DOE     -0.130000
     21 C21         0.1020   -0.1170   -4.4120 c1        1 DOE      0.015000
     22 C22         1.1870   -0.7640   -3.8610 c1        1 DOE     -0.141000
     23 C23         1.0980   -1.3160   -2.5670 c1        1 DOE     -0.127000
     24 C24        -0.3090    1.8920   -5.9010 c1        1 DOE      0.293000
     25 C25        -0.3320    2.5160   -7.3140 c2        1 DOE     -0.305000
     26 C26         0.0060    4.9420   -8.7890 c3        1 DOE     -0.296000
     27 C27        -0.8830    6.2180   -8.5690 c3        1 DOE      0.032000
     28 N1         -0.2730    0.0620    0.5680 n3        1 DOE     -0.242000
     29 N2          2.2500   -1.3140    2.1490 n3        1 DOE     -0.258000
     30 N3         -0.0680   -3.0880    4.5220 n3        1 DOE     -0.244000
     31 N4         -1.7000    0.2210    4.1500 n3        1 DOE     -0.240000
     32 N5          0.2130    0.5110   -5.7030 n3        1 DOE     -0.280000
     33 O1         -0.7540    2.1280   -1.6860 o         1 DOE     -0.614000
     34 O2          0.4310    3.3690   -0.1210 o         1 DOE     -0.614000
     35 O3          4.2290    0.9900    2.8190 o         1 DOE     -0.600500
     36 O4          4.7980   -0.5740    4.1880 o         1 DOE     -0.600500
     37 O5          0.2000   -6.0350    4.6260 o         1 DOE     -0.603000
     38 O6         -1.3300   -5.6670    6.1920 o         1 DOE     -0.603000
     39 O7         -3.0510    2.6880    4.9780 o         1 DOE     -0.605500
     40 O8         -3.9510    1.4540    6.4630 o         1 DOE     -0.605500
     41 O9         -0.8090    2.4600   -5.0040 o         1 DOE     -0.392000
     42 O10        -1.2750    6.7340   -9.8030 oh        1 DOE     -0.380000
     43 S1          0.2830    4.1410   -7.2390 ss        1 DOE     -0.015000
     44 HC1        -0.1150   -1.6510    1.4570 h1        1 DOE      0.112000
     45 HC21        2.0580   -2.0360    0.1660 h1        1 DOE      0.077500
     46 HC22        2.0800   -0.3680    0.2040 h1        1 DOE      0.077500
     47 HC31        2.4890   -3.2320    2.9570 h1        1 DOE      0.085500
     48 HC32        1.0010   -2.9900    2.2490 h1        1 DOE      0.085500
     49 HC41        0.8080   -1.2120    4.2430 h1        1 DOE      0.061500
     50 HC42        1.8010   -2.3300    4.9590 h1        1 DOE      0.061500
     51 HC51       -1.9630   -2.6170    5.4320 h1        1 DOE      0.101000
     52 HC52       -1.8980   -2.2070    3.7900 h1        1 DOE      0.101000
     53 HC61        0.0080   -0.6560    4.9670 h1        1 DOE      0.073000
     54 HC62       -1.2340   -0.5990    5.9900 h1        1 DOE      0.073000
     55 HC71       -1.3440   -1.2180    2.7490 h1        1 DOE      0.085500
     56 HC72       -2.4480   -0.1420    2.3090 h1        1 DOE      0.085500
     57 HC81        0.3960    0.5520    2.4640 h1        1 DOE      0.088000
     58 HC82       -0.7290    1.5420    1.9240 h1        1 DOE      0.088000
     59 HC91        1.0150    0.4140   -0.8290 h1        1 DOE      0.060500
     60 HC92        1.4340    1.0990    0.4730 h1        1 DOE      0.060500
     61 H111        4.0050   -2.1500    2.3830 h1        1 DOE      0.045000
     62 H112        3.9980   -1.1530    1.3030 h1        1 DOE      0.045000
     63 H131        1.0880   -3.9240    5.8410 h1        1 DOE      0.048000
     64 H132       -0.2660   -3.4810    6.4270 h1        1 DOE      0.048000
     65 H151       -3.4150   -0.4780    5.0390 h1        1 DOE      0.054000
     66 H152       -3.7140    0.3930    3.7380 h1        1 DOE      0.054000
     67 H171        0.2890   -2.9720   -0.6240 hc        1 DOE      0.084500
     68 H172       -1.2100   -2.2630   -0.4270 hc        1 DOE      0.084500
     69 H19        -1.9860   -0.4740   -1.9300 ha        1 DOE      0.150000
     70 H20        -1.8750    0.4300   -4.0530 ha        1 DOE      0.128000
     71 H22         2.0460   -0.8420   -4.3840 ha        1 DOE      0.113000
     72 H23         1.8680   -1.7740   -2.1760 ha        1 DOE      0.145000
     73 H251        0.1990    2.0130   -7.8850 h4        1 DOE      0.116000
     74 H252       -1.3060    2.5310   -7.6720 h4        1 DOE      0.116000
     75 H261       -0.4460    4.3300   -9.3890 h1        1 DOE      0.136000
     76 H262        0.8590    5.2060   -9.1770 h1        1 DOE      0.136000
     77 H271       -0.3270    6.9490   -8.0470 h1        1 DOE      0.070500
     78 H272       -1.6630    5.9790   -8.0560 h1        1 DOE      0.070500
     79 HN5         0.6390    0.0380   -6.4360 hn        1 DOE      0.243000
     80 H10        -1.8490    7.3290   -9.6860 ho        1 DOE      0.293000
@<TRIPOS>BOND
     1    1    2 1   
     2    1   17 1   
     3    1   28 1   
     4    1   44 1   
     5    2   29 1   
     6    2   45 1   
     7    2   46 1   
     8    3    4 1   
     9    3   29 1   
    10    3   47 1   
    11    3   48 1   
    12    4   30 1   
    13    4   49 1   
    14    4   50 1   
    15    5    6 1   
    16    5   30 1   
    17    5   51 1   
    18    5   52 1   
    19    6   31 1   
    20    6   53 1   
    21    6   54 1   
    22    7    8 1   
    23    7   31 1   
    24    7   55 1   
    25    7   56 1   
    26    8   28 1   
    27    8   57 1   
    28    8   58 1   
    29    9   10 1   
    30    9   28 1   
    31    9   59 1   
    32    9   60 1   
    33   10   33 1   
    34   10   34 1   
    35   11   12 1   
    36   11   29 1   
    37   11   61 1   
    38   11   62 1   
    39   12   35 1   
    40   12   36 1   
    41   13   14 1   
    42   13   30 1   
    43   13   63 1   
    44   13   64 1   
    45   14   37 1   
    46   14   38 1   
    47   15   16 1   
    48   15   31 1   
    49   15   65 1   
    50   15   66 1   
    51   16   39 1   
    52   16   40 1   
    53   17   18 1   
    54   17   67 1   
    55   17   68 1   
    56   18   19 1   
    57   18   23 1   
    58   19   20 1   
    59   19   69 1   
    60   20   70 1   
    61   21   22 1   
    62   21   32 1   
    63   22   71 1   
    64   23   72 1   
    65   24   32 1   
    66   24   41 1   
    67   25   43 1   
    68   25   73 1   
    69   25   74 1   
    70   26   27 1   
    71   26   43 1   
    72   26   75 1   
    73   26   76 1   
    74   27   42 1   
    75   27   77 1   
    76   27   78 1   
    77   32   79 1   
    78   42   80 1   
@<TRIPOS>SUBSTRUCTURE
     1 DOE         1 TEMP              0 ****  ****    0 ROOT
