@<TRIPOS>MOLECULE
DOE
   84    85     1     0     0
SMALL
bcc


@<TRIPOS>ATOM
      1 C1         -0.4340    0.4570    0.8840 c3        1 DOE      0.099500
      2 C2          1.0890    0.6200    0.6360 c3        1 DOE      0.121800
      3 C3          3.1290    1.6120    1.5900 c3        1 DOE      0.087300
      4 C4          2.9600    3.1010    1.9260 c3        1 DOE      0.038800
      5 C5          2.4540    3.9660   -0.4200 c3        1 DOE      0.088800
      6 C6          1.1110    4.7100   -0.4580 c3        1 DOE      0.075800
      7 C7         -1.2160    3.8180   -0.1790 c3        1 DOE      0.087300
      8 C8         -1.8340    2.5200    0.3660 c3        1 DOE      0.086800
      9 C10        -1.7410    1.8660   -2.5170 c         1 DOE      0.929600
     10 C12         1.2250   -1.1870    3.3710 c         1 DOE      0.925600
     11 C14         4.9700    5.6560   -0.1020 c         1 DOE      0.935600
     12 C16        -0.2990    4.0560    2.9590 c         1 DOE      0.918600
     13 C17        -0.7940   -1.0440    0.8100 c3        1 DOE     -0.044100
     14 C18        -2.2050   -1.2800    1.2120 ca        1 DOE     -0.188300
     15 C19        -2.5390   -1.3120    2.5730 ca        1 DOE     -0.090000
     16 C20        -3.8440   -1.5610    2.9700 ca        1 DOE     -0.173000
     17 C21        -4.8610   -1.7980    2.0090 ca        1 DOE      0.091600
     18 C22        -4.5130   -1.7690    0.6410 ca        1 DOE     -0.173000
     19 C23        -3.2000   -1.5150    0.2590 ca        1 DOE     -0.090000
     20 C24        -7.3050   -2.2390    1.7070 c         1 DOE      0.671100
     21 C25        -8.5820   -2.5160    2.4780 c3        1 DOE     -0.117300
     22 C26       -10.2650   -0.3130    2.2160 c3        1 DOE     -0.026300
     23 C27        -9.5550    0.3610    1.0610 c3        1 DOE      0.123400
     24 N1         -1.2790    1.2180   -0.1180 n4        1 DOE     -0.672400
     25 N2          1.9270    0.7600    1.8690 n4        1 DOE     -0.674400
     26 N3          3.2340    4.0850    0.8480 n4        1 DOE     -0.675400
     27 N4          0.0880    4.1590    0.4720 n4        1 DOE     -0.685400
     28 N5         -6.1570   -2.0660    2.4690 n         1 DOE     -0.460100
     29 O1         -2.8560    1.3080   -2.4750 o         1 DOE     -0.755800
     30 O2         -1.3230    2.8390   -3.1820 o         1 DOE     -0.755800
     31 O3          0.3040   -0.3990    3.7020 o         1 DOE     -0.752800
     32 O4          1.4080   -2.3830    3.6530 o         1 DOE     -0.752800
     33 O5          3.9750    6.4300   -0.0600 o         1 DOE     -0.754300
     34 O6          6.1150    5.8190   -0.5400 o         1 DOE     -0.754300
     35 O7          0.0410    2.8400    2.7620 o         1 DOE     -0.770300
     36 O8         -0.7290    4.5780    3.9910 o         1 DOE     -0.770300
     37 O9         -7.3190   -2.1840    0.4640 o         1 DOE     -0.586100
     38 O10       -10.5630    0.9280    0.2360 oh        1 DOE     -0.602800
     39 S1         -9.1720   -1.1050    3.3480 ss        1 DOE     -0.259200
     40 HC1        -0.6980    0.8210    1.9380 hx        1 DOE      0.190700
     41 HC21        1.4590   -0.2760    0.0560 hx        1 DOE      0.076200
     42 HC22        1.2880    1.5320    0.0120 hx        1 DOE      0.076200
     43 HC31        3.9710    1.2290    2.2440 hx        1 DOE      0.127200
     44 HC32        3.4540    1.4490    0.5240 hx        1 DOE      0.127200
     45 HC41        1.9380    3.3120    2.3720 hx        1 DOE      0.139200
     46 HC42        3.7020    3.3390    2.7510 hx        1 DOE      0.139200
     47 HC51        3.0730    4.4790   -1.2330 hx        1 DOE      0.124700
     48 HC52        2.3480    2.8850   -0.6960 hx        1 DOE      0.124700
     49 HC61        1.2830    5.8090   -0.2370 hx        1 DOE      0.148700
     50 HC62        0.7360    4.6380   -1.5260 hx        1 DOE      0.148700
     51 HC71       -1.0960    3.7850   -1.3100 hx        1 DOE      0.127200
     52 HC72       -1.9580    4.6420    0.0410 hx        1 DOE      0.127200
     53 HC81       -1.8150    2.5200    1.5010 hx        1 DOE      0.144200
     54 HC82       -2.9130    2.5470    0.0130 hx        1 DOE      0.144200
     55 HC91       -0.3590    0.2850   -1.7940 hx        1 DOE      0.068200
     56 HC92        0.2110    1.9990   -1.4720 hx        1 DOE      0.068200
     57 H111        2.5490   -1.2880    1.5750 hx        1 DOE      0.088200
     58 H112        3.2560   -0.4580    3.0450 hx        1 DOE      0.088200
     59 H131        4.9840    3.4130   -0.2240 hx        1 DOE      0.088700
     60 H132        5.2980    4.1010    1.4470 hx        1 DOE      0.088700
     61 H151       -1.0090    5.6540    1.5910 hx        1 DOE      0.102700
     62 H152        0.7890    5.6360    1.8750 hx        1 DOE      0.102700
     63 H171       -0.6030   -1.4400   -0.2240 hc        1 DOE      0.088700
     64 H172       -0.1120   -1.5880    1.5230 hc        1 DOE      0.088700
     65 H19        -1.7500   -1.1430    3.3340 ha        1 DOE      0.169000
     66 H20        -4.0750   -1.5800    4.0480 ha        1 DOE      0.163500
     67 H22        -5.2710   -1.9510   -0.1400 ha        1 DOE      0.163500
     68 H23        -2.9540   -1.5160   -0.8170 ha        1 DOE      0.169000
     69 H251       -8.4180   -3.3160    3.2440 h1        1 DOE      0.106700
     70 H252       -9.3420   -2.8900    1.7460 h1        1 DOE      0.106700
     71 H261      -10.8070    0.4510    2.8300 h1        1 DOE      0.092200
     72 H262      -11.0240   -1.0310    1.8180 h1        1 DOE      0.092200
     73 H271       -8.8750    1.1750    1.4330 h1        1 DOE      0.041700
     74 H272       -8.9480   -0.3880    0.4810 h1        1 DOE      0.041700
     75 HN5        -6.2730   -2.0520    3.4600 hn        1 DOE      0.327500
     76 H10       -10.1290    1.1980   -0.5810 ho        1 DOE      0.408000
     77 C9         -0.6710    1.3110   -1.4680 c3        1 DOE     -0.108200
     78 C11         2.3380   -0.5740    2.4100 c3        1 DOE     -0.091200
     79 C13         4.6920    4.2000    0.5120 c3        1 DOE     -0.098200
     80 C15        -0.1130    4.9910    1.7010 c3        1 DOE     -0.077200
     81 H11        -2.1320    0.6230   -0.2710 hn        1 DOE      0.499800
     82 H21         1.3260    1.1850    2.6330 hn        1 DOE      0.532800
     83 H31         3.0080    5.0400    1.2270 hn        1 DOE      0.487800
     84 H41         0.4550    3.2520    0.8410 hn        1 DOE      0.439800
@<TRIPOS>BOND
     1    1    2 1   
     2    1   13 1   
     3    1   24 1   
     4    1   40 1   
     5    2   25 1   
     6    2   41 1   
     7    2   42 1   
     8    3    4 1   
     9    3   25 1   
    10    3   43 1   
    11    3   44 1   
    12    4   26 1   
    13    4   45 1   
    14    4   46 1   
    15    5    6 1   
    16    5   26 1   
    17    5   47 1   
    18    5   48 1   
    19    6   27 1   
    20    6   49 1   
    21    6   50 1   
    22    7    8 1   
    23    7   27 1   
    24    7   51 1   
    25    7   52 1   
    26    8   24 1   
    27    8   53 1   
    28    8   54 1   
    29    9   29 1   
    30    9   30 1   
    31    9   77 1   
    32   10   31 1   
    33   10   32 1   
    34   10   78 1   
    35   11   33 1   
    36   11   34 1   
    37   11   79 1   
    38   12   35 1   
    39   12   36 1   
    40   12   80 1   
    41   13   14 1   
    42   13   63 1   
    43   13   64 1   
    44   14   15 ar  
    45   14   19 ar  
    46   15   16 ar  
    47   15   65 1   
    48   16   17 ar  
    49   16   66 1   
    50   17   18 ar  
    51   17   28 1   
    52   18   19 ar  
    53   18   67 1   
    54   19   68 1   
    55   20   21 1   
    56   20   28 1   
    57   20   37 2   
    58   21   39 1   
    59   21   69 1   
    60   21   70 1   
    61   22   23 1   
    62   22   39 1   
    63   22   71 1   
    64   22   72 1   
    65   23   38 1   
    66   23   73 1   
    67   23   74 1   
    68   24   77 1   
    69   24   81 1   
    70   25   78 1   
    71   25   82 1   
    72   26   79 1   
    73   26   83 1   
    74   27   80 1   
    75   27   84 1   
    76   28   75 1   
    77   38   76 1   
    78   55   77 1   
    79   56   77 1   
    80   57   78 1   
    81   58   78 1   
    82   59   79 1   
    83   60   79 1   
    84   61   80 1   
    85   62   80 1   
@<TRIPOS>SUBSTRUCTURE
     1 DOE         1 TEMP              0 ****  ****    0 ROOT
