@<TRIPOS>MOLECULE
DOF
   67    68     1     0     0
SMALL
bcc


@<TRIPOS>ATOM
      1 C1         -1.2160    2.3750    5.2360 c3        1 DOF      0.214500
      2 C2         -0.1280    2.9590    4.2780 c3        1 DOF      0.137800
      3 C3         -0.7560    3.1330    1.9310 c3        1 DOF      0.132800
      4 C4         -1.9090    2.1000    1.8310 c3        1 DOF      0.166800
      5 C5         -1.1210   -0.0390    0.9330 c3        1 DOF      0.132800
      6 C6         -1.7360   -1.0130    1.9790 c3        1 DOF      0.165800
      7 C7         -0.3260   -0.4480    3.8850 c3        1 DOF      0.132800
      8 C8         -1.2530   -0.0710    5.0720 c3        1 DOF      0.184800
      9 C10         0.3000    1.1410    8.0980 c         1 DOF      0.905600
     10 C12        -0.6670    6.2210    2.3400 c         1 DOF      0.915600
     11 C14        -1.9430    1.0250   -1.8410 c         1 DOF      0.915600
     12 C16        -0.4270   -3.9430    2.4450 c         1 DOF      0.915600
     13 C17        -1.5080    3.4730    6.2840 c3        1 DOF     -0.089100
     14 C18        -2.8130    3.2860    6.9670 ca        1 DOF      0.051700
     15 C19        -4.0000    3.7530    6.3780 ca        1 DOF     -0.143000
     16 C20        -5.2130    3.6640    7.0480 ca        1 DOF     -0.081000
     17 C21        -5.2480    3.0950    8.3360 ca        1 DOF     -0.228200
     18 C22        -4.0720    2.5820    8.9200 ca        1 DOF     -0.081000
     19 C23        -2.8690    2.6820    8.2360 ca        1 DOF     -0.143000
     20 N1         -0.9040    1.0960    5.8640 n3        1 DOF     -0.754600
     21 N2         -0.6900    3.8060    3.2250 n3        1 DOF     -0.719600
     22 N3         -1.8990    1.1730    0.7120 n3        1 DOF     -0.723600
     23 N4         -0.8870   -1.5040    3.0530 n3        1 DOF     -0.727600
     24 N5         -6.5170    3.0430    9.0750 no        1 DOF      0.319200
     25 O1          0.1980    2.2950    8.6230 o         1 DOF     -0.869800
     26 O2          0.4350    0.0990    8.8010 o         1 DOF     -0.869800
     27 O3         -1.1940    7.1840    2.9720 o         1 DOF     -0.860800
     28 O4         -0.5510    6.2040    1.0820 o         1 DOF     -0.860800
     29 O5         -1.1030    0.1740   -2.2600 o         1 DOF     -0.870800
     30 O6         -2.9900    1.3240   -2.4900 o         1 DOF     -0.870800
     31 O7          0.3950   -4.8610    2.7670 o         1 DOF     -0.870300
     32 O8         -1.5620   -4.1940    1.9550 o         1 DOF     -0.870300
     33 O9         -6.5530    2.5760   10.1900 o         1 DOF     -0.271000
     34 O10        -7.5280    3.4850    8.5800 o         1 DOF     -0.271000
     35 HC1        -2.1690    2.2250    4.6440 h1        1 DOF      0.062700
     36 HC21        0.5950    3.5470    4.9160 h1        1 DOF      0.025200
     37 HC22        0.4760    2.1140    3.8410 h1        1 DOF      0.025200
     38 HC31        0.2180    2.6110    1.6920 h1        1 DOF      0.034450
     39 HC32       -0.9170    3.9260    1.1420 h1        1 DOF      0.034450
     40 HC41       -1.9490    1.4930    2.7790 h1        1 DOF      0.038200
     41 HC42       -2.8700    2.6830    1.7550 h1        1 DOF      0.038200
     42 HC51       -0.0540    0.2060    1.2120 h1        1 DOF      0.041200
     43 HC52       -1.0780   -0.5820   -0.0580 h1        1 DOF      0.041200
     44 HC61       -2.6280   -0.5350    2.4720 h1        1 DOF      0.061200
     45 HC62       -2.0960   -1.9290    1.4260 h1        1 DOF      0.061200
     46 HC71       -0.1260    0.4760    3.2720 h1        1 DOF      0.034450
     47 HC72        0.6610   -0.7740    4.3200 h1        1 DOF      0.034450
     48 HC81       -2.2990    0.0800    4.6820 h1        1 DOF      0.048200
     49 HC82       -1.2750   -0.9450    5.7840 h1        1 DOF      0.048200
     50 HC91        1.0830    1.8070    6.1980 h1        1 DOF      0.021200
     51 HC92        0.8500    0.0100    6.3450 h1        1 DOF      0.021200
     52 H111        1.0470    4.9840    2.8010 h1        1 DOF      0.001700
     53 H112        0.0390    5.4840    4.2370 h1        1 DOF      0.001700
     54 H131       -0.5380    2.1360   -0.6270 h1        1 DOF      0.015700
     55 H132       -2.2480    2.7660   -0.5870 h1        1 DOF      0.015700
     56 H151        0.9230   -2.5500    3.3770 h1        1 DOF      0.011700
     57 H152        0.5530   -2.2000    1.6330 h1        1 DOF      0.011700
     58 H171       -1.5180    4.4620    5.7500 hc        1 DOF      0.094200
     59 H172       -0.6780    3.4800    7.0510 hc        1 DOF      0.094200
     60 H19        -3.9580    4.1940    5.3680 ha        1 DOF      0.198500
     61 H20        -6.1370    4.0360    6.5800 ha        1 DOF      0.142000
     62 H22        -4.1070    2.1070    9.9130 ha        1 DOF      0.142000
     63 H23        -1.9230    2.2810    8.6710 ha        1 DOF      0.198500
     64 C9          0.3710    1.0080    6.5540 c3        1 DOF      0.075800
     65 C11        -0.0120    5.0940    3.1790 c3        1 DOF      0.067800
     66 C13        -1.6230    1.8290   -0.5560 c3        1 DOF      0.067800
     67 C15         0.0900   -2.4920    2.6210 c3        1 DOF      0.071800
@<TRIPOS>BOND
     1    1    2 1   
     2    1   13 1   
     3    1   20 1   
     4    1   35 1   
     5    2   21 1   
     6    2   36 1   
     7    2   37 1   
     8    3    4 1   
     9    3   21 1   
    10    3   38 1   
    11    3   39 1   
    12    4   22 1   
    13    4   40 1   
    14    4   41 1   
    15    5    6 1   
    16    5   22 1   
    17    5   42 1   
    18    5   43 1   
    19    6   23 1   
    20    6   44 1   
    21    6   45 1   
    22    7    8 1   
    23    7   23 1   
    24    7   46 1   
    25    7   47 1   
    26    8   20 1   
    27    8   48 1   
    28    8   49 1   
    29    9   25 1   
    30    9   26 1   
    31    9   64 1   
    32   10   27 1   
    33   10   28 1   
    34   10   65 1   
    35   11   29 1   
    36   11   30 1   
    37   11   66 1   
    38   12   31 1   
    39   12   32 1   
    40   12   67 1   
    41   13   14 1   
    42   13   58 1   
    43   13   59 1   
    44   14   15 ar  
    45   14   19 ar  
    46   15   16 ar  
    47   15   60 1   
    48   16   17 ar  
    49   16   61 1   
    50   17   18 ar  
    51   17   24 1   
    52   18   19 ar  
    53   18   62 1   
    54   19   63 1   
    55   20   64 1   
    56   21   65 1   
    57   22   66 1   
    58   23   67 1   
    59   24   33 1   
    60   24   34 1   
    61   50   64 1   
    62   51   64 1   
    63   52   65 1   
    64   53   65 1   
    65   54   66 1   
    66   55   66 1   
    67   56   67 1   
    68   57   67 1   
@<TRIPOS>SUBSTRUCTURE
     1 DOF         1 TEMP              0 ****  ****    0 ROOT
