@<TRIPOS>MOLECULE
DOF
   67    61     1     0     0
SMALL
bcc


@<TRIPOS>ATOM
      1 C1       -737.2430 -142.4880  -64.5410 c3        1 DOF     -0.032000
      2 C2       -738.2980 -141.6310  -63.8480 c3        1 DOF     -0.195000
      3 C3       1808.2360-1574.7060  896.1360 c1        1 DOF     -0.249000
      4 C4        148.4520  745.9730 -257.4360 c1        1 DOF      0.046000
      5 C5        154.3760  743.3350 -256.1650 c1        1 DOF     -0.032000
      6 C6        153.2190  743.6240 -256.4570 c1        1 DOF     -0.736000
      7 C7        150.9670  742.8280 -256.5280 c3        1 DOF     -0.180000
      8 C8       -736.7300 -144.8760  -64.7290 c1        1 DOF     -0.080000
      9 C10      -739.6560 -145.4780  -64.5560 c2        1 DOF      0.319000
     10 C12      1804.7070-1573.4400  896.2360 c2        1 DOF      0.324000
     11 C14       145.3870  746.0900 -259.5340 c2        1 DOF      0.331000
     12 C16       150.4960  745.1330 -258.5380 c2        1 DOF      0.243000
     13 C17      -736.8910 -141.8490  -65.8970 c3        1 DOF     -0.127000
     14 C18      -735.4980 -142.1550  -66.3160 c2        1 DOF     -0.136000
     15 C19      -734.5460 -141.2720  -66.4020 c1        1 DOF     -0.261000
     16 C20      -733.5580 -140.4100  -66.4300 c2        1 DOF      0.039000
     17 C21      -733.1610 -139.5990  -67.5520 c2        1 DOF     -0.332000
     18 C22      -733.8390 -139.6760  -68.7690 c1        1 DOF      0.016000
     19 C23      -734.4380 -139.7600  -69.8060 c1        1 DOF     -0.372000
     20 N1       -737.6520 -143.9170  -64.6440 n3        1 DOF     -0.123000
     21 N2       1806.9940-1574.4320  895.8920 n3        1 DOF     -0.155000
     22 N3        147.6750  746.1110 -258.4870 n3        1 DOF     -0.245000
     23 N4        151.9030  743.9620 -256.7710 n4        1 DOF      0.202000
     24 N5       -732.0620 -138.7120  -67.4130 no        1 DOF      0.599000
     25 O1       -740.0640 -146.0220  -65.6230 o         1 DOF     -0.577500
     26 O2       -739.8960 -145.9290  -63.3940 o         1 DOF     -0.577500
     27 O3       1804.3750-1573.9950  895.1500 o         1 DOF     -0.570000
     28 O4       1803.9470-1572.7400  896.9560 o         1 DOF     -0.570000
     29 O5        145.9310  745.5780 -260.5500 o         1 DOF     -0.554000
     30 O6        144.1550  746.2830 -259.3660 o         1 DOF     -0.554000
     31 O7        149.7270  745.4920 -257.4690 os        1 DOF     -0.269000
     32 O8        150.1630  745.4050 -259.6900 o         1 DOF     -0.322000
     33 O9       -731.6920 -138.0070  -68.3390 o         1 DOF     -0.506500
     34 O10      -731.4570 -138.6350  -66.3520 o         1 DOF     -0.506500
     35 HC1      -739.2110 -141.5510  -64.4850 hc        1 DOF      0.075000
     36 HC21     -737.8800 -140.6120  -63.6660 hc        1 DOF      0.075000
     37 HC22     -738.5950 -142.0810  -62.8700 hc        1 DOF      0.075000
     38 HC31     1808.7240-1575.3490  895.3640 ha        1 DOF     -0.004000
     39 HC32     1806.4780-1574.7530  895.0850 hn        1 DOF      0.187000
     40 HC41      149.4150  745.1660 -255.1500 ha        1 DOF      0.000000
     41 HC42      149.8210  744.7490 -254.8010 ha        1 DOF      0.000000
     42 HC51      151.7080  744.2350 -253.7340 ha        1 DOF      0.000000
     43 HC52      152.3350  744.0480 -253.9120 ha        1 DOF      0.000000
     44 HC61      151.6020  744.7400 -256.1560 hn        1 DOF      0.234000
     45 HC62      147.9180  745.8640 -259.4360 hn        1 DOF      0.249000
     46 HC71      151.0470  742.5360 -255.4480 hx        1 DOF      0.121333
     47 HC72      151.2580  741.9600 -257.1710 hx        1 DOF      0.121333
     48 HC81      149.9210  743.1630 -256.7610 hx        1 DOF      0.121333
     49 HC82     -735.6710 -144.5180  -64.7350 ha        1 DOF      0.006000
     50 HC91     -741.1640 -147.6400  -64.3490 ha        1 DOF      0.000000
     51 HC92     -741.5760 -148.1820  -64.2900 ha        1 DOF      0.000000
     52 H111     1806.6280-1572.5970  896.8590 h1        1 DOF      0.086000
     53 H112     1806.1220-1574.0820  897.7770 h1        1 DOF      0.086000
     54 H131      146.2890  747.6810 -258.3350 h1        1 DOF      0.089500
     55 H132      145.8680  746.1790 -257.3910 h1        1 DOF      0.089500
     56 H151      152.6390  745.1720 -258.3650 hx        1 DOF      0.156000
     57 H152      151.9400  743.5620 -258.8750 hx        1 DOF      0.156000
     58 H171     -737.0250 -140.7390  -65.8030 hc        1 DOF      0.089000
     59 H172     -736.3090 -142.4730  -63.9010 h1        1 DOF      0.077000
     60 H19      -735.3110 -143.2140  -66.5720 ha        1 DOF      0.110000
     61 H20      -732.9560 -140.2810  -65.5060 ha        1 DOF      0.135000
     62 H22      -734.9740 -139.8440  -70.7100 ha        1 DOF      0.192000
     63 H23      -737.6060 -142.2020  -66.6870 hc        1 DOF      0.089000
     64 C9       -739.0000 -144.1290  -64.6330 c1        1 DOF     -0.064000
     65 C11      1806.1650-1573.6150  896.7560 c3        1 DOF     -0.137000
     66 C13       146.3010  746.5570 -258.3540 c3        1 DOF     -0.133000
     67 C15       151.7980  744.4410 -258.1860 c3        1 DOF     -0.140000
@<TRIPOS>BOND
     1    1    2 1   
     2    1   13 1   
     3    1   20 1   
     4    1   59 1   
     5    2   35 1   
     6    2   36 1   
     7    2   37 1   
     8    3   21 1   
     9    3   38 1   
    10    4   22 1   
    11    4   31 1   
    12    5    6 1   
    13    6   23 1   
    14    7   23 1   
    15    7   46 1   
    16    7   47 1   
    17    7   48 1   
    18    8   20 1   
    19    8   49 1   
    20    9   25 1   
    21    9   26 1   
    22    9   64 1   
    23   10   27 1   
    24   10   28 1   
    25   10   65 1   
    26   11   29 1   
    27   11   30 1   
    28   11   66 1   
    29   12   31 1   
    30   12   32 1   
    31   12   67 1   
    32   13   14 1   
    33   13   58 1   
    34   13   63 1   
    35   14   15 1   
    36   14   60 1   
    37   15   16 1   
    38   16   17 1   
    39   16   61 1   
    40   17   18 1   
    41   17   24 1   
    42   18   19 1   
    43   19   62 1   
    44   20   64 1   
    45   21   39 1   
    46   21   65 1   
    47   22   45 1   
    48   22   66 1   
    49   23   44 1   
    50   23   67 1   
    51   24   33 1   
    52   24   34 1   
    53   40   41 1   
    54   42   43 1   
    55   50   51 1   
    56   52   65 1   
    57   53   65 1   
    58   54   66 1   
    59   55   66 1   
    60   56   67 1   
    61   57   67 1   
@<TRIPOS>SUBSTRUCTURE
     1 DOF         1 TEMP              0 ****  ****    0 ROOT
