@<TRIPOS>MOLECULE
DOF
   71    65     1     0     0
SMALL
bcc


@<TRIPOS>ATOM
      1 C1         -0.5270   -0.5340   -1.6370 c2        1 DOF     -0.095000
      2 C2         -0.9060   -0.4740   -2.9220 c2        1 DOF     -0.173000
      3 C3          1.4840    3.1880    4.4980 c2        1 DOF     -0.174000
      4 C4          2.4230    4.1000    4.7110 cu        1 DOF     -0.071000
      5 C5          3.6440    5.1830   -1.1450 c2        1 DOF     -0.536000
      6 C6          3.6850    3.9230   -1.4650 c1        1 DOF      0.109000
      7 C7          1.3750    1.6510   -2.4330 c3        1 DOF     -0.248000
      8 C8          1.0390    1.2550   -1.0160 c3        1 DOF     -0.143000
      9 C10        -5.8320    0.6700   -1.0850 c1        1 DOF      0.443000
     10 C12         0.9500    0.3680    2.1470 c2        1 DOF      0.316000
     11 C14         2.5350    7.4590    2.0080 c1        1 DOF      0.443000
     12 C16         0.7420    4.8580    0.9070 c2        1 DOF      0.315000
     13 C17        -0.2520   -1.8470   -0.9510 c3        1 DOF     -0.134000
     14 C18        -1.4560   -2.3310   -0.2200 c2        1 DOF     -0.047000
     15 C19        -1.6500   -2.0480    1.0960 c2        1 DOF     -0.191000
     16 C20        -2.8430   -2.4670    1.7690 c2        1 DOF      0.075000
     17 C21        -3.8320   -3.1160    1.0590 c2        1 DOF     -0.234000
     18 C22        -3.6730   -3.5210   -0.2910 c1        1 DOF     -0.045000
     19 C23        -2.4440   -3.1410   -0.9730 c3        1 DOF     -0.205000
     20 N1         -0.3270    0.6620   -0.8050 nx        1 DOF      0.031000
     21 N2          1.2880    2.6040    3.1860 ny        1 DOF      0.013000
     22 N3          3.5190    4.7370    4.1080 n7        1 DOF     -0.206000
     23 N4         -1.0090    5.8490   -0.5630 n2        1 DOF     -0.210000
     24 N5         -5.1130   -3.4590    1.7400 no        1 DOF      0.577000
     25 O1         -7.0080    0.7940   -0.9940 o         1 DOF     -0.223000
     26 O2         -4.6490    0.5580   -1.1830 o         1 DOF     -0.223000
     27 O3          1.4960   -0.4750    1.3890 o         1 DOF     -0.563000
     28 O4         -0.3040    0.5790    2.1320 o         1 DOF     -0.563000
     29 O5          2.4060    7.3550    3.1890 o         1 DOF     -0.223000
     30 O6          2.7040    7.6400    0.8440 o         1 DOF     -0.223000
     31 O7          0.2650    3.6790    0.9080 o         1 DOF     -0.609500
     32 O8          1.7430    5.1350    1.6450 o         1 DOF     -0.609500
     33 O9         -6.1450   -3.3850    1.1370 o         1 DOF     -0.356500
     34 O10        -5.0710   -3.7680    2.9030 o         1 DOF     -0.356500
     35 HC1        -2.3930    1.2000   -0.8230 hx        1 DOF      0.139667
     36 HC21       -1.0430   -1.3950   -3.5080 ha        1 DOF      0.144000
     37 HC22       -1.0990    0.4610   -3.4650 ha        1 DOF      0.144000
     38 HC31        0.7930    2.8250    5.2770 hx        1 DOF      0.184000
     39 HC32        1.7130    3.2100    2.4440 hn        1 DOF      0.287500
     40 HC41        4.1220    0.5750    0.5230 ha        1 DOF      0.003500
     41 HC42        3.6320    0.1650    0.7490 ha        1 DOF      0.003500
     42 HC51        3.1410    5.5500   -0.2230 ha        1 DOF      0.208000
     43 HC52        4.0800    6.0020   -1.7360 ha        1 DOF      0.208000
     44 HC61        3.1270    2.6280    0.5650 ha        1 DOF      0.003500
     45 HC62        2.8530    3.2470    0.6390 ha        1 DOF      0.003500
     46 HC71        1.4100    0.7670   -3.1130 hc        1 DOF      0.103000
     47 HC72        2.3900    2.1360   -2.4100 hc        1 DOF      0.103000
     48 HC81        0.6480    2.3930   -2.8430 hc        1 DOF      0.103000
     49 HC82        1.7840    0.4910   -0.6350 hx        1 DOF      0.168000
     50 HC91       -1.2210    2.4980   -0.2310 hx        1 DOF      0.139667
     51 HC92       -1.3440    2.1090   -2.0210 hx        1 DOF      0.139667
     52 H111        2.8760    1.2630    2.6820 hx        1 DOF      0.135000
     53 H112        1.8350    0.7390    4.0990 hx        1 DOF      0.135000
     54 H131        2.6260    6.1040    5.6570 h1        1 DOF      0.138500
     55 H132        3.8660    4.8690    6.2600 h1        1 DOF      0.138500
     56 H151        0.7400    6.8220   -0.1140 h4        1 DOF      0.153000
     57 H152        1.0900    2.1660   -0.3400 hx        1 DOF      0.168000
     58 H171        0.6170   -1.7410   -0.2310 hc        1 DOF      0.146000
     59 H172        0.0470   -2.5990   -1.7310 hc        1 DOF      0.146000
     60 H19        -0.9070   -1.4580    1.6750 ha        1 DOF      0.208000
     61 H20        -2.9390   -2.2420    2.8480 ha        1 DOF      0.174000
     62 H22        -1.9610   -4.1120   -1.3070 hc        1 DOF      0.172000
     63 H23        -2.7410   -2.6030   -1.9240 hc        1 DOF      0.172000
     64 C9         -1.3910    1.6770   -0.9890 c3        1 DOF     -0.196000
     65 C11         1.8260    1.2190    3.0830 c3        1 DOF     -0.188000
     66 C13         3.1330    5.1310    5.4660 cx        1 DOF     -0.087000
     67 C15         0.1210    5.9110    0.0250 c2        1 DOF     -0.112000
     68 H11        -0.3690    0.3510    0.2020 hn        1 DOF      0.311000
     69 H21         0.2720    2.5760    2.9630 hn        1 DOF      0.287500
     70 H31         3.3420    5.3520    3.3330 hn        1 DOF      0.220000
     71 H41        -1.5250    5.0040   -0.4050 hn        1 DOF      0.133000
@<TRIPOS>BOND
     1    1    2 1   
     2    1   13 1   
     3    1   20 1   
     4    2   36 1   
     5    2   37 1   
     6    3    4 1   
     7    3   21 1   
     8    3   38 1   
     9    4   22 1   
    10    4   66 1   
    11    5    6 1   
    12    5   42 1   
    13    5   43 1   
    14    7    8 1   
    15    7   46 1   
    16    7   47 1   
    17    7   48 1   
    18    8   20 1   
    19    8   49 1   
    20    8   57 1   
    21    9   25 1   
    22    9   26 1   
    23   10   27 1   
    24   10   28 1   
    25   10   65 1   
    26   11   29 1   
    27   11   30 1   
    28   12   31 1   
    29   12   32 1   
    30   12   67 1   
    31   13   14 1   
    32   13   58 1   
    33   13   59 1   
    34   14   15 1   
    35   14   19 1   
    36   15   16 1   
    37   15   60 1   
    38   16   17 1   
    39   16   61 1   
    40   17   18 1   
    41   17   24 1   
    42   18   19 1   
    43   19   62 1   
    44   19   63 1   
    45   20   64 1   
    46   20   68 1   
    47   21   39 1   
    48   21   65 1   
    49   21   69 1   
    50   22   66 1   
    51   22   70 1   
    52   23   67 1   
    53   23   71 1   
    54   24   33 1   
    55   24   34 1   
    56   35   64 1   
    57   40   41 1   
    58   44   45 1   
    59   50   64 1   
    60   51   64 1   
    61   52   65 1   
    62   53   65 1   
    63   54   66 1   
    64   55   66 1   
    65   56   67 1   
@<TRIPOS>SUBSTRUCTURE
     1 DOF         1 TEMP              0 ****  ****    0 ROOT
