@<TRIPOS>MOLECULE
DOF
   67    66     1     0     0
SMALL
bcc


@<TRIPOS>ATOM
      1 C1          0.2360   -1.1970   -1.3330 c3        1 DOF      0.021000
      2 C2          1.7690   -1.0990   -1.3190 c3        1 DOF     -0.100000
      3 C3          2.6460    0.1470    0.6030 c3        1 DOF     -0.088000
      4 C4          1.7430    0.4980    1.8890 c3        1 DOF     -0.067000
      5 C5          0.9660    2.8170    1.4430 c3        1 DOF     -0.095000
      6 C6         -0.4880    2.2240    1.5470 c3        1 DOF     -0.104000
      7 C7         -0.4410    1.8720   -0.8940 c3        1 DOF     -0.088000
      8 C8         -1.2440    0.7110   -1.5130 c3        1 DOF     -0.046000
      9 C9          0.7900    0.5140   -2.8500 c3        1 DOF     -0.107000
     10 C10         0.3870    0.9540   -4.2650 c2        1 DOF      0.324000
     11 C11         3.4480   -2.0800    0.1230 c3        1 DOF     -0.118000
     12 C12         3.8240   -2.3770    1.5810 c2        1 DOF      0.334000
     13 C13         1.6740    2.1310    3.6620 c3        1 DOF     -0.109000
     14 C14         2.9490    2.5830    4.3510 c2        1 DOF      0.334000
     15 C15        -1.3760    3.9040    0.0530 c3        1 DOF     -0.116000
     16 C16        -2.8290    4.3030    0.2920 c2        1 DOF      0.335000
     17 C17        -0.1820   -2.5900   -1.7590 c3        1 DOF     -0.175000
     18 C18        -1.6030   -2.9060   -1.1810 c2        1 DOF      0.059000
     19 C19        -1.7280   -3.6810   -0.0390 c2        1 DOF     -0.157000
     20 C20        -2.9930   -4.0800    0.3980 c1        1 DOF     -0.082000
     21 C21        -4.1200   -3.7000   -0.3090 c1        1 DOF     -0.184000
     22 C22        -3.9930   -2.9220   -1.4550 c1        1 DOF     -0.082000
     23 C23        -2.7370   -2.5260   -1.8910 c1        1 DOF     -0.128000
     24 N1         -0.2940   -0.2390   -2.2500 n3        1 DOF     -0.289000
     25 N2          2.2760   -1.2110    0.0900 n3        1 DOF     -0.252000
     26 N3          1.9280    1.9490    2.2520 n3        1 DOF     -0.260000
     27 N4         -1.2230    2.4690    0.2600 n3        1 DOF     -0.249000
     28 N5         -5.4120   -4.0780    0.1530 no        1 DOF      0.574000
     29 O1          1.1020    1.7880   -4.8970 o         1 DOF     -0.604500
     30 O2         -0.6170    0.4280   -4.8280 o         1 DOF     -0.604500
     31 O3          4.9700   -2.0530    2.0190 o         1 DOF     -0.597000
     32 O4          2.9900   -2.9340    2.3470 o         1 DOF     -0.597000
     33 O5          3.5190    3.6480    3.9860 o         1 DOF     -0.605500
     34 O6          3.3820    1.9490    5.3550 o         1 DOF     -0.605500
     35 O7         -3.4890    4.8660   -0.6270 o         1 DOF     -0.604000
     36 O8         -3.3500    4.1320    1.4270 o         1 DOF     -0.604000
     37 O9         -5.5290   -4.6900    1.2030 o         1 DOF     -0.421500
     38 O10        -6.5110   -3.8030   -0.6010 o         1 DOF     -0.421500
     39 HC1        -0.1080   -1.0150   -0.4390 h1        1 DOF      0.099000
     40 HC21        2.1470   -1.8250   -1.8610 h1        1 DOF      0.066000
     41 HC22        2.0420   -0.2370   -1.6950 h1        1 DOF      0.066000
     42 HC31        3.5970    0.1540    0.8570 h1        1 DOF      0.076000
     43 HC32        2.4910    0.8130   -0.0960 h1        1 DOF      0.076000
     44 HC41        0.8080    0.3320    1.6840 h1        1 DOF      0.064000
     45 HC42        2.0170   -0.0660    2.6460 h1        1 DOF      0.064000
     46 HC51        1.2450    2.8290    0.5110 h1        1 DOF      0.096000
     47 HC52        0.9740    3.7370    1.8010 h1        1 DOF      0.096000
     48 HC61       -0.4360    1.2670    1.7130 h1        1 DOF      0.096500
     49 HC62       -0.9710    2.6620    2.2930 h1        1 DOF      0.096500
     50 HC71       -0.2850    2.5600   -1.5730 h1        1 DOF      0.076000
     51 HC72        0.4150    1.5370   -0.5680 h1        1 DOF      0.076000
     52 HC81       -1.9010    1.0690   -2.1440 h1        1 DOF      0.085500
     53 HC82       -1.7070    0.2230   -0.8050 h1        1 DOF      0.085500
     54 HC91        1.5920   -0.0500   -2.8990 h1        1 DOF      0.060000
     55 HC92        0.9790    1.3020   -2.3050 h1        1 DOF      0.060000
     56 H111        3.2460   -2.9200   -0.3390 h1        1 DOF      0.042500
     57 H112        4.1960   -1.6350   -0.3220 h1        1 DOF      0.042500
     58 H131        1.3760    1.2860    4.0510 h1        1 DOF      0.051500
     59 H132        0.9790    2.8110    3.7840 h1        1 DOF      0.051500
     60 H151       -1.1250    4.1290   -0.8610 h1        1 DOF      0.051000
     61 H152       -0.8000    4.3860    0.6760 h1        1 DOF      0.051000
     62 H171        0.4620   -3.2430   -1.4180 hc        1 DOF      0.135000
     63 H172       -0.2100   -2.6380   -2.7370 hc        1 DOF      0.135000
     64 H19        -0.9350   -3.9480    0.4580 ha        1 DOF      0.169000
     65 H20        -3.0860   -4.5860    1.2320 ha        1 DOF      0.140000
     66 H22        -4.7950   -2.6530   -1.9570 ha        1 DOF      0.144000
     67 H23        -2.6480   -2.0020   -2.7060 ha        1 DOF      0.231000
@<TRIPOS>BOND
     1    1    2 1   
     2    1   17 1   
     3    1   24 1   
     4    1   39 1   
     5    2   25 1   
     6    2   40 1   
     7    2   41 1   
     8    3    4 1   
     9    3   25 1   
    10    3   42 1   
    11    3   43 1   
    12    4   26 1   
    13    4   44 1   
    14    4   45 1   
    15    5    6 1   
    16    5   26 1   
    17    5   46 1   
    18    5   47 1   
    19    6   27 1   
    20    6   48 1   
    21    6   49 1   
    22    7    8 1   
    23    7   27 1   
    24    7   50 1   
    25    7   51 1   
    26    8   24 1   
    27    8   52 1   
    28    8   53 1   
    29    9   10 1   
    30    9   24 1   
    31    9   54 1   
    32    9   55 1   
    33   10   29 1   
    34   10   30 1   
    35   11   12 1   
    36   11   25 1   
    37   11   56 1   
    38   11   57 1   
    39   12   31 1   
    40   12   32 1   
    41   13   14 1   
    42   13   26 1   
    43   13   58 1   
    44   13   59 1   
    45   14   33 1   
    46   14   34 1   
    47   15   16 1   
    48   15   27 1   
    49   15   60 1   
    50   15   61 1   
    51   16   35 1   
    52   16   36 1   
    53   17   18 1   
    54   17   62 1   
    55   17   63 1   
    56   18   19 1   
    57   18   23 1   
    58   19   20 1   
    59   19   64 1   
    60   20   65 1   
    61   21   22 1   
    62   21   28 1   
    63   22   66 1   
    64   23   67 1   
    65   28   37 1   
    66   28   38 1   
@<TRIPOS>SUBSTRUCTURE
     1 DOF         1 TEMP              0 ****  ****    0 ROOT
