@<TRIPOS>MOLECULE
DOG
   62    65     1     0     0
SMALL
bcc


@<TRIPOS>ATOM
      1 O23        -0.3640    3.3130   -5.0980 o         1 DOG     -0.277000
      2 C23        -0.6160    3.1990   -3.9110 c1        1 DOG      0.320000
      3 C22         0.1940    2.5580   -2.9510 c1        1 DOG     -0.217000
      4 O21        -1.5280    4.1290   -3.0810 os        1 DOG     -0.254000
      5 C21        -0.9370    4.0590   -1.5930 c3        1 DOG     -0.023000
      6 C20         0.0080    2.9700   -1.7230 c2        1 DOG     -0.069000
      7 C17         0.9700    2.8260   -0.8320 c3        1 DOG     -0.069000
      8 C16         1.9910    1.5790   -1.4900 c3        1 DOG     -0.150000
      9 C13         0.3490    2.2030    0.2710 c3        1 DOG     -0.043000
     10 C18         0.0830    3.2330    1.4150 c3        1 DOG     -0.208000
     11 C12        -0.6690    1.7090   -0.1020 c3        1 DOG      0.049000
     12 O12        -1.6260    1.4200    1.3520 oh        1 DOG     -0.327000
     13 C14         1.4370    1.0100    0.7750 c3        1 DOG      0.103000
     14 C15         2.5200    0.8710   -0.4150 c3        1 DOG     -0.195000
     15 O14         2.0890    1.4620    1.9160 oh        1 DOG     -0.321000
     16 C8          0.9140   -0.0980    1.0280 c3        1 DOG     -0.114000
     17 C7          0.2860   -0.1090    1.8130 c3        1 DOG     -0.160000
     18 C9          0.3740   -0.3810   -0.2660 c3        1 DOG     -0.078000
     19 C11        -0.7200    0.6550   -0.7560 c3        1 DOG     -0.152000
     20 C10        -0.3480   -1.7830   -0.0280 c3        1 DOG     -0.036000
     21 C19        -1.2020   -2.0750   -1.2400 c3        1 DOG     -0.211000
     22 C5         -1.1040   -1.7730    0.9800 c3        1 DOG     -0.091000
     23 C6         -0.5090   -1.4150    1.9800 c3        1 DOG     -0.152000
     24 C4         -1.7460   -3.3130    1.3130 c3        1 DOG     -0.151000
     25 C3         -0.6400   -4.4100    1.4240 c3        1 DOG      0.032000
     26 O32        -1.2920   -5.7370    1.5100 oh        1 DOG     -0.328000
     27 C2          0.2160   -4.4040    0.3420 c3        1 DOG     -0.191000
     28 C1          0.8260   -2.9810    0.0630 c3        1 DOG     -0.144000
     29 H22         0.5350    1.6550   -3.1200 ha        1 DOG      0.180000
     30 H211       -1.6440    3.9230   -0.9150 h1        1 DOG      0.121000
     31 H212       -0.5120    4.8910   -1.2900 h1        1 DOG      0.121000
     32 H17         1.3280    3.7370   -0.7300 hc        1 DOG      0.105000
     33 H161        1.4650    0.9820   -2.0540 hc        1 DOG      0.090000
     34 H162        2.7230    1.9870   -2.0200 hc        1 DOG      0.090000
     35 H181       -0.0250    4.1420    1.0260 hc        1 DOG      0.086000
     36 H182        0.8420    3.2330    2.0410 hc        1 DOG      0.086000
     37 H183       -0.7300    2.9860    1.8920 hc        1 DOG      0.086000
     38 H12        -1.1380    2.3940   -0.6310 h1        1 DOG      0.066000
     39 H12O       -2.3970    1.8750    1.2990 ho        1 DOG      0.200000
     40 H151        3.3860    1.2660   -0.1390 hc        1 DOG      0.094500
     41 H152        2.6390   -0.0690   -0.6560 hc        1 DOG      0.094500
     42 H14O        2.9640    1.4360    1.7850 ho        1 DOG      0.201000
     43 HC8         1.6380   -0.7470    1.2080 hc        1 DOG      0.081000
     44 HC71       -0.3470    0.6250    1.7100 hc        1 DOG      0.101500
     45 HC72        0.8140    0.0440    2.6380 hc        1 DOG      0.101500
     46 HC9         1.0910   -0.4690   -0.9290 hc        1 DOG      0.079000
     47 H111       -0.5690    0.8590   -1.7100 hc        1 DOG      0.100000
     48 H112       -1.6090    0.2560   -0.6500 hc        1 DOG      0.100000
     49 H191       -1.2770   -3.0480   -1.3600 hc        1 DOG      0.077333
     50 H192       -2.0950   -1.6900   -1.1110 hc        1 DOG      0.077333
     51 H193       -0.7890   -1.6810   -2.0320 hc        1 DOG      0.077333
     52 HC5        -1.8410   -1.1540    0.8130 hc        1 DOG      0.095000
     53 HC61        0.1180   -2.1320    2.2460 hc        1 DOG      0.079000
     54 HC62       -1.1670   -1.2890    2.7070 hc        1 DOG      0.079000
     55 HC41       -2.2400   -3.2740    2.1600 hc        1 DOG      0.095500
     56 HC42       -2.3680   -3.5600    0.5910 hc        1 DOG      0.095500
     57 HC3        -0.1250   -4.2570    2.2340 h1        1 DOG      0.071000
     58 H32O       -1.0490   -6.1360    2.2570 ho        1 DOG      0.197000
     59 HC21        0.9410   -5.0290    0.5110 hc        1 DOG      0.085500
     60 HC22       -0.2830   -4.7020   -0.4640 hc        1 DOG      0.085500
     61 HC11        1.3160   -3.0090   -0.7830 hc        1 DOG      0.079000
     62 HC12        1.4450   -2.7600    0.7790 hc        1 DOG      0.079000
@<TRIPOS>BOND
     1    1    2 1   
     2    2    4 1   
     3    3    6 1   
     4    3   29 1   
     5    4    5 1   
     6    5    6 1   
     7    5   30 1   
     8    5   31 1   
     9    6    7 1   
    10    7    8 1   
    11    7    9 1   
    12    7   32 1   
    13    8   14 1   
    14    8   33 1   
    15    8   34 1   
    16    9   10 1   
    17    9   11 1   
    18    9   13 1   
    19   10   35 1   
    20   10   36 1   
    21   10   37 1   
    22   11   12 1   
    23   11   19 1   
    24   11   38 1   
    25   12   39 1   
    26   13   14 1   
    27   13   15 1   
    28   13   16 1   
    29   14   40 1   
    30   14   41 1   
    31   15   42 1   
    32   16   17 1   
    33   16   18 1   
    34   16   43 1   
    35   17   23 1   
    36   17   44 1   
    37   17   45 1   
    38   18   19 1   
    39   18   20 1   
    40   18   46 1   
    41   19   47 1   
    42   19   48 1   
    43   20   21 1   
    44   20   22 1   
    45   20   28 1   
    46   21   49 1   
    47   21   50 1   
    48   21   51 1   
    49   22   23 1   
    50   22   24 1   
    51   22   52 1   
    52   23   53 1   
    53   23   54 1   
    54   24   25 1   
    55   24   55 1   
    56   24   56 1   
    57   25   26 1   
    58   25   27 1   
    59   25   57 1   
    60   26   58 1   
    61   27   28 1   
    62   27   59 1   
    63   27   60 1   
    64   28   61 1   
    65   28   62 1   
@<TRIPOS>SUBSTRUCTURE
     1 DOG         1 TEMP              0 ****  ****    0 ROOT
