@<TRIPOS>MOLECULE
DOG
   62    66     1     0     0
SMALL
bcc


@<TRIPOS>ATOM
      1 O23         0.4180   -0.2870   -7.1180 o         1 DOG     -0.565500
      2 C23         0.1770    0.0050   -5.9540 c         1 DOG      0.706800
      3 C22         1.0050    0.3820   -4.7850 ce        1 DOG     -0.246200
      4 O21        -1.1660    0.0020   -5.5770 os        1 DOG     -0.421900
      5 C21        -1.2480    0.3740   -4.1770 c3        1 DOG      0.133600
      6 C20         0.1820    0.6000   -3.7300 c2        1 DOG     -0.062400
      7 C17         0.5800    1.0100   -2.3680 c3        1 DOG     -0.019500
      8 C16        -0.3100    2.1200   -1.7920 c3        1 DOG     -0.074400
      9 C13         0.5590   -0.1410   -1.3210 c3        1 DOG     -0.012000
     10 C18         0.6910   -1.5120   -1.9440 c3        1 DOG     -0.078100
     11 C12         1.7270    0.1310   -0.3470 c3        1 DOG      0.144100
     12 O12         2.9300   -0.1700   -1.0460 oh        1 DOG     -0.598800
     13 C14        -0.7940    0.0400   -0.5670 c3        1 DOG      0.157800
     14 C15        -1.0420    1.5590   -0.5820 c3        1 DOG     -0.108400
     15 O14        -1.7740   -0.6150   -1.3810 oh        1 DOG     -0.603800
     16 C8         -0.8500   -0.6020    0.8330 c3        1 DOG     -0.080700
     17 C7         -2.1440   -0.2290    1.5410 c3        1 DOG     -0.077400
     18 C9          0.3670   -0.2650    1.6960 c3        1 DOG     -0.039700
     19 C11         1.6220   -0.6710    0.9420 c3        1 DOG     -0.112400
     20 C10         0.2870   -0.9060    3.0930 c3        1 DOG     -0.033000
     21 C19         0.3710   -2.4280    3.0030 c3        1 DOG     -0.091100
     22 C5         -1.0320   -0.5120    3.7840 c3        1 DOG     -0.054700
     23 C6         -2.2310   -0.8530    2.9160 c3        1 DOG     -0.073400
     24 C4         -1.0830    0.9530    4.1920 c3        1 DOG     -0.068400
     25 C3          0.1040    1.3690    5.0520 c3        1 DOG      0.142100
     26 O32        -0.0440    0.7260    6.3130 oh        1 DOG     -0.598800
     27 C2          1.4160    1.0020    4.3680 c3        1 DOG     -0.111400
     28 C1          1.4480   -0.4610    3.9950 c3        1 DOG     -0.071400
     29 H22         2.0910    0.4450   -4.8410 ha        1 DOG      0.179000
     30 H211       -1.7380   -0.4730   -3.6320 h1        1 DOG      0.090200
     31 H212       -1.8710    1.3000   -4.1240 h1        1 DOG      0.090200
     32 H17         1.6420    1.3880   -2.4420 hc        1 DOG      0.079700
     33 H161        0.3260    2.9910   -1.4910 hc        1 DOG      0.049200
     34 H162       -1.0380    2.4900   -2.5560 hc        1 DOG      0.049200
     35 H181        1.6660   -1.5920   -2.4830 hc        1 DOG      0.050033
     36 H182        0.6480   -2.2970   -1.1520 hc        1 DOG      0.050033
     37 H183       -0.1430   -1.6990   -2.6640 hc        1 DOG      0.050033
     38 H12         1.7310    1.2320   -0.0890 h1        1 DOG      0.031700
     39 H12O        3.6470   -0.1110   -0.4030 ho        1 DOG      0.402000
     40 H151       -0.6490    2.0170    0.3600 hc        1 DOG      0.051200
     41 H152       -2.1370    1.7780   -0.6370 hc        1 DOG      0.051200
     42 H14O       -2.6390   -0.3980   -1.0150 ho        1 DOG      0.402000
     43 HC8        -0.8570   -1.7170    0.6540 hc        1 DOG      0.071700
     44 HC71       -3.0210   -0.5810    0.9350 hc        1 DOG      0.038200
     45 HC72       -2.2240    0.8870    1.6250 hc        1 DOG      0.038200
     46 HC9         0.3910    0.8520    1.8480 hc        1 DOG      0.048700
     47 H111        2.5340   -0.4710    1.5620 hc        1 DOG      0.054700
     48 H112        1.6050   -1.7670    0.7090 hc        1 DOG      0.054700
     49 H191        0.1860   -2.8830    4.0060 hc        1 DOG      0.038033
     50 H192       -0.3840   -2.8360    2.2900 hc        1 DOG      0.038033
     51 H193        1.3870   -2.7390    2.6590 hc        1 DOG      0.038033
     52 HC5        -1.1010   -1.1170    4.7360 hc        1 DOG      0.067700
     53 HC61       -2.3070   -1.9680    2.8160 hc        1 DOG      0.045200
     54 HC62       -3.1680   -0.4990    3.4230 hc        1 DOG      0.045200
     55 HC41       -2.0270    1.1330    4.7700 hc        1 DOG      0.050200
     56 HC42       -1.0990    1.6130    3.2860 hc        1 DOG      0.050200
     57 HC3         0.0720    2.4850    5.2190 h1        1 DOG      0.030700
     58 H32O        0.7740    0.8770    6.8010 ho        1 DOG      0.399000
     59 HC21        2.2730    1.2260    5.0570 hc        1 DOG      0.043700
     60 HC22        1.5410    1.6440    3.4580 hc        1 DOG      0.043700
     61 HC11        1.3890   -1.0630    4.9440 hc        1 DOG      0.046700
     62 HC12        2.4270   -0.7040    3.5090 hc        1 DOG      0.046700
@<TRIPOS>BOND
     1    1    2 2   
     2    2    3 1   
     3    2    4 1   
     4    3    6 2   
     5    3   29 1   
     6    4    5 1   
     7    5    6 1   
     8    5   30 1   
     9    5   31 1   
    10    6    7 1   
    11    7    8 1   
    12    7    9 1   
    13    7   32 1   
    14    8   14 1   
    15    8   33 1   
    16    8   34 1   
    17    9   10 1   
    18    9   11 1   
    19    9   13 1   
    20   10   35 1   
    21   10   36 1   
    22   10   37 1   
    23   11   12 1   
    24   11   19 1   
    25   11   38 1   
    26   12   39 1   
    27   13   14 1   
    28   13   15 1   
    29   13   16 1   
    30   14   40 1   
    31   14   41 1   
    32   15   42 1   
    33   16   17 1   
    34   16   18 1   
    35   16   43 1   
    36   17   23 1   
    37   17   44 1   
    38   17   45 1   
    39   18   19 1   
    40   18   20 1   
    41   18   46 1   
    42   19   47 1   
    43   19   48 1   
    44   20   21 1   
    45   20   22 1   
    46   20   28 1   
    47   21   49 1   
    48   21   50 1   
    49   21   51 1   
    50   22   23 1   
    51   22   24 1   
    52   22   52 1   
    53   23   53 1   
    54   23   54 1   
    55   24   25 1   
    56   24   55 1   
    57   24   56 1   
    58   25   26 1   
    59   25   27 1   
    60   25   57 1   
    61   26   58 1   
    62   27   28 1   
    63   27   59 1   
    64   27   60 1   
    65   28   61 1   
    66   28   62 1   
@<TRIPOS>SUBSTRUCTURE
     1 DOG         1 TEMP              0 ****  ****    0 ROOT
