@<TRIPOS>MOLECULE
DOG
   62    66     1     0     0
SMALL
bcc


@<TRIPOS>ATOM
      1 O23        -0.1910   -0.1960    0.1240 o         1 DOG     -0.565500
      2 C23         1.0280   -0.1980    0.2290 c         1 DOG      0.706800
      3 C22         1.9740   -0.0280    1.3570 ce        1 DOG     -0.246200
      4 O21         1.7540   -0.4020   -0.9450 os        1 DOG     -0.421900
      5 C21         3.1670   -0.3750   -0.6190 c3        1 DOG      0.133600
      6 C20         3.2360   -0.1260    0.8740 c2        1 DOG     -0.062400
      7 C17         4.4890   -0.0340    1.6510 c3        1 DOG     -0.019500
      8 C16         5.5120   -1.1130    1.2720 c3        1 DOG     -0.074400
      9 C13         5.2310    1.3270    1.5100 c3        1 DOG     -0.012000
     10 C18         4.3190    2.4590    1.0960 c3        1 DOG     -0.078100
     11 C12         5.8770    1.6190    2.8820 c3        1 DOG      0.144100
     12 O12         4.8240    1.9840    3.7690 oh        1 DOG     -0.598800
     13 C14         6.3510    1.0550    0.4600 c3        1 DOG      0.157800
     14 C15         6.7300   -0.4210    0.6760 c3        1 DOG     -0.108400
     15 O14         5.7220    1.2080   -0.8170 oh        1 DOG     -0.603800
     16 C8          7.5420    2.0320    0.5100 c3        1 DOG     -0.080700
     17 C7          8.6440    1.5820   -0.4380 c3        1 DOG     -0.077400
     18 C9          8.0850    2.2450    1.9250 c3        1 DOG     -0.039700
     19 C11         6.9430    2.7030    2.8170 c3        1 DOG     -0.112400
     20 C10         9.2790    3.2140    1.9530 c3        1 DOG     -0.033000
     21 C19         8.8470    4.6260    1.5610 c3        1 DOG     -0.091100
     22 C5         10.3770    2.7340    0.9840 c3        1 DOG     -0.054700
     23 C6          9.8230    2.5290   -0.4160 c3        1 DOG     -0.073400
     24 C4         11.0840    1.4720    1.4560 c3        1 DOG     -0.068400
     25 C3         11.6490    1.6030    2.8650 c3        1 DOG      0.142100
     26 O32        12.7340    2.5210    2.8010 oh        1 DOG     -0.598800
     27 C2         10.5660    2.0580    3.8370 c3        1 DOG     -0.111400
     28 C1          9.8970    3.3230    3.3550 c3        1 DOG     -0.071400
     29 H22         1.6320    0.1510    2.3750 ha        1 DOG      0.179000
     30 H211        3.6340    0.4530   -1.2120 h1        1 DOG      0.090200
     31 H212        3.5870   -1.3680   -0.9140 h1        1 DOG      0.090200
     32 H17         4.2050   -0.1590    2.7380 hc        1 DOG      0.079700
     33 H161        5.0770   -1.8420    0.5430 hc        1 DOG      0.049200
     34 H162        5.8030   -1.6920    2.1850 hc        1 DOG      0.049200
     35 H181        4.9060    3.4030    0.9900 hc        1 DOG      0.050033
     36 H182        3.8360    2.2380    0.1130 hc        1 DOG      0.050033
     37 H183        3.5260    2.6100    1.8690 hc        1 DOG      0.050033
     38 H12         6.3520    0.6670    3.2660 h1        1 DOG      0.031700
     39 H12O        5.2400    2.2760    4.5890 ho        1 DOG      0.402000
     40 H151        7.6010   -0.4920    1.3750 hc        1 DOG      0.051200
     41 H152        7.0290   -0.8960   -0.2910 hc        1 DOG      0.051200
     42 H14O        6.3510    0.9070   -1.4830 ho        1 DOG      0.402000
     43 HC8         7.1390    3.0190    0.1370 hc        1 DOG      0.071700
     44 HC71        8.2450    1.5360   -1.4860 hc        1 DOG      0.038200
     45 HC72        8.9820    0.5480   -0.1630 hc        1 DOG      0.038200
     46 HC9         8.4580    1.2520    2.3100 hc        1 DOG      0.048700
     47 H111        7.3130    2.9030    3.8560 hc        1 DOG      0.054700
     48 H112        6.4960    3.6550    2.4280 hc        1 DOG      0.054700
     49 H191        8.1770    5.0560    2.3450 hc        1 DOG      0.038033
     50 H192        8.3020    4.6300    0.5880 hc        1 DOG      0.038033
     51 H193        9.7420    5.2880    1.4640 hc        1 DOG      0.038033
     52 HC5        11.1580    3.5480    0.9400 hc        1 DOG      0.067700
     53 HC61       10.6340    2.1230   -1.0780 hc        1 DOG      0.045200
     54 HC62        9.5140    3.5220   -0.8380 hc        1 DOG      0.045200
     55 HC41       10.3810    0.6000    1.4480 hc        1 DOG      0.050200
     56 HC42       11.9270    1.2470    0.7500 hc        1 DOG      0.050200
     57 HC3        12.0510    0.6030    3.2010 h1        1 DOG      0.030700
     58 H32O       12.9970    2.7080    3.7100 ho        1 DOG      0.399000
     59 HC21        9.8150    1.2350    3.9530 hc        1 DOG      0.043700
     60 HC22       11.0210    2.2420    4.8460 hc        1 DOG      0.043700
     61 HC11       10.6740    4.1360    3.3200 hc        1 DOG      0.046700
     62 HC12        9.1180    3.6420    4.0930 hc        1 DOG      0.046700
@<TRIPOS>BOND
     1    1    2 2   
     2    2    3 1   
     3    2    4 1   
     4    3    6 2   
     5    3   29 1   
     6    4    5 1   
     7    5    6 1   
     8    5   30 1   
     9    5   31 1   
    10    6    7 1   
    11    7    8 1   
    12    7    9 1   
    13    7   32 1   
    14    8   14 1   
    15    8   33 1   
    16    8   34 1   
    17    9   10 1   
    18    9   11 1   
    19    9   13 1   
    20   10   35 1   
    21   10   36 1   
    22   10   37 1   
    23   11   12 1   
    24   11   19 1   
    25   11   38 1   
    26   12   39 1   
    27   13   14 1   
    28   13   15 1   
    29   13   16 1   
    30   14   40 1   
    31   14   41 1   
    32   15   42 1   
    33   16   17 1   
    34   16   18 1   
    35   16   43 1   
    36   17   23 1   
    37   17   44 1   
    38   17   45 1   
    39   18   19 1   
    40   18   20 1   
    41   18   46 1   
    42   19   47 1   
    43   19   48 1   
    44   20   21 1   
    45   20   22 1   
    46   20   28 1   
    47   21   49 1   
    48   21   50 1   
    49   21   51 1   
    50   22   23 1   
    51   22   24 1   
    52   22   52 1   
    53   23   53 1   
    54   23   54 1   
    55   24   25 1   
    56   24   55 1   
    57   24   56 1   
    58   25   26 1   
    59   25   27 1   
    60   25   57 1   
    61   26   58 1   
    62   27   28 1   
    63   27   59 1   
    64   27   60 1   
    65   28   61 1   
    66   28   62 1   
@<TRIPOS>SUBSTRUCTURE
     1 DOG         1 TEMP              0 ****  ****    0 ROOT
