@<TRIPOS>MOLECULE
DOG
   62    66     1     0     0
SMALL
bcc


@<TRIPOS>ATOM
      1 O23        -0.1910   -0.1960    0.1320 o         1 DOG     -0.565500
      2 C23         1.0280   -0.1970    0.2350 c         1 DOG      0.706800
      3 C22         1.9760   -0.0300    1.3620 ce        1 DOG     -0.246200
      4 O21         1.7530   -0.3990   -0.9390 os        1 DOG     -0.421900
      5 C21         3.1670   -0.3710   -0.6160 c3        1 DOG      0.133600
      6 C20         3.2380   -0.1260    0.8780 c2        1 DOG     -0.062400
      7 C17         4.4920   -0.0340    1.6540 c3        1 DOG     -0.019500
      8 C16         5.5140   -1.1120    1.2700 c3        1 DOG     -0.074400
      9 C13         5.2320    1.3260    1.5150 c3        1 DOG     -0.012000
     10 C18         4.3190    2.4600    1.1050 c3        1 DOG     -0.078100
     11 C12         5.8800    1.6160    2.8870 c3        1 DOG      0.144100
     12 O12         4.8290    1.9780    3.7760 oh        1 DOG     -0.598800
     13 C14         6.3520    1.0580    0.4630 c3        1 DOG      0.157800
     14 C15         6.7320   -0.4190    0.6740 c3        1 DOG     -0.108400
     15 O14         5.7200    1.2140   -0.8140 oh        1 DOG     -0.603800
     16 C8          7.5420    2.0350    0.5140 c3        1 DOG     -0.080700
     17 C7          8.6430    1.5890   -0.4370 c3        1 DOG     -0.077400
     18 C9          8.0860    2.2450    1.9280 c3        1 DOG     -0.039700
     19 C11         6.9460    2.7010    2.8220 c3        1 DOG     -0.112400
     20 C10         9.2800    3.2150    1.9570 c3        1 DOG     -0.033000
     21 C19         8.8470    4.6280    1.5690 c3        1 DOG     -0.091100
     22 C5         10.3770    2.7380    0.9860 c3        1 DOG     -0.054700
     23 C6          9.8220    2.5360   -0.4140 c3        1 DOG     -0.073400
     24 C4         11.0860    1.4750    1.4540 c3        1 DOG     -0.068400
     25 C3         11.6520    1.6030    2.8620 c3        1 DOG      0.142100
     26 O32        12.7370    2.5220    2.7980 oh        1 DOG     -0.598800
     27 C2         10.5700    2.0560    3.8360 c3        1 DOG     -0.111400
     28 C1          9.9000    3.3210    3.3580 c3        1 DOG     -0.071400
     29 H22         1.6360    0.1460    2.3820 ha        1 DOG      0.179000
     30 H211        3.5870   -1.3630   -0.9140 h1        1 DOG      0.090200
     31 H212        3.6320    0.4580   -1.2080 h1        1 DOG      0.090200
     32 H17         4.2090   -0.1620    2.7400 hc        1 DOG      0.079700
     33 H161        5.0800   -1.8400    0.5410 hc        1 DOG      0.049200
     34 H162        5.8070   -1.6930    2.1820 hc        1 DOG      0.049200
     35 H181        3.8350    2.2400    0.1220 hc        1 DOG      0.050033
     36 H182        3.5280    2.6090    1.8790 hc        1 DOG      0.050033
     37 H183        4.9060    3.4040    1.0000 hc        1 DOG      0.050033
     38 H12         6.3560    0.6640    3.2680 h1        1 DOG      0.031700
     39 H12O        5.2450    2.2680    4.5960 ho        1 DOG      0.402000
     40 H151        7.6030   -0.4900    1.3720 hc        1 DOG      0.051200
     41 H152        7.0290   -0.8910   -0.2940 hc        1 DOG      0.051200
     42 H14O        6.3490    0.9150   -1.4800 ho        1 DOG      0.402000
     43 HC8         7.1380    3.0230    0.1430 hc        1 DOG      0.071700
     44 HC71        8.9820    0.5540   -0.1660 hc        1 DOG      0.038200
     45 HC72        8.2430    1.5440   -1.4840 hc        1 DOG      0.038200
     46 HC9         8.4610    1.2520    2.3100 hc        1 DOG      0.048700
     47 H111        6.4970    3.6530    2.4360 hc        1 DOG      0.054700
     48 H112        7.3170    2.8990    3.8610 hc        1 DOG      0.054700
     49 H191        8.1780    5.0550    2.3540 hc        1 DOG      0.038033
     50 H192        8.3010    4.6330    0.5970 hc        1 DOG      0.038033
     51 H193        9.7410    5.2900    1.4720 hc        1 DOG      0.038033
     52 HC5        11.1580    3.5520    0.9420 hc        1 DOG      0.067700
     53 HC61       10.6310    2.1320   -1.0790 hc        1 DOG      0.045200
     54 HC62        9.5110    3.5290   -0.8330 hc        1 DOG      0.045200
     55 HC41       10.3830    0.6030    1.4440 hc        1 DOG      0.050200
     56 HC42       11.9270    1.2530    0.7460 hc        1 DOG      0.050200
     57 HC3        12.0560    0.6030    3.1950 h1        1 DOG      0.030700
     58 H32O       13.0010    2.7070    3.7070 ho        1 DOG      0.399000
     59 HC21       11.0270    2.2380    4.8450 hc        1 DOG      0.043700
     60 HC22        9.8200    1.2310    3.9510 hc        1 DOG      0.043700
     61 HC11        9.1210    3.6380    4.0980 hc        1 DOG      0.046700
     62 HC12       10.6760    4.1350    3.3240 hc        1 DOG      0.046700
@<TRIPOS>BOND
     1    1    2 2   
     2    2    3 1   
     3    2    4 1   
     4    3    6 2   
     5    3   29 1   
     6    4    5 1   
     7    5    6 1   
     8    5   30 1   
     9    5   31 1   
    10    6    7 1   
    11    7    8 1   
    12    7    9 1   
    13    7   32 1   
    14    8   14 1   
    15    8   33 1   
    16    8   34 1   
    17    9   10 1   
    18    9   11 1   
    19    9   13 1   
    20   10   35 1   
    21   10   36 1   
    22   10   37 1   
    23   11   12 1   
    24   11   19 1   
    25   11   38 1   
    26   12   39 1   
    27   13   14 1   
    28   13   15 1   
    29   13   16 1   
    30   14   40 1   
    31   14   41 1   
    32   15   42 1   
    33   16   17 1   
    34   16   18 1   
    35   16   43 1   
    36   17   23 1   
    37   17   44 1   
    38   17   45 1   
    39   18   19 1   
    40   18   20 1   
    41   18   46 1   
    42   19   47 1   
    43   19   48 1   
    44   20   21 1   
    45   20   22 1   
    46   20   28 1   
    47   21   49 1   
    48   21   50 1   
    49   21   51 1   
    50   22   23 1   
    51   22   24 1   
    52   22   52 1   
    53   23   53 1   
    54   23   54 1   
    55   24   25 1   
    56   24   55 1   
    57   24   56 1   
    58   25   26 1   
    59   25   27 1   
    60   25   57 1   
    61   26   58 1   
    62   27   28 1   
    63   27   59 1   
    64   27   60 1   
    65   28   61 1   
    66   28   62 1   
@<TRIPOS>SUBSTRUCTURE
     1 DOG         1 TEMP              0 ****  ****    0 ROOT
