@<TRIPOS>MOLECULE
DOH
   15    14     1     0     0
SMALL
bcc


@<TRIPOS>ATOM
      1 N          -1.7920   -0.5870    0.1350 n3        1 DOH     -0.907800
      2 CA         -0.3690   -0.5870    0.1350 c3        1 DOH      0.043500
      3 C           0.1350   -0.5870    1.5600 c         1 DOH      0.920600
      4 O           0.8990   -1.5050    1.9570 o         1 DOH     -0.875300
      5 OXT        -0.2100    0.3310    2.3490 o         1 DOH     -0.875300
      6 CB          0.1350    0.6460   -0.5780 c3        1 DOH      0.055100
      7 CG          1.6330    0.7520   -0.4050 c         1 DOH      0.875600
      8 OG1        -0.1740    0.5560   -1.9480 oh        1 DOH     -0.620800
      9 OD1         2.3940   -0.0550   -1.0010 o         1 DOH     -0.877800
     10 OD2         2.1200    1.6460    0.3350 o         1 DOH     -0.877800
     11 HN1        -2.0960   -1.0120    0.8820 hn        1 DOH      0.333300
     12 HN2        -2.0960   -1.0230   -0.6070 hn        1 DOH      0.333300
     13 HA         -0.0440   -1.3840   -0.3250 h1        1 DOH     -0.004300
     14 HB         -0.2930    1.4380   -0.1990 h1        1 DOH      0.079700
     15 HG1        -0.2430    1.3720   -2.2910 ho        1 DOH      0.397000
@<TRIPOS>BOND
     1    1    2 1   
     2    1   11 1   
     3    1   12 1   
     4    2    3 1   
     5    2    6 1   
     6    2   13 1   
     7    3    4 1   
     8    3    5 1   
     9    6    7 1   
    10    6    8 1   
    11    6   14 1   
    12    7    9 1   
    13    7   10 1   
    14    8   15 1   
@<TRIPOS>SUBSTRUCTURE
     1 DOH         1 TEMP              0 ****  ****    0 ROOT
