@<TRIPOS>MOLECULE
DOH
   15    14     1     0     0
SMALL
bcc


@<TRIPOS>ATOM
      1 N           0.3740    1.7540    0.2400 n3        1 DOH     -0.916800
      2 CA         -0.3520    0.5220    0.4980 c3        1 DOH      0.034500
      3 C          -0.2270    0.0340    1.9720 c         1 DOH      0.918600
      4 O           0.7600    0.3970    2.6790 o         1 DOH     -0.873800
      5 OXT        -1.1550   -0.7000    2.4280 o         1 DOH     -0.873800
      6 CB         -0.0090   -0.6300   -0.4790 c3        1 DOH      0.016100
      7 CG         -0.3190   -0.2270   -1.9380 c         1 DOH      0.885600
      8 OG1         1.3610   -1.0040   -0.3890 oh        1 DOH     -0.629800
      9 OD1         0.5970    0.3980   -2.5660 o         1 DOH     -0.873300
     10 OD2        -1.4230   -0.5390   -2.4680 o         1 DOH     -0.873300
     11 HN1         0.6910    1.7570   -0.7150 hn        1 DOH      0.338300
     12 HN2         1.1830    1.7770    0.8380 hn        1 DOH      0.338300
     13 HA         -1.4460    0.7510    0.3250 h1        1 DOH      0.047700
     14 HB         -0.5850   -1.5420   -0.1750 h1        1 DOH      0.068700
     15 HG1         1.8480   -0.3710   -0.9340 ho        1 DOH      0.394000
@<TRIPOS>BOND
     1    1    2 1   
     2    1   11 1   
     3    1   12 1   
     4    2    3 1   
     5    2    6 1   
     6    2   13 1   
     7    3    4 1   
     8    3    5 1   
     9    6    7 1   
    10    6    8 1   
    11    6   14 1   
    12    7    9 1   
    13    7   10 1   
    14    8   15 1   
@<TRIPOS>SUBSTRUCTURE
     1 DOH         1 TEMP              0 ****  ****    0 ROOT
