@<TRIPOS>MOLECULE
DOI
   36    37     1     0     0
SMALL
bcc


@<TRIPOS>ATOM
      1 PA         -1.5830   -2.6720    1.5830 p5        1 DOI      1.332900
      2 O1A        -0.5920   -3.5530    0.8510 o         1 DOI     -0.939500
      3 O2A        -2.6720   -3.3880    2.3320 o         1 DOI     -0.939500
      4 O3A        -0.9780   -1.4780    2.2690 o         1 DOI     -0.939500
      5 O5'        -2.4190   -1.9690    0.2410 os        1 DOI     -0.572200
      6 P6          0.8520    4.0610  -10.5220 p4        1 DOI      1.583300
      7 O16         2.0250    3.3570  -11.0870 o         1 DOI     -0.849167
      8 O26         1.1050    5.2500   -9.6780 o         1 DOI     -0.849167
      9 O36        -0.4320    4.0030  -11.2570 o         1 DOI     -0.897967
     10 C5'        -1.6480   -1.1850   -0.5830 c3        1 DOI      0.231400
     11 C4'        -1.4110   -1.8830   -1.9400 c3        1 DOI      0.068100
     12 O4'        -1.6570   -0.9500   -3.0170 os        1 DOI     -0.443600
     13 C1'        -0.8790   -1.3650   -4.1650 c3        1 DOI      0.262800
     14 N9         -0.5870   -0.2400   -5.0150 na        1 DOI     -0.237900
     15 C4         -0.5220   -0.2580   -6.4230 cc        1 DOI     -0.035600
     16 N3         -0.7410   -1.2920   -7.2970 nd        1 DOI     -0.559300
     17 C2         -0.5700   -0.8890   -8.5900 cd        1 DOI      0.640200
     18 N1         -0.2360    0.2920   -9.1180 nc        1 DOI     -0.775100
     19 C6         -0.0010    1.3760   -8.2530 c         1 DOI      0.648000
     20 O6          0.3210    2.5050   -8.7170 o         1 DOI     -0.722100
     21 C5         -0.1530    1.0940   -6.8220 cc        1 DOI      0.125800
     22 N7         -0.0100    1.8920   -5.6830 nd        1 DOI     -0.631000
     23 C8         -0.2680    1.0870   -4.6380 cd        1 DOI      0.363400
     24 C2'         0.3560   -2.1220   -3.6090 c3        1 DOI     -0.127400
     25 C3'         0.0230   -2.4160   -2.1410 c3        1 DOI      0.147100
     26 O3'         0.1090   -3.8060   -1.9190 oh        1 DOI     -0.678800
     27 H5'1       -2.1900   -0.2160   -0.7940 h1        1 DOI      0.004200
     28 H5'2       -0.6590   -0.9490   -0.0980 h1        1 DOI      0.004200
     29 H4'        -2.1440   -2.7280   -2.0540 h1        1 DOI      0.056700
     30 H1'        -1.5230   -2.0780   -4.7620 h2        1 DOI      0.060700
     31 H2         -0.7420   -1.7000   -9.3300 h5        1 DOI     -0.017200
     32 H8         -0.2760    1.3730   -3.5830 h5        1 DOI      0.047100
     33 H2'1        0.5060   -3.0670   -4.1820 hc        1 DOI      0.047700
     34 H2'2        1.2860   -1.5110   -3.6840 hc        1 DOI      0.047700
     35 H3'         0.7380   -1.8850   -1.4540 h1        1 DOI      0.043700
     36 HO3'       -0.1390   -3.9460   -0.9750 ho        1 DOI      0.499000
@<TRIPOS>BOND
     1    1    2 1   
     2    1    3 1   
     3    1    4 1   
     4    1    5 1   
     5    5   10 1   
     6    6    7 1   
     7    6    8 1   
     8    6    9 2   
     9   10   11 1   
    10   10   27 1   
    11   10   28 1   
    12   11   12 1   
    13   11   25 1   
    14   11   29 1   
    15   12   13 1   
    16   13   14 1   
    17   13   24 1   
    18   13   30 1   
    19   14   15 1   
    20   14   23 2   
    21   15   16 2   
    22   15   21 1   
    23   16   17 1   
    24   17   18 2   
    25   17   31 1   
    26   18   19 1   
    27   19   20 2   
    28   19   21 1   
    29   21   22 2   
    30   22   23 1   
    31   23   32 1   
    32   24   25 1   
    33   24   33 1   
    34   24   34 1   
    35   25   26 1   
    36   25   35 1   
    37   26   36 1   
@<TRIPOS>SUBSTRUCTURE
     1 DOI         1 TEMP              0 ****  ****    0 ROOT
