@<TRIPOS>MOLECULE
DOI
   36    37     1     0     0
SMALL
bcc


@<TRIPOS>ATOM
      1 PA         60.8230   69.5440   38.5110 p5        1 DOI      1.324900
      2 O1A        59.5700   70.0690   39.1550 o         1 DOI     -0.931500
      3 O2A        60.8350   69.5400   36.9980 o         1 DOI     -0.931500
      4 O3A        62.1160   69.9540   39.1650 o         1 DOI     -0.931500
      5 O5'        60.7330   67.8420   38.7990 os        1 DOI     -0.577200
      6 P6         63.7830   55.8860   37.5990 p4        1 DOI      1.583300
      7 O16        62.9280   55.4080   36.4890 o         1 DOI     -0.849500
      8 O26        63.2410   55.7870   38.9740 o         1 DOI     -0.849500
      9 O36        65.2530   55.8320   37.4360 o         1 DOI     -0.898300
     10 C5'        61.9170   67.1470   38.8040 c3        1 DOI      0.216400
     11 C4'        62.1610   66.4220   37.4630 c3        1 DOI      0.063100
     12 O4'        62.8720   65.1860   37.6860 os        1 DOI     -0.445600
     13 C1'        62.5400   64.2730   36.6110 c3        1 DOI      0.262800
     14 N9         62.6510   62.9070   37.0560 na        1 DOI     -0.237900
     15 C4         63.1780   61.8300   36.3170 cc        1 DOI     -0.035600
     16 N3         63.7030   61.8080   35.0500 nd        1 DOI     -0.559300
     17 C2         64.0980   60.5500   34.6990 cd        1 DOI      0.640200
     18 N1         64.0550   59.3880   35.3580 nc        1 DOI     -0.776100
     19 C6         63.5200   59.3690   36.6580 c         1 DOI      0.648000
     20 O6         63.4600   58.2870   37.3080 o         1 DOI     -0.723100
     21 C5         63.0560   60.6590   37.1750 cc        1 DOI      0.125800
     22 N7         62.4810   61.0350   38.3940 nd        1 DOI     -0.632000
     23 C8         62.2540   62.3560   38.2980 cd        1 DOI      0.364400
     24 C2'        61.1430   64.6950   36.0810 c3        1 DOI     -0.125400
     25 C3'        60.8650   66.0650   36.7110 c3        1 DOI      0.149100
     26 O3'        60.5680   67.0040   35.7020 oh        1 DOI     -0.685800
     27 H5'1       61.8820   66.3630   39.6160 h1        1 DOI      0.009700
     28 H5'2       62.7840   67.8410   38.9980 h1        1 DOI      0.009700
     29 H4'        62.8080   67.0610   36.8000 h1        1 DOI      0.045700
     30 H1'        63.3150   64.4250   35.8000 h2        1 DOI      0.060700
     31 H2         64.5320   60.4920   33.6790 h5        1 DOI     -0.017200
     32 H8         61.8330   63.0020   39.0730 h5        1 DOI      0.047100
     33 H2'1       60.3520   63.9640   36.3690 hc        1 DOI      0.046700
     34 H2'2       61.1710   64.7660   34.9680 hc        1 DOI      0.046700
     35 H3'        60.0070   66.0130   37.4350 h1        1 DOI      0.057700
     36 HO3'       60.5850   67.8970   36.1420 ho        1 DOI      0.504000
@<TRIPOS>BOND
     1    1    2 1   
     2    1    3 1   
     3    1    4 1   
     4    1    5 1   
     5    5   10 1   
     6    6    7 1   
     7    6    8 1   
     8    6    9 2   
     9   10   11 1   
    10   10   27 1   
    11   10   28 1   
    12   11   12 1   
    13   11   25 1   
    14   11   29 1   
    15   12   13 1   
    16   13   14 1   
    17   13   24 1   
    18   13   30 1   
    19   14   15 1   
    20   14   23 2   
    21   15   16 2   
    22   15   21 1   
    23   16   17 1   
    24   17   18 2   
    25   17   31 1   
    26   18   19 1   
    27   19   20 2   
    28   19   21 1   
    29   21   22 2   
    30   22   23 1   
    31   23   32 1   
    32   24   25 1   
    33   24   33 1   
    34   24   34 1   
    35   25   26 1   
    36   25   35 1   
    37   26   36 1   
@<TRIPOS>SUBSTRUCTURE
     1 DOI         1 TEMP              0 ****  ****    0 ROOT
