@<TRIPOS>MOLECULE
DOI
   36    37     1     0     0
SMALL
bcc


@<TRIPOS>ATOM
      1 PA         -1.1940   -2.5620    1.6060 p5        1 DOI      1.324900
      2 O1A        -0.2140   -2.4770    2.7440 o         1 DOI     -0.931500
      3 O2A        -1.1790   -3.8530    0.8180 o         1 DOI     -0.931500
      4 O3A        -2.5580   -1.9840    1.8740 o         1 DOI     -0.931500
      5 O5'        -0.5180   -1.4990    0.4220 os        1 DOI     -0.577200
      6 P6          0.8310    3.8240  -10.6930 p4        1 DOI      1.583300
      7 O16         1.8170    2.9630  -11.3850 o         1 DOI     -0.849500
      8 O26         1.3510    4.9580   -9.8960 o         1 DOI     -0.849500
      9 O36        -0.5250    3.9570  -11.2730 o         1 DOI     -0.898300
     10 C5'        -1.3840   -0.9560   -0.4950 c3        1 DOI      0.216400
     11 C4'        -1.3370   -1.7100   -1.8420 c3        1 DOI      0.063100
     12 O4'        -1.5740   -0.7960   -2.9330 os        1 DOI     -0.445600
     13 C1'        -0.9270   -1.3270   -4.1160 c3        1 DOI      0.262800
     14 N9         -0.5590   -0.2600   -5.0120 na        1 DOI     -0.237900
     15 C4         -0.6640   -0.2780   -6.4170 cc        1 DOI     -0.035600
     16 N3         -1.1280   -1.2650   -7.2500 nd        1 DOI     -0.559300
     17 C2         -1.0520   -0.8840   -8.5580 cd        1 DOI      0.640200
     18 N1         -0.6150    0.2400   -9.1340 nc        1 DOI     -0.776100
     19 C6         -0.1280    1.2730   -8.3130 c         1 DOI      0.648000
     20 O6          0.2970    2.3470   -8.8240 o         1 DOI     -0.723100
     21 C5         -0.1530    1.0080   -6.8720 cc        1 DOI      0.125800
     22 N7          0.2340    1.7720   -5.7660 nd        1 DOI     -0.632000
     23 C8         -0.0150    1.0060   -4.6890 cd        1 DOI      0.364400
     24 C2'         0.2420   -2.2210   -3.6230 c3        1 DOI     -0.125400
     25 C3'         0.0130   -2.3980   -2.1170 c3        1 DOI      0.149100
     26 O3'        -0.0220   -3.7690   -1.7960 oh        1 DOI     -0.685800
     27 H5'1       -1.0890    0.1160   -0.6920 h1        1 DOI      0.009700
     28 H5'2       -2.4420   -0.9840   -0.1070 h1        1 DOI      0.009700
     29 H4'        -2.1560   -2.4800   -1.8720 h1        1 DOI      0.045700
     30 H1'        -1.6930   -1.9650   -4.6510 h2        1 DOI      0.060700
     31 H2         -1.4220   -1.6570   -9.2650 h5        1 DOI     -0.017200
     32 H8          0.1420    1.2840   -3.6440 h5        1 DOI      0.047100
     33 H2'1        0.2080   -3.2040   -4.1490 hc        1 DOI      0.046700
     34 H2'2        1.2350   -1.7510   -3.8150 hc        1 DOI      0.046700
     35 H3'         0.8240   -1.8960   -1.5210 h1        1 DOI      0.057700
     36 HO3'       -0.3570   -3.8260   -0.8600 ho        1 DOI      0.504000
@<TRIPOS>BOND
     1    1    2 1   
     2    1    3 1   
     3    1    4 1   
     4    1    5 1   
     5    5   10 1   
     6    6    7 1   
     7    6    8 1   
     8    6    9 2   
     9   10   11 1   
    10   10   27 1   
    11   10   28 1   
    12   11   12 1   
    13   11   25 1   
    14   11   29 1   
    15   12   13 1   
    16   13   14 1   
    17   13   24 1   
    18   13   30 1   
    19   14   15 1   
    20   14   23 2   
    21   15   16 2   
    22   15   21 1   
    23   16   17 1   
    24   17   18 2   
    25   17   31 1   
    26   18   19 1   
    27   19   20 2   
    28   19   21 1   
    29   21   22 2   
    30   22   23 1   
    31   23   32 1   
    32   24   25 1   
    33   24   33 1   
    34   24   34 1   
    35   25   26 1   
    36   25   35 1   
    37   26   36 1   
@<TRIPOS>SUBSTRUCTURE
     1 DOI         1 TEMP              0 ****  ****    0 ROOT
