@<TRIPOS>MOLECULE
DOM
   44    45     1     0     0
SMALL
bcc


@<TRIPOS>ATOM
      1 C1          0.6450    0.9760   -0.8200 c3        1 DOM      0.329900
      2 C2          2.1400    0.7550   -0.7610 c3        1 DOM      0.123100
      3 C3          2.6410    0.6410    0.6400 c3        1 DOM      0.109100
      4 C4          2.1970    1.7690    1.4860 c3        1 DOM      0.091100
      5 C5          0.6880    1.9890    1.4130 c3        1 DOM      0.074100
      6 C6          0.3370    3.2590    2.1530 c3        1 DOM      0.125400
      7 O1         -0.0080   -0.2020   -0.4070 os        1 DOM     -0.441600
      8 O2          2.4500   -0.4410   -1.4490 oh        1 DOM     -0.605800
      9 O3          4.0890    0.6110    0.6210 oh        1 DOM     -0.610800
     10 O4          2.5630    1.4980    2.8530 oh        1 DOM     -0.610800
     11 O5          0.2040    2.0970    0.0360 os        1 DOM     -0.421600
     12 O6          0.1710    2.9710    3.5310 oh        1 DOM     -0.605800
     13 C1'        -0.8180   -2.8050   -0.2110 c3        1 DOM      0.343900
     14 C2'        -0.7170   -2.7330   -1.6130 c3        1 DOM     -0.171400
     15 C3'        -1.1310   -1.4180   -2.1060 c3        1 DOM      0.098100
     16 C4'        -1.1130   -0.2810   -0.9600 c3        1 DOM      0.120100
     17 C5'        -2.2140   -0.9610    0.0010 c3        1 DOM      0.148100
     18 C6'        -3.4660   -1.1170   -0.7500 c3        1 DOM      0.100400
     19 O1'         0.5340   -2.1620    0.3500 oh        1 DOM     -0.613800
     20 O3'        -2.4210   -1.5220   -2.6140 oh        1 DOM     -0.601800
     21 O5'        -1.8030   -2.2680    0.5160 os        1 DOM     -0.431600
     22 O6'        -4.5250   -1.0560    0.1140 oh        1 DOM     -0.601800
     23 H1          0.4000    1.1660   -1.7260 h2        1 DOM      0.102700
     24 H2          2.6130    1.5400   -1.2250 h1        1 DOM      0.067700
     25 H3          2.3240   -0.1630    1.0120 h1        1 DOM      0.080700
     26 H4          2.6400    2.5640    1.1980 h1        1 DOM      0.056700
     27 H5          0.2170    1.2000    1.8690 h1        1 DOM      0.073700
     28 H61        -0.5190    3.6370    1.7840 h1        1 DOM      0.065700
     29 H62         1.0810    3.9360    2.0350 h1        1 DOM      0.065700
     30 HO2         3.1460   -0.2940   -2.0130 ho        1 DOM      0.434000
     31 HO3         4.3930   -0.1450    1.0880 ho        1 DOM      0.431000
     32 HO4         3.2810    2.0370    3.0950 ho        1 DOM      0.432000
     33 HO6        -0.1610    3.6470    3.9250 ho        1 DOM      0.410000
     34 H1'        -0.7980   -3.7990    0.0270 h2        1 DOM      0.098700
     35 H2'1        0.2160   -2.9000   -1.8780 hc        1 DOM      0.067700
     36 H2'2       -1.3120   -3.4460   -2.0280 hc        1 DOM      0.067700
     37 H3'        -0.5180   -1.1380   -2.8440 h1        1 DOM      0.074700
     38 H4'        -1.4180    0.5900   -1.3070 h1        1 DOM      0.093700
     39 H5'        -2.3760   -0.3700    0.7530 h1        1 DOM      0.104700
     40 H6'1       -3.5430   -0.3930   -1.4180 h1        1 DOM      0.041200
     41 H6'2       -3.4660   -1.9840   -1.2070 h1        1 DOM      0.041200
     42 HO1'        1.0350   -2.7910    0.7000 ho        1 DOM      0.431000
     43 HO3'       -2.3930   -1.4740   -3.5140 ho        1 DOM      0.408000
     44 HO6'       -5.2850   -1.0180   -0.3510 ho        1 DOM      0.405000
@<TRIPOS>BOND
     1    1    2 1   
     2    1    7 1   
     3    1   11 1   
     4    1   23 1   
     5    2    3 1   
     6    2    8 1   
     7    2   24 1   
     8    3    4 1   
     9    3    9 1   
    10    3   25 1   
    11    4    5 1   
    12    4   10 1   
    13    4   26 1   
    14    5    6 1   
    15    5   11 1   
    16    5   27 1   
    17    6   12 1   
    18    6   28 1   
    19    6   29 1   
    20    7   16 1   
    21    8   30 1   
    22    9   31 1   
    23   10   32 1   
    24   12   33 1   
    25   13   14 1   
    26   13   19 1   
    27   13   21 1   
    28   13   34 1   
    29   14   15 1   
    30   14   35 1   
    31   14   36 1   
    32   15   16 1   
    33   15   20 1   
    34   15   37 1   
    35   16   17 1   
    36   16   38 1   
    37   17   18 1   
    38   17   21 1   
    39   17   39 1   
    40   18   22 1   
    41   18   40 1   
    42   18   41 1   
    43   19   42 1   
    44   20   43 1   
    45   22   44 1   
@<TRIPOS>SUBSTRUCTURE
     1 DOM         1 TEMP              0 ****  ****    0 ROOT
