@<TRIPOS>MOLECULE
DOM
   44    45     1     0     0
SMALL
bcc


@<TRIPOS>ATOM
      1 C1         -1.0960    0.7410   -0.9480 c3        1 DOM      0.299900
      2 C2         -1.8050   -0.0190   -2.0850 c3        1 DOM      0.095100
      3 C3         -0.8130   -0.8640   -2.8960 c3        1 DOM      0.074100
      4 C4          0.3950   -0.0080   -3.3100 c3        1 DOM      0.125100
      5 C5          1.0360    0.5660   -2.0370 c3        1 DOM      0.136100
      6 C6          2.2290    1.4660   -2.3580 c3        1 DOM      0.136400
      7 O1         -0.7300   -0.2210    0.0310 os        1 DOM     -0.457600
      8 O2         -2.8510   -0.8320   -1.5970 oh        1 DOM     -0.593800
      9 O3         -1.4070   -1.3380   -4.0930 oh        1 DOM     -0.607800
     10 O4          1.3720   -0.7950   -3.9650 oh        1 DOM     -0.595800
     11 O5          0.0850    1.3910   -1.3560 os        1 DOM     -0.426600
     12 O6          3.0660    1.4500   -1.2110 oh        1 DOM     -0.602800
     13 C1'        -0.0250    0.0500    4.1380 c3        1 DOM      0.340900
     14 C2'        -1.0620    1.0130    3.5800 c3        1 DOM     -0.132400
     15 C3'        -1.5240    0.6120    2.1830 c3        1 DOM      0.117100
     16 C4'        -0.3090    0.3360    1.2780 c3        1 DOM      0.130100
     17 C5'         0.5670   -0.7350    1.9520 c3        1 DOM      0.104100
     18 C6'         1.8370   -1.0280    1.1480 c3        1 DOM      0.136400
     19 O1'        -0.6600   -1.1670    4.4590 oh        1 DOM     -0.627800
     20 O3'        -2.2570    1.6750    1.5910 oh        1 DOM     -0.604800
     21 O5'         1.0120   -0.2710    3.2290 os        1 DOM     -0.457600
     22 O6'         2.7110   -1.8700    1.8670 oh        1 DOM     -0.595800
     23 H1         -1.7460    1.5560   -0.5190 h2        1 DOM      0.122700
     24 H2         -2.3110    0.7290   -2.7600 h1        1 DOM      0.098700
     25 H3         -0.4670   -1.7410   -2.2790 h1        1 DOM      0.062700
     26 H4          0.0570    0.8200   -3.9920 h1        1 DOM      0.057700
     27 H5          1.3590   -0.2710   -1.3570 h1        1 DOM      0.082700
     28 H61         1.8860    2.5110   -2.5740 h1        1 DOM      0.047700
     29 H62         2.7770    1.0440   -3.2430 h1        1 DOM      0.047700
     30 HO2        -2.4930   -1.3660   -0.8740 ho        1 DOM      0.421000
     31 HO3        -2.2590   -1.7220   -3.8450 ho        1 DOM      0.424000
     32 HO4         0.9110   -1.2760   -4.6660 ho        1 DOM      0.425000
     33 HO6         3.8120    2.0270   -1.4090 ho        1 DOM      0.403000
     34 H1'         0.5130    0.4850    5.0300 h2        1 DOM      0.072700
     35 H2'1       -0.6080    2.0370    3.5390 hc        1 DOM      0.071200
     36 H2'2       -1.9420    1.0410    4.2720 hc        1 DOM      0.071200
     37 H3'        -2.1650   -0.3120    2.2370 h1        1 DOM      0.061700
     38 H4'         0.2710    1.2830    1.1030 h1        1 DOM      0.091700
     39 H5'        -0.0300   -1.6780    2.0970 h1        1 DOM      0.069700
     40 H6'1        1.5590   -1.6100    0.2290 h1        1 DOM      0.068200
     41 H6'2        2.3490   -0.0710    0.8590 h1        1 DOM      0.068200
     42 HO1'        0.0280   -1.7930    4.7190 ho        1 DOM      0.423000
     43 HO3'       -3.0460    1.8050    2.1310 ho        1 DOM      0.408000
     44 HO6'        2.9730   -1.3930    2.6650 ho        1 DOM      0.410000
@<TRIPOS>BOND
     1    1    2 1   
     2    1    7 1   
     3    1   11 1   
     4    1   23 1   
     5    2    3 1   
     6    2    8 1   
     7    2   24 1   
     8    3    4 1   
     9    3    9 1   
    10    3   25 1   
    11    4    5 1   
    12    4   10 1   
    13    4   26 1   
    14    5    6 1   
    15    5   11 1   
    16    5   27 1   
    17    6   12 1   
    18    6   28 1   
    19    6   29 1   
    20    7   16 1   
    21    8   30 1   
    22    9   31 1   
    23   10   32 1   
    24   12   33 1   
    25   13   14 1   
    26   13   19 1   
    27   13   21 1   
    28   13   34 1   
    29   14   15 1   
    30   14   35 1   
    31   14   36 1   
    32   15   16 1   
    33   15   20 1   
    34   15   37 1   
    35   16   17 1   
    36   16   38 1   
    37   17   18 1   
    38   17   21 1   
    39   17   39 1   
    40   18   22 1   
    41   18   40 1   
    42   18   41 1   
    43   19   42 1   
    44   20   43 1   
    45   22   44 1   
@<TRIPOS>SUBSTRUCTURE
     1 DOM         1 TEMP              0 ****  ****    0 ROOT
