@<TRIPOS>MOLECULE
DON
   22    21     1     0     0
SMALL
bcc


@<TRIPOS>ATOM
      1 O           4.0510    0.1210    2.0360 o         1 DON     -0.839300
      2 C           3.3640    0.0500    3.0940 c         1 DON      0.888600
      3 OXT         3.8220    0.1940    4.2610 o         1 DON     -0.839300
      4 CA          1.8260   -0.2170    2.9510 c3        1 DON      0.015500
      5 N           1.3850   -0.4760    1.5860 n3        1 DON     -0.892800
      6 CB          1.4530   -1.3350    3.9250 c3        1 DON     -0.061400
      7 C1E        -0.0450   -1.5180    4.0370 c3        1 DON     -0.177400
      8 C1D        -0.4420   -2.5080    5.0900 c         1 DON      0.568100
      9 O1J        -1.3750   -2.3120    5.8750 o         1 DON     -0.548100
     10 C1C         0.3990   -3.7690    5.1370 c3        1 DON     -0.029200
     11 N1B        -0.1240   -4.9370    5.8410 n2        1 DON     -0.226200
     12 N1A        -1.2750   -5.2990    5.6760 n2        1 DON     -0.386400
     13 HA          1.3060    0.7290    3.2840 h1        1 DON      0.043700
     14 H           1.7880    0.2410    1.0050 hn        1 DON      0.331800
     15 H2          1.7960   -1.3420    1.2810 hn        1 DON      0.331800
     16 HB2         1.9350   -2.2930    3.5970 hc        1 DON      0.050200
     17 HB3         1.8900   -1.0600    4.9220 hc        1 DON      0.050200
     18 H1E1       -0.5290   -0.5290    4.2620 hc        1 DON      0.072700
     19 H1E2       -0.4630   -1.8770    3.0570 hc        1 DON      0.072700
     20 H1C1        0.6670   -4.0660    4.0830 h1        1 DON      0.096700
     21 H1C2        1.3570   -3.5060    5.6760 h1        1 DON      0.096700
     22 H1A1       -1.4760   -6.1300    6.2300 hn        1 DON      0.380400
@<TRIPOS>BOND
     1    1    2 1   
     2    2    3 1   
     3    2    4 1   
     4    4    5 1   
     5    4    6 1   
     6    4   13 1   
     7    5   14 1   
     8    5   15 1   
     9    6    7 1   
    10    6   16 1   
    11    6   17 1   
    12    7    8 1   
    13    7   18 1   
    14    7   19 1   
    15    8    9 2   
    16    8   10 1   
    17   10   11 1   
    18   10   20 1   
    19   10   21 1   
    20   11   12 2   
    21   12   22 1   
@<TRIPOS>SUBSTRUCTURE
     1 DON         1 TEMP              0 ****  ****    0 ROOT
