@<TRIPOS>MOLECULE
DOO
   56    61     1     0     0
SMALL
bcc


@<TRIPOS>ATOM
      1 F30        -0.1580    0.2480    0.1460 f         1 DOO     -0.106900
      2 C6          1.1820    0.0870    0.0590 ca        1 DOO      0.145900
      3 C1          1.8850   -0.3440    1.1940 ca        1 DOO     -0.145000
      4 C5          1.8330    0.3650   -1.1650 ca        1 DOO     -0.085000
      5 C4          3.1980    0.1760   -1.2500 cp        1 DOO      0.039000
      6 C7          4.1680    0.3710   -2.3020 cp        1 DOO     -0.374600
      7 C13         4.1380    0.7880   -3.6690 ca        1 DOO      0.757200
      8 N22         2.9010    1.1230   -4.2690 nh        1 DOO     -0.710300
      9 C26         2.9090    1.8260   -5.5610 c3        1 DOO      0.167800
     10 C25         2.4390    0.8600   -6.6610 c3        1 DOO     -0.103700
     11 C27         3.5710    0.2800   -7.5000 c3        1 DOO     -0.099400
     12 C28         3.6630   -1.2080   -7.1200 c3        1 DOO      0.148800
     13 N29         2.5380   -1.5690   -6.2620 n3        1 DOO     -0.809200
     14 C24         1.8100   -0.3550   -5.9060 c3        1 DOO      0.144500
     15 C23         1.9490    0.0100   -4.3970 c3        1 DOO      0.167800
     16 N12         5.3200    0.9300   -4.3510 nb        1 DOO     -0.743000
     17 C11         6.4790    0.6360   -3.6850 ca        1 DOO      0.914300
     18 N10         6.6450    0.1800   -2.3920 nb        1 DOO     -0.761000
     19 C8          5.4710    0.0790   -1.7300 ca        1 DOO      0.543800
     20 N9          5.3220   -0.2740   -0.3580 na        1 DOO     -0.292000
     21 C3          3.9450   -0.2680   -0.0820 ca        1 DOO     -0.032200
     22 C2          3.2810   -0.5050    1.1330 ca        1 DOO     -0.064400
     23 N31         4.0660   -0.8940    2.3060 n4        1 DOO     -0.613400
     24 C32         3.3000   -1.0060    3.5690 c3        1 DOO      0.083100
     25 O14         7.5880    0.8170   -4.5000 os        1 DOO     -0.298400
     26 C15         8.8370    0.5830   -3.9310 ca        1 DOO     -0.178500
     27 C20         9.3250   -0.7180   -3.6870 ca        1 DOO      0.455700
     28 N19        10.5850   -0.9240   -3.2690 nb        1 DOO     -0.689000
     29 C18        11.3750    0.1850   -3.0900 ca        1 DOO      0.667300
     30 C21        12.8000   -0.0340   -2.6490 c3        1 DOO     -0.142400
     31 N17        10.9720    1.4820   -3.3020 nb        1 DOO     -0.689000
     32 C16         9.7090    1.6740   -3.7150 ca        1 DOO      0.455700
     33 H1          1.3130   -0.5380    2.1150 ha        1 DOO      0.169000
     34 H2          1.2460    0.7380   -2.0210 ha        1 DOO      0.194000
     35 H3          3.8980    2.2890   -5.8120 h1        1 DOO      0.080700
     36 H4          2.1580    2.6590   -5.4440 h1        1 DOO      0.080700
     37 H5          1.6810    1.3660   -7.3070 hc        1 DOO      0.077700
     38 H6          4.5430    0.7930   -7.2990 hc        1 DOO      0.064200
     39 H7          3.3450    0.3910   -8.5900 hc        1 DOO      0.064200
     40 H8          3.7000   -1.8510   -8.0410 h1        1 DOO      0.053200
     41 H9          4.6050   -1.3960   -6.5350 h1        1 DOO      0.053200
     42 H10         1.9280   -2.2150   -6.7250 hn        1 DOO      0.365800
     43 H12         0.7160   -0.4540   -6.1390 h1        1 DOO      0.063700
     44 H13         0.9540    0.3990   -4.0430 h1        1 DOO      0.066200
     45 H14         2.2450   -0.8710   -3.7700 h1        1 DOO      0.066200
     46 H15         5.9760   -0.8680    0.0890 hn        1 DOO      0.299700
     47 H16         4.5120   -1.8000    2.1070 hn        1 DOO      0.454300
     48 H17         2.5300   -1.8190    3.4780 hx        1 DOO      0.112700
     49 H18         4.0160   -1.2580    4.3990 hx        1 DOO      0.112700
     50 H19         2.7940   -0.0280    3.7940 hx        1 DOO      0.112700
     51 H20         8.6920   -1.6110   -3.8330 h4        1 DOO      0.043600
     52 H21        13.1140    0.7610   -1.9290 hc        1 DOO      0.071700
     53 H22        13.4630    0.0150   -3.5500 hc        1 DOO      0.071700
     54 H23        12.9230   -1.0330   -2.1660 hc        1 DOO      0.071700
     55 H24         9.3890    2.7170   -3.8960 h4        1 DOO      0.043600
     56 H312        4.8070   -0.1880    2.4320 hn        1 DOO      0.454300
@<TRIPOS>BOND
     1    1    2 1   
     2    2    3 ar  
     3    2    4 ar  
     4    3   22 ar  
     5    3   33 1   
     6    4    5 ar  
     7    4   34 1   
     8    5    6 1   
     9    5   21 ar  
    10    6    7 ar  
    11    6   19 ar  
    12    7    8 1   
    13    7   16 ar  
    14    8    9 1   
    15    8   15 1   
    16    9   10 1   
    17    9   35 1   
    18    9   36 1   
    19   10   11 1   
    20   10   14 1   
    21   10   37 1   
    22   11   12 1   
    23   11   38 1   
    24   11   39 1   
    25   12   13 1   
    26   12   40 1   
    27   12   41 1   
    28   13   14 1   
    29   13   42 1   
    30   14   15 1   
    31   14   43 1   
    32   15   44 1   
    33   15   45 1   
    34   16   17 ar  
    35   17   18 ar  
    36   17   25 1   
    37   18   19 ar  
    38   19   20 1   
    39   20   21 1   
    40   20   46 1   
    41   21   22 ar  
    42   22   23 1   
    43   23   24 1   
    44   23   47 1   
    45   23   56 1   
    46   24   48 1   
    47   24   49 1   
    48   24   50 1   
    49   25   26 1   
    50   26   27 ar  
    51   26   32 ar  
    52   27   28 ar  
    53   27   51 1   
    54   28   29 ar  
    55   29   30 1   
    56   29   31 ar  
    57   30   52 1   
    58   30   53 1   
    59   30   54 1   
    60   31   32 ar  
    61   32   55 1   
@<TRIPOS>SUBSTRUCTURE
     1 DOO         1 TEMP              0 ****  ****    0 ROOT
