@<TRIPOS>MOLECULE
DOO
   55    49     1     0     0
SMALL
bcc


@<TRIPOS>ATOM
      1 F30        -3.2540    4.9450    1.0300 f         1 DOO     -0.108000
      2 C6         -2.6420    3.8920    1.4960 c2        1 DOO      0.103000
      3 C1         -2.6560    3.7410    2.8660 c2        1 DOO     -0.209000
      4 C5         -2.0320    2.9150    0.6830 c1        1 DOO     -0.158000
      5 C4         -1.4420    1.7930    1.2670 c1        1 DOO      0.018000
      6 C7         -0.9050    0.6030    0.7080 c1        1 DOO     -0.040500
      7 C13        -0.5940    0.2290   -0.6210 c1        1 DOO      0.197000
      8 N22        -1.1900    0.0720   -1.9440 n3        1 DOO     -0.205000
      9 C26        -1.4430    1.2790   -2.4700 c3        1 DOO     -0.059000
     10 C25        -1.1740    1.1110   -4.0310 c3        1 DOO     -0.153000
     11 C27        -0.3200    1.9960   -4.4650 c3        1 DOO     -0.180000
     12 C28         0.6150    1.2270   -5.5310 c3        1 DOO     -0.093000
     13 N29         0.7920    0.0120   -5.0590 n3        1 DOO     -0.263000
     14 C24        -0.4540   -0.2640   -4.1910 c3        1 DOO     -0.053000
     15 C23        -0.1110   -0.6360   -2.9480 c3        1 DOO     -0.066000
     16 N12        -0.0100   -0.9470   -0.8610 n1        1 DOO     -0.223000
     17 C11         0.2890   -1.7930    0.1840 c1        1 DOO      0.186000
     18 N10        -0.0170   -1.4240    1.4840 n1        1 DOO     -0.248000
     19 C8         -0.6080   -0.2360    1.7320 c1        1 DOO     -0.040500
     20 N9         -0.9500    0.4080    2.9460 n1        1 DOO     -0.196000
     21 C3         -1.4570    1.6450    2.6450 c1        1 DOO     -0.047000
     22 C2         -2.0650    2.6190    3.4500 c1        1 DOO      0.068000
     23 N31        -1.5040    2.6500    4.7450 n2        1 DOO     -0.278000
     24 C32        -0.8600    3.8480    5.2190 c3        1 DOO     -0.112000
     25 O14         0.2580   -3.2100   -0.0850 os        1 DOO     -0.103000
     26 C15         1.3500   -3.8410    0.5700 c2        1 DOO     -0.061000
     27 C20         2.4770   -4.1950   -0.1490 c2        1 DOO     -0.023000
     28 N19         3.5270   -4.7850    0.4800 n1        1 DOO     -0.167000
     29 C18         3.4700   -5.0290    1.8320 c1        1 DOO      0.028000
     30 C21         4.6630   -5.6440    2.5440 c3        1 DOO     -0.160000
     31 N17         2.3480   -4.6760    2.5490 n1        1 DOO     -0.168000
     32 C16         1.2940   -4.0850    1.9190 c1        1 DOO     -0.016000
     33 H1         -2.9700    4.4780    3.4340 ha        1 DOO      0.153000
     34 H2         -1.9920    3.0450   -0.3140 ha        1 DOO      0.164000
     35 H3         -2.3430    1.5200   -2.3180 h1        1 DOO      0.101000
     36 H4         -0.8550    1.9370   -2.0990 h1        1 DOO      0.101000
     37 H5         -1.9880    1.1380   -4.5290 hc        1 DOO      0.105000
     38 H6          0.2170    2.3290   -3.7300 hc        1 DOO      0.089500
     39 H7         -0.8070    2.7580   -4.9150 hc        1 DOO      0.089500
     40 H8          1.4540    1.6720   -5.6090 h1        1 DOO      0.095000
     41 H9          0.1750    1.1890   -6.3950 h1        1 DOO      0.095000
     42 H10         0.8180   -0.5980   -5.7680 hn        1 DOO      0.147000
     43 H12        -1.0320   -0.9130   -4.6020 h1        1 DOO      0.095000
     44 H13         0.8270   -0.3100   -2.7350 h1        1 DOO      0.118500
     45 H14        -0.1580   -1.6300   -2.8590 h1        1 DOO      0.118500
     46 H15        -0.8170    0.0630    3.8100 DU        1 DOO      0.257000
     47 H16        -1.5280    1.8910    5.2820 hn        1 DOO      0.189000
     48 H17        -1.5470    4.4880    5.5390 h1        1 DOO      0.081333
     49 H18        -0.3410    4.2620    4.4750 h1        1 DOO      0.081333
     50 H19        -0.2640    3.6280    5.9450 h1        1 DOO      0.081333
     51 H20         2.5190   -4.0200   -1.1170 h4        1 DOO      0.180000
     52 H21         4.6270   -5.4260    3.4710 hc        1 DOO      0.103333
     53 H22         5.4960   -5.2890    2.1550 hc        1 DOO      0.103333
     54 H23         4.6420   -6.6040    2.4400 hc        1 DOO      0.103333
     55 H24         0.4700   -3.8250    2.4460 ha        1 DOO      0.180000
@<TRIPOS>BOND
     1    1    2 1   
     2    2    3 1   
     3    2    4 1   
     4    3   22 1   
     5    3   33 1   
     6    4   34 1   
     7    5   21 1   
     8    6   19 1   
     9    7    8 1   
    10    7   16 1   
    11    8    9 1   
    12    8   15 1   
    13    9   10 1   
    14    9   35 1   
    15    9   36 1   
    16   10   11 1   
    17   10   14 1   
    18   10   37 1   
    19   11   12 1   
    20   11   38 1   
    21   11   39 1   
    22   12   13 1   
    23   12   40 1   
    24   12   41 1   
    25   13   14 1   
    26   13   42 1   
    27   14   15 1   
    28   14   43 1   
    29   15   44 1   
    30   15   45 1   
    31   17   18 1   
    32   17   25 1   
    33   20   21 1   
    34   23   24 1   
    35   23   47 1   
    36   24   48 1   
    37   24   49 1   
    38   24   50 1   
    39   25   26 1   
    40   26   27 1   
    41   26   32 1   
    42   27   28 1   
    43   27   51 1   
    44   29   30 1   
    45   29   31 1   
    46   30   52 1   
    47   30   53 1   
    48   30   54 1   
    49   32   55 1   
@<TRIPOS>SUBSTRUCTURE
     1 DOO         1 TEMP              0 ****  ****    0 ROOT
