@<TRIPOS>MOLECULE
DOO
   55    60     1     0     0
SMALL
bcc


@<TRIPOS>ATOM
      1 F30        -5.2300   -3.0290   -0.0790 f         1 DOO     -0.140900
      2 C6         -3.8780   -2.9200   -0.0330 ca        1 DOO      0.136900
      3 C1         -3.1190   -4.0770    0.2300 ca        1 DOO     -0.207000
      4 C5         -3.2830   -1.6680   -0.2580 ca        1 DOO     -0.151000
      5 C4         -1.9000   -1.5870   -0.1950 cp        1 DOO      0.015000
      6 C7         -0.9640   -0.4950   -0.3560 cp        1 DOO     -0.333600
      7 C13        -1.0470    0.8880   -0.6470 ca        1 DOO      0.703200
      8 N22        -2.3330    1.4650   -0.8920 nh        1 DOO     -0.703300
      9 C26        -3.1040    1.7200    0.3380 c3        1 DOO      0.164800
     10 C25        -3.2190    3.2380    0.5620 c3        1 DOO     -0.108700
     11 C27        -2.3660    3.7750    1.7040 c3        1 DOO     -0.096400
     12 C28        -1.4120    4.8010    1.0680 c3        1 DOO      0.149800
     13 N29        -1.4970    4.7250   -0.3880 n3        1 DOO     -0.794200
     14 C24        -2.6500    3.8970   -0.7360 c3        1 DOO      0.142500
     15 C23        -2.3750    2.7000   -1.6840 c3        1 DOO      0.143800
     16 N12         0.0970    1.6400   -0.7290 nb        1 DOO     -0.765000
     17 C11         1.2840    0.9850   -0.5360 ca        1 DOO      0.881300
     18 N10         1.5170   -0.3350   -0.2480 nb        1 DOO     -0.768000
     19 C8          0.3690   -1.0630   -0.1710 ca        1 DOO      0.528800
     20 N9          0.2650   -2.4480    0.0310 na        1 DOO     -0.267000
     21 C3         -1.1130   -2.7630    0.0780 ca        1 DOO     -0.086200
     22 C2         -1.7150   -4.0280    0.2880 ca        1 DOO      0.147600
     23 N31        -0.9090   -5.1370    0.6110 nh        1 DOO     -0.721600
     24 C32        -1.5540   -6.4030    0.8250 c3        1 DOO      0.163100
     25 O14         2.3610    1.8680   -0.6510 os        1 DOO     -0.321400
     26 C15         3.6300    1.3460   -0.4380 ca        1 DOO     -0.148500
     27 C20         4.2480    0.4360   -1.3210 ca        1 DOO      0.445700
     28 N19         5.5290    0.0630   -1.1590 nb        1 DOO     -0.692500
     29 C18         6.2080    0.6020   -0.0950 ca        1 DOO      0.649300
     30 C21         7.6480    0.1970    0.0990 c3        1 DOO     -0.136400
     31 N17         5.6790    1.4880    0.8120 nb        1 DOO     -0.692500
     32 C16         4.3970    1.8490    0.6380 ca        1 DOO      0.445700
     33 H1         -3.6550   -5.0250    0.3890 ha        1 DOO      0.154000
     34 H2         -3.9010   -0.7880   -0.4860 ha        1 DOO      0.166000
     35 H3         -4.1290    1.2910    0.1580 h1        1 DOO      0.062700
     36 H4         -2.6580    1.1990    1.2250 h1        1 DOO      0.062700
     37 H5         -4.2910    3.5150    0.7070 hc        1 DOO      0.069700
     38 H6         -3.0030    4.2640    2.4810 hc        1 DOO      0.049200
     39 H7         -1.7870    2.9600    2.2040 hc        1 DOO      0.049200
     40 H8         -1.7210    5.8420    1.3640 h1        1 DOO      0.047700
     41 H9         -0.3610    4.6410    1.4280 h1        1 DOO      0.047700
     42 H10        -0.6530    4.3360   -0.7700 hn        1 DOO      0.371800
     43 H12        -3.4110    4.5770   -1.2060 h1        1 DOO      0.076700
     44 H13        -1.4620    2.8500   -2.3160 h1        1 DOO      0.074700
     45 H14        -3.2560    2.5820   -2.3760 h1        1 DOO      0.074700
     46 H15         0.9620   -2.9840    0.4860 hn        1 DOO      0.310700
     47 H16        -0.1150   -5.2120    0.0030 hn        1 DOO      0.392800
     48 H17        -2.1180   -6.7760   -0.0730 h1        1 DOO      0.042700
     49 H18        -0.7640   -7.1550    1.0910 h1        1 DOO      0.042700
     50 H19        -2.2700   -6.3140    1.6840 h1        1 DOO      0.042700
     51 H20         3.7000   -0.0090   -2.1710 h4        1 DOO      0.042600
     52 H21         8.3030    1.0960   -0.0230 hc        1 DOO      0.064367
     53 H22         7.7880   -0.2130    1.1290 hc        1 DOO      0.064367
     54 H23         7.9550   -0.5770   -0.6450 hc        1 DOO      0.064367
     55 H24         3.9710    2.5670    1.3620 h4        1 DOO      0.042600
@<TRIPOS>BOND
     1    1    2 1   
     2    2    3 ar  
     3    2    4 ar  
     4    3   22 ar  
     5    3   33 1   
     6    4    5 ar  
     7    4   34 1   
     8    5    6 1   
     9    5   21 ar  
    10    6    7 ar  
    11    6   19 ar  
    12    7    8 1   
    13    7   16 ar  
    14    8    9 1   
    15    8   15 1   
    16    9   10 1   
    17    9   35 1   
    18    9   36 1   
    19   10   11 1   
    20   10   14 1   
    21   10   37 1   
    22   11   12 1   
    23   11   38 1   
    24   11   39 1   
    25   12   13 1   
    26   12   40 1   
    27   12   41 1   
    28   13   14 1   
    29   13   42 1   
    30   14   15 1   
    31   14   43 1   
    32   15   44 1   
    33   15   45 1   
    34   16   17 ar  
    35   17   18 ar  
    36   17   25 1   
    37   18   19 ar  
    38   19   20 1   
    39   20   21 1   
    40   20   46 1   
    41   21   22 ar  
    42   22   23 1   
    43   23   24 1   
    44   23   47 1   
    45   24   48 1   
    46   24   49 1   
    47   24   50 1   
    48   25   26 1   
    49   26   27 ar  
    50   26   32 ar  
    51   27   28 ar  
    52   27   51 1   
    53   28   29 ar  
    54   29   30 1   
    55   29   31 ar  
    56   30   52 1   
    57   30   53 1   
    58   30   54 1   
    59   31   32 ar  
    60   32   55 1   
@<TRIPOS>SUBSTRUCTURE
     1 DOO         1 TEMP              0 ****  ****    0 ROOT
