@<TRIPOS>MOLECULE
DOO
   55    60     1     0     0
SMALL
bcc


@<TRIPOS>ATOM
      1 F30        -0.1620    0.4210    0.1700 f         1 DOO     -0.142900
      2 C6          1.1760    0.2170    0.0700 ca        1 DOO      0.137900
      3 C1          1.8740   -0.2390    1.2050 ca        1 DOO     -0.209000
      4 C5          1.8150    0.4570   -1.1570 ca        1 DOO     -0.157000
      5 C4          3.1830    0.2410   -1.2310 cp        1 DOO      0.019000
      6 C7          4.1580    0.3990   -2.2900 cp        1 DOO     -0.344600
      7 C13         4.1370    0.7760   -3.6590 ca        1 DOO      0.722200
      8 N22         2.8910    1.0920   -4.2730 nh        1 DOO     -0.706300
      9 C26         2.9070    1.7970   -5.5600 c3        1 DOO      0.170800
     10 C25         2.4650    0.8330   -6.6730 c3        1 DOO     -0.107700
     11 C27         3.6180    0.2580   -7.4870 c3        1 DOO     -0.099400
     12 C28         3.6910   -1.2360   -7.1220 c3        1 DOO      0.147800
     13 N29         2.5230   -1.6060   -6.3270 n3        1 DOO     -0.798200
     14 C24         1.8240   -0.3850   -5.9340 c3        1 DOO      0.140500
     15 C23         1.9810   -0.0520   -4.4200 c3        1 DOO      0.170800
     16 N12         5.3160    0.8880   -4.3520 nb        1 DOO     -0.763000
     17 C11         6.4680    0.6200   -3.6650 ca        1 DOO      0.883300
     18 N10         6.6390    0.2120   -2.3670 nb        1 DOO     -0.773000
     19 C8          5.4590    0.0990   -1.6990 ca        1 DOO      0.529800
     20 N9          5.2850   -0.3450   -0.3770 na        1 DOO     -0.264000
     21 C3          3.9120   -0.1910   -0.0660 ca        1 DOO     -0.091200
     22 C2          3.2630   -0.4540    1.1650 ca        1 DOO      0.148600
     23 N31         4.0250   -0.8310    2.2880 nh        1 DOO     -0.722600
     24 C32         3.3330   -1.0890    3.5200 c3        1 DOO      0.164100
     25 O14         7.5880    0.8050   -4.4830 os        1 DOO     -0.323400
     26 C15         8.8300    0.5450   -3.9210 ca        1 DOO     -0.144500
     27 C20         9.2570   -0.7520   -3.5580 ca        1 DOO      0.444200
     28 N19        10.5150   -0.9860   -3.1510 nb        1 DOO     -0.692500
     29 C18        11.3670    0.0910   -3.0990 ca        1 DOO      0.647300
     30 C21        12.7790   -0.1700   -2.6410 c3        1 DOO     -0.135400
     31 N17        11.0290    1.3800   -3.4290 nb        1 DOO     -0.692500
     32 C16         9.7660    1.5990   -3.8310 ca        1 DOO      0.444200
     33 H1          1.3030   -0.4160    2.1290 ha        1 DOO      0.153000
     34 H2          1.2410    0.8180   -2.0210 ha        1 DOO      0.164000
     35 H3          2.1420    2.6190   -5.4560 h1        1 DOO      0.070700
     36 H4          3.8920    2.2760   -5.7960 h1        1 DOO      0.070700
     37 H5          1.7210    1.3370   -7.3360 hc        1 DOO      0.064700
     38 H6          4.5870    0.7610   -7.2470 hc        1 DOO      0.058200
     39 H7          3.4270    0.3840   -8.5810 hc        1 DOO      0.058200
     40 H8          3.7750   -1.8680   -8.0450 h1        1 DOO      0.050700
     41 H9          4.6000   -1.4280   -6.4890 h1        1 DOO      0.050700
     42 H10         1.9070   -2.1940   -6.8580 hn        1 DOO      0.354800
     43 H12         0.7270   -0.4620   -6.1610 h1        1 DOO      0.054700
     44 H13         2.3190   -0.9360   -3.8190 h1        1 DOO      0.070700
     45 H14         0.9790    0.2860   -4.0330 h1        1 DOO      0.070700
     46 H15         5.9980   -0.2730    0.3080 hn        1 DOO      0.307700
     47 H16         4.6890   -1.5470    2.0650 hn        1 DOO      0.393800
     48 H17         2.5860   -1.9260    3.4480 h1        1 DOO      0.042033
     49 H18         4.0970   -1.3550    4.2990 h1        1 DOO      0.042033
     50 H19         2.7960   -0.1590    3.8460 h1        1 DOO      0.042033
     51 H20         8.5690   -1.6160   -3.5860 h4        1 DOO      0.043100
     52 H21        12.7620   -0.5810   -1.6010 hc        1 DOO      0.063700
     53 H22        13.3890    0.7660   -2.6500 hc        1 DOO      0.063700
     54 H23        13.2580   -0.9210   -3.3160 hc        1 DOO      0.063700
     55 H24         9.4940    2.6350   -4.1020 h4        1 DOO      0.043100
@<TRIPOS>BOND
     1    1    2 1   
     2    2    3 ar  
     3    2    4 ar  
     4    3   22 ar  
     5    3   33 1   
     6    4    5 ar  
     7    4   34 1   
     8    5    6 1   
     9    5   21 ar  
    10    6    7 ar  
    11    6   19 ar  
    12    7    8 1   
    13    7   16 ar  
    14    8    9 1   
    15    8   15 1   
    16    9   10 1   
    17    9   35 1   
    18    9   36 1   
    19   10   11 1   
    20   10   14 1   
    21   10   37 1   
    22   11   12 1   
    23   11   38 1   
    24   11   39 1   
    25   12   13 1   
    26   12   40 1   
    27   12   41 1   
    28   13   14 1   
    29   13   42 1   
    30   14   15 1   
    31   14   43 1   
    32   15   44 1   
    33   15   45 1   
    34   16   17 ar  
    35   17   18 ar  
    36   17   25 1   
    37   18   19 ar  
    38   19   20 1   
    39   20   21 1   
    40   20   46 1   
    41   21   22 ar  
    42   22   23 1   
    43   23   24 1   
    44   23   47 1   
    45   24   48 1   
    46   24   49 1   
    47   24   50 1   
    48   25   26 1   
    49   26   27 ar  
    50   26   32 ar  
    51   27   28 ar  
    52   27   51 1   
    53   28   29 ar  
    54   29   30 1   
    55   29   31 ar  
    56   30   52 1   
    57   30   53 1   
    58   30   54 1   
    59   31   32 ar  
    60   32   55 1   
@<TRIPOS>SUBSTRUCTURE
     1 DOO         1 TEMP              0 ****  ****    0 ROOT
