@<TRIPOS>MOLECULE
DOO
   55    60     1     0     0
SMALL
bcc


@<TRIPOS>ATOM
      1 F30        -0.1660    0.3980    0.1690 f         1 DOO     -0.142900
      2 C6          1.1730    0.2020    0.0700 ca        1 DOO      0.137900
      3 C1          1.8740   -0.2440    1.2070 ca        1 DOO     -0.209000
      4 C5          1.8120    0.4410   -1.1590 ca        1 DOO     -0.157000
      5 C4          3.1810    0.2340   -1.2310 cp        1 DOO      0.019000
      6 C7          4.1550    0.3940   -2.2910 cp        1 DOO     -0.344600
      7 C13         4.1320    0.7660   -3.6610 ca        1 DOO      0.722200
      8 N22         2.8840    1.0710   -4.2770 nh        1 DOO     -0.706300
      9 C26         2.8940    1.7710   -5.5660 c3        1 DOO      0.170800
     10 C25         2.4590    0.8000   -6.6760 c3        1 DOO     -0.107700
     11 C27         3.6160    0.2280   -7.4870 c3        1 DOO     -0.099400
     12 C28         3.6980   -1.2630   -7.1160 c3        1 DOO      0.147800
     13 N29         2.5320   -1.6380   -6.3200 n7        1 DOO     -0.798200
     14 C24         1.8260   -0.4190   -5.9310 c3        1 DOO      0.140500
     15 C23         1.9810   -0.0790   -4.4180 c3        1 DOO      0.170800
     16 N12         5.3100    0.8830   -4.3550 nb        1 DOO     -0.763000
     17 C11         6.4640    0.6250   -3.6660 ca        1 DOO      0.883300
     18 N10         6.6370    0.2240   -2.3670 nb        1 DOO     -0.773000
     19 C8          5.4570    0.1050   -1.6980 ca        1 DOO      0.529800
     20 N9          5.2860   -0.3340   -0.3740 na        1 DOO     -0.264000
     21 C3          3.9130   -0.1890   -0.0640 ca        1 DOO     -0.091200
     22 C2          3.2650   -0.4500    1.1680 ca        1 DOO      0.148600
     23 N31         4.0290   -0.8170    2.2920 nu        1 DOO     -0.722600
     24 C32         3.3400   -1.0750    3.5260 c3        1 DOO      0.164100
     25 O14         7.5820    0.8150   -4.4850 os        1 DOO     -0.323400
     26 C15         8.8260    0.5630   -3.9230 ca        1 DOO     -0.144500
     27 C20         9.2600   -0.7290   -3.5550 ca        1 DOO      0.444200
     28 N19        10.5210   -0.9540   -3.1490 nb        1 DOO     -0.693000
     29 C18        11.3660    0.1260   -3.1000 ca        1 DOO      0.647300
     30 C21        12.7840   -0.1090   -2.6460 c3        1 DOO     -0.135400
     31 N17        11.0200    1.4140   -3.4340 nb        1 DOO     -0.693000
     32 C16         9.7560    1.6230   -3.8360 ca        1 DOO      0.444200
     33 H1          1.3050   -0.4220    2.1320 ha        1 DOO      0.153000
     34 H2          1.2350    0.7950   -2.0240 ha        1 DOO      0.164000
     35 H3          3.8770    2.2550   -5.8040 h1        1 DOO      0.070700
     36 H4          2.1250    2.5890   -5.4650 h1        1 DOO      0.070700
     37 H5          1.7120    1.2960   -7.3400 hc        1 DOO      0.064700
     38 H6          3.4240    0.3490   -8.5820 hc        1 DOO      0.058200
     39 H7          4.5820    0.7380   -7.2480 hc        1 DOO      0.058200
     40 H8          4.6090   -1.4480   -6.4820 h1        1 DOO      0.050700
     41 H9          3.7850   -1.8990   -8.0370 h1        1 DOO      0.050700
     42 H10         1.9210   -2.2320   -6.8480 hn        1 DOO      0.354800
     43 H12         0.7290   -0.5050   -6.1580 h1        1 DOO      0.054700
     44 H13         2.3250   -0.9590   -3.8140 h1        1 DOO      0.070700
     45 H14         0.9770    0.2530   -4.0330 h1        1 DOO      0.070700
     46 H15         5.9990   -0.2560    0.3100 hn        1 DOO      0.307700
     47 H16         4.6980   -1.5300    2.0730 hn        1 DOO      0.393800
     48 H17         4.1050   -1.3320    4.3060 h1        1 DOO      0.042033
     49 H18         2.5980   -1.9170    3.4570 h1        1 DOO      0.042033
     50 H19         2.7960   -0.1470    3.8470 h1        1 DOO      0.042033
     51 H20         8.5780   -1.5980   -3.5800 h4        1 DOO      0.043100
     52 H21        13.4890    0.1790   -3.4650 hc        1 DOO      0.064033
     53 H22        12.9540   -1.1810   -2.3840 hc        1 DOO      0.064033
     54 H23        12.9980    0.5220   -1.7490 hc        1 DOO      0.064033
     55 H24         9.4770    2.6560   -4.1110 h4        1 DOO      0.043100
@<TRIPOS>BOND
     1    1    2 1   
     2    2    3 ar  
     3    2    4 ar  
     4    3   22 ar  
     5    3   33 1   
     6    4    5 ar  
     7    4   34 1   
     8    5    6 1   
     9    5   21 ar  
    10    6    7 ar  
    11    6   19 ar  
    12    7    8 1   
    13    7   16 ar  
    14    8    9 1   
    15    8   15 1   
    16    9   10 1   
    17    9   35 1   
    18    9   36 1   
    19   10   11 1   
    20   10   14 1   
    21   10   37 1   
    22   11   12 1   
    23   11   38 1   
    24   11   39 1   
    25   12   13 1   
    26   12   40 1   
    27   12   41 1   
    28   13   14 1   
    29   13   42 1   
    30   14   15 1   
    31   14   43 1   
    32   15   44 1   
    33   15   45 1   
    34   16   17 ar  
    35   17   18 ar  
    36   17   25 1   
    37   18   19 ar  
    38   19   20 1   
    39   20   21 1   
    40   20   46 1   
    41   21   22 ar  
    42   22   23 1   
    43   23   24 1   
    44   23   47 1   
    45   24   48 1   
    46   24   49 1   
    47   24   50 1   
    48   25   26 1   
    49   26   27 ar  
    50   26   32 ar  
    51   27   28 ar  
    52   27   51 1   
    53   28   29 ar  
    54   29   30 1   
    55   29   31 ar  
    56   30   52 1   
    57   30   53 1   
    58   30   54 1   
    59   31   32 ar  
    60   32   55 1   
@<TRIPOS>SUBSTRUCTURE
     1 DOO         1 TEMP              0 ****  ****    0 ROOT
