@<TRIPOS>MOLECULE
DOP
   55    54     1     0     0
SMALL
bcc


@<TRIPOS>ATOM
      1 P          -0.6410    0.0130   -0.9070 p5        1 DOP      1.413800
      2 O1          1.0040    0.0100   -0.7280 os        1 DOP     -0.554200
      3 O1'        -1.0210    0.0100    0.7030 os        1 DOP     -0.554200
      4 O2         -1.0400    1.3180   -1.4700 o         1 DOP     -0.838500
      5 O3         -1.0440   -1.2880   -1.4770 o         1 DOP     -0.838500
      6 C1          1.6290    0.0090   -1.9780 c3        1 DOP      0.166400
      7 C2          3.1360    0.0060   -1.7860 c3        1 DOP     -0.082400
      8 C3          3.8490    0.0050   -3.1190 c3        1 DOP     -0.079400
      9 C4          5.3520    0.0020   -2.9400 c3        1 DOP     -0.077400
     10 C5          6.0670    0.0010   -4.2740 c3        1 DOP     -0.079400
     11 C6          7.5700   -0.0030   -4.0950 c3        1 DOP     -0.079400
     12 C7          8.2870   -0.0030   -5.4290 c3        1 DOP     -0.080400
     13 C8          9.7830   -0.0070   -5.2560 c3        1 DOP     -0.091100
     14 C1'        -2.4080    0.0090    0.8750 c3        1 DOP      0.166400
     15 C2'        -2.7290    0.0060    2.3610 c3        1 DOP     -0.082400
     16 C3'        -4.2250    0.0050    2.5880 c3        1 DOP     -0.079400
     17 C4'        -4.5570    0.0010    4.0650 c3        1 DOP     -0.077400
     18 C5'        -6.0530    0.0010    4.2940 c3        1 DOP     -0.079400
     19 C6'        -6.3860   -0.0030    5.7710 c3        1 DOP     -0.079400
     20 C7'        -7.8820   -0.0040    6.0010 c3        1 DOP     -0.080400
     21 C8'        -8.2180   -0.0070    7.4700 c3        1 DOP     -0.091100
     22 H11         1.2990   -0.9050   -2.5490 h1        1 DOP      0.024950
     23 H12         1.3030    0.9260   -2.5470 h1        1 DOP      0.024950
     24 H21         3.4320    0.9060   -1.1880 hc        1 DOP      0.042700
     25 H22         3.4280   -0.8970   -1.1890 hc        1 DOP      0.042700
     26 H31         3.5390   -0.8960   -3.7110 hc        1 DOP      0.036700
     27 H32         3.5430    0.9090   -3.7100 hc        1 DOP      0.036700
     28 H41         5.6620    0.9030   -2.3480 hc        1 DOP      0.035700
     29 H42         5.6570   -0.9020   -2.3490 hc        1 DOP      0.035700
     30 H51         5.7610    0.9040   -4.8650 hc        1 DOP      0.037700
     31 H52         5.7570   -0.9000   -4.8660 hc        1 DOP      0.037700
     32 H61         7.8760   -0.9060   -3.5050 hc        1 DOP      0.036700
     33 H62         7.8800    0.8980   -3.5030 hc        1 DOP      0.036700
     34 H71         7.9780    0.9000   -6.0190 hc        1 DOP      0.036700
     35 H72         7.9730   -0.9040   -6.0200 hc        1 DOP      0.036700
     36 H81        10.1120   -0.9130   -4.6910 hc        1 DOP      0.028033
     37 H82        10.2910   -0.0070   -6.2500 hc        1 DOP      0.028033
     38 H83        10.1160    0.8960   -4.6900 hc        1 DOP      0.028033
     39 H1'1       -2.8350    0.9260    0.3790 h1        1 DOP      0.024950
     40 H1'2       -2.8360   -0.9050    0.3740 h1        1 DOP      0.024950
     41 H2'1       -2.2640    0.9060    2.8390 hc        1 DOP      0.042700
     42 H2'2       -2.2640   -0.8970    2.8340 hc        1 DOP      0.042700
     43 H3'1       -4.6790   -0.8960    2.0980 hc        1 DOP      0.036700
     44 H3'2       -4.6790    0.9090    2.1030 hc        1 DOP      0.036700
     45 H4'1       -4.1020   -0.9020    4.5500 hc        1 DOP      0.035700
     46 H4'2       -4.1020    0.9020    4.5540 hc        1 DOP      0.035700
     47 H5'1       -6.5080    0.9040    3.8080 hc        1 DOP      0.037700
     48 H5'2       -6.5080   -0.9000    3.8040 hc        1 DOP      0.037700
     49 H6'1       -5.9310   -0.9060    6.2560 hc        1 DOP      0.036700
     50 H6'2       -5.9310    0.8980    6.2600 hc        1 DOP      0.036700
     51 H7'1       -8.3350   -0.9050    5.5080 hc        1 DOP      0.036700
     52 H7'2       -8.3350    0.9000    5.5130 hc        1 DOP      0.036700
     53 H8'1       -7.7960    0.8960    7.9730 hc        1 DOP      0.028033
     54 H8'2       -7.7960   -0.9130    7.9680 hc        1 DOP      0.028033
     55 H8'3       -9.3250   -0.0080    7.6170 hc        1 DOP      0.028033
@<TRIPOS>BOND
     1    1    2 1   
     2    1    3 1   
     3    1    4 1   
     4    1    5 1   
     5    2    6 1   
     6    3   14 1   
     7    6    7 1   
     8    6   22 1   
     9    6   23 1   
    10    7    8 1   
    11    7   24 1   
    12    7   25 1   
    13    8    9 1   
    14    8   26 1   
    15    8   27 1   
    16    9   10 1   
    17    9   28 1   
    18    9   29 1   
    19   10   11 1   
    20   10   30 1   
    21   10   31 1   
    22   11   12 1   
    23   11   32 1   
    24   11   33 1   
    25   12   13 1   
    26   12   34 1   
    27   12   35 1   
    28   13   36 1   
    29   13   37 1   
    30   13   38 1   
    31   14   15 1   
    32   14   39 1   
    33   14   40 1   
    34   15   16 1   
    35   15   41 1   
    36   15   42 1   
    37   16   17 1   
    38   16   43 1   
    39   16   44 1   
    40   17   18 1   
    41   17   45 1   
    42   17   46 1   
    43   18   19 1   
    44   18   47 1   
    45   18   48 1   
    46   19   20 1   
    47   19   49 1   
    48   19   50 1   
    49   20   21 1   
    50   20   51 1   
    51   20   52 1   
    52   21   53 1   
    53   21   54 1   
    54   21   55 1   
@<TRIPOS>SUBSTRUCTURE
     1 DOP         1 TEMP              0 ****  ****    0 ROOT
