@<TRIPOS>MOLECULE
DOP
   55    53     1     0     0
SMALL
bcc


@<TRIPOS>ATOM
      1 P          -0.9410   -0.0020   -1.2000 p3        1 DOP      2.524000
      2 O1          0.6510   -0.0910   -1.2820 o         1 DOP     -0.741000
      3 O1'        -1.3970   -0.0050    0.3330 os        1 DOP     -0.734000
      4 O2         -1.5420   -1.1760   -1.9000 o         1 DOP     -1.144000
      5 O3         -1.4020    1.2550   -1.8520 o         1 DOP     -1.144000
      6 C1          1.2530   -0.6170   -2.4790 c3        1 DOP      0.040000
      7 C2          2.6770   -0.0880   -2.6050 c3        1 DOP     -0.181000
      8 C3          3.5180   -1.0790   -3.4180 c3        1 DOP     -0.154000
      9 C4          4.8250   -0.4100   -3.8410 c3        1 DOP     -0.157000
     10 C5          5.8220   -1.4870   -4.3350 c3        1 DOP     -0.158000
     11 C6          7.0620   -0.7960   -4.9550 c3        1 DOP     -0.158000
     12 C7          8.1970   -1.8490   -5.1580 c3        1 DOP     -0.159000
     13 C8          9.3140   -1.2400   -5.9940 c3        1 DOP     -0.209000
     14 C1'        -2.6970    0.6010    0.6820 c3        1 DOP      0.024000
     15 C2'        -3.1540    0.0800    2.0330 c3        1 DOP     -0.163000
     16 C3'        -4.1540    1.0720    2.6490 c3        1 DOP     -0.157000
     17 C4'        -4.8610    0.4180    3.8290 c3        1 DOP     -0.156000
     18 C5'        -5.5260    1.5070    4.6970 c3        1 DOP     -0.158000
     19 C6'        -6.3960    0.8250    5.8050 c3        1 DOP     -0.158000
     20 C7'        -6.8440    1.8650    6.8280 c3        1 DOP     -0.159000
     21 C8'        -7.8320    1.2100    7.8160 c3        1 DOP     -0.209000
     22 H11         1.2710   -1.6050   -2.4320 h1        1 DOP      0.064500
     23 H12         0.7270   -0.3360   -3.2630 h1        1 DOP      0.064500
     24 H21         3.0650    0.0150   -1.7120 hc        1 DOP      0.082500
     25 H22         2.6640    0.7820   -3.0590 hc        1 DOP      0.082500
     26 H31         3.0190   -1.3540   -4.2140 hc        1 DOP      0.073500
     27 H32         3.7150   -1.8580   -2.8740 hc        1 DOP      0.073500
     28 H41         4.6480    0.2230   -4.5610 hc        1 DOP      0.076500
     29 H42         5.2070    0.0590   -3.0850 hc        1 DOP      0.076500
     30 H51         5.3860   -2.0530   -5.0160 hc        1 DOP      0.075500
     31 H52         6.1040   -2.0460   -3.5760 hc        1 DOP      0.075500
     32 H61         7.3810   -0.0780   -4.3440 hc        1 DOP      0.077000
     33 H62         6.8200   -0.4040   -5.8220 hc        1 DOP      0.077000
     34 H71         7.8310   -2.6480   -5.6250 hc        1 DOP      0.076000
     35 H72         8.5540   -2.1160   -4.2810 hc        1 DOP      0.076000
     36 H81         9.6490   -0.4210   -5.5490 hc        1 DOP      0.067333
     37 H82         8.9670   -1.0090   -6.8910 hc        1 DOP      0.067333
     38 H83        10.0540   -1.8940   -6.0830 hc        1 DOP      0.067333
     39 H1'1       -3.3690    0.3630   -0.0080 h1        1 DOP      0.068500
     40 H1'2       -2.6040    1.5650    0.7230 h1        1 DOP      0.068500
     41 H2'1       -2.4020   -0.0120    2.6090 hc        1 DOP      0.079000
     42 H2'2       -3.5800   -0.7800    1.9200 hc        1 DOP      0.079000
     43 H3'1       -3.6750    1.8690    2.9560 hc        1 DOP      0.076000
     44 H3'2       -4.8080    1.3250    1.9820 hc        1 DOP      0.076000
     45 H4'1       -5.5450   -0.1950    3.4990 hc        1 DOP      0.074500
     46 H4'2       -4.2170   -0.0720    4.3620 hc        1 DOP      0.074500
     47 H5'1       -4.8170    2.0710    5.1270 hc        1 DOP      0.076500
     48 H5'2       -6.0930    2.0690    4.1360 hc        1 DOP      0.076500
     49 H6'1       -5.8660    0.1350    6.2550 hc        1 DOP      0.076000
     50 H6'2       -7.1880    0.4120    5.3920 hc        1 DOP      0.076000
     51 H7'1       -7.2730    2.5860    6.3810 hc        1 DOP      0.076500
     52 H7'2       -6.0690    2.1990    7.3150 hc        1 DOP      0.076500
     53 H8'1       -8.6750    0.9950    7.3460 hc        1 DOP      0.067333
     54 H8'2       -7.4360    0.3830    8.1740 hc        1 DOP      0.067333
     55 H8'3       -8.0210    1.8400    8.5660 hc        1 DOP      0.067333
@<TRIPOS>BOND
     1    1    3 1   
     2    1    4 1   
     3    1    5 1   
     4    2    6 1   
     5    3   14 1   
     6    6    7 1   
     7    6   22 1   
     8    6   23 1   
     9    7    8 1   
    10    7   24 1   
    11    7   25 1   
    12    8    9 1   
    13    8   26 1   
    14    8   27 1   
    15    9   10 1   
    16    9   28 1   
    17    9   29 1   
    18   10   11 1   
    19   10   30 1   
    20   10   31 1   
    21   11   12 1   
    22   11   32 1   
    23   11   33 1   
    24   12   13 1   
    25   12   34 1   
    26   12   35 1   
    27   13   36 1   
    28   13   37 1   
    29   13   38 1   
    30   14   15 1   
    31   14   39 1   
    32   14   40 1   
    33   15   16 1   
    34   15   41 1   
    35   15   42 1   
    36   16   17 1   
    37   16   43 1   
    38   16   44 1   
    39   17   18 1   
    40   17   45 1   
    41   17   46 1   
    42   18   19 1   
    43   18   47 1   
    44   18   48 1   
    45   19   20 1   
    46   19   49 1   
    47   19   50 1   
    48   20   21 1   
    49   20   51 1   
    50   20   52 1   
    51   21   53 1   
    52   21   54 1   
    53   21   55 1   
@<TRIPOS>SUBSTRUCTURE
     1 DOP         1 TEMP              0 ****  ****    0 ROOT
