@<TRIPOS>MOLECULE
DOP
   55    54     1     0     0
SMALL
bcc


@<TRIPOS>ATOM
      1 P          -2.3260    0.1240   -3.2860 p5        1 DOP      1.414800
      2 O1         -0.9110   -0.6700   -2.9680 os        1 DOP     -0.574200
      3 O1'        -2.4710    0.8560   -1.8110 os        1 DOP     -0.574200
      4 O2         -2.0320    1.1860   -4.2670 o         1 DOP     -0.825500
      5 O3         -3.3830   -0.9000   -3.3840 o         1 DOP     -0.825500
      6 C1          0.2070    0.1620   -3.0580 c3        1 DOP      0.176400
      7 C2          1.4580   -0.6460   -2.7520 c3        1 DOP     -0.085400
      8 C3          2.6940    0.2210   -2.8450 c3        1 DOP     -0.078400
      9 C4          3.9480   -0.5710   -2.5470 c3        1 DOP     -0.077400
     10 C5          5.1850    0.2960   -2.6400 c3        1 DOP     -0.079400
     11 C6          6.4390   -0.4970   -2.3420 c3        1 DOP     -0.079400
     12 C7          7.6770    0.3700   -2.4350 c3        1 DOP     -0.080400
     13 C8          8.9290   -0.4150   -2.1390 c3        1 DOP     -0.091100
     14 C1'        -2.9560   -0.0080   -0.8260 c3        1 DOP      0.176400
     15 C2'        -3.0580    0.7430    0.4930 c3        1 DOP     -0.085400
     16 C3'        -3.5850   -0.1590    1.5850 c3        1 DOP     -0.078400
     17 C4'        -3.6960    0.5770    2.9040 c3        1 DOP     -0.077400
     18 C5'        -4.2240   -0.3260    3.9980 c3        1 DOP     -0.079400
     19 C6'        -4.3350    0.4100    5.3160 c3        1 DOP     -0.079400
     20 C7'        -4.8640   -0.4920    6.4100 c3        1 DOP     -0.080400
     21 C8'        -4.9760    0.2370    7.7240 c3        1 DOP     -0.091100
     22 H11         0.2540    0.6010   -4.0930 h1        1 DOP      0.028200
     23 H12         0.0870    1.0060   -2.3220 h1        1 DOP      0.028200
     24 H21         1.3720   -1.0880   -1.7260 hc        1 DOP      0.039200
     25 H22         1.5290   -1.5000   -3.4740 hc        1 DOP      0.039200
     26 H31         2.7640    0.6650   -3.8730 hc        1 DOP      0.036700
     27 H32         2.6080    1.0760   -2.1230 hc        1 DOP      0.036700
     28 H41         3.8760   -1.0150   -1.5190 hc        1 DOP      0.035200
     29 H42         4.0330   -1.4260   -3.2690 hc        1 DOP      0.035200
     30 H51         5.1000    1.1500   -1.9180 hc        1 DOP      0.037200
     31 H52         5.2560    0.7400   -3.6680 hc        1 DOP      0.037200
     32 H61         6.5240   -1.3510   -3.0640 hc        1 DOP      0.036700
     33 H62         6.3690   -0.9400   -1.3140 hc        1 DOP      0.036700
     34 H71         7.5890    1.2250   -1.7130 hc        1 DOP      0.036700
     35 H72         7.7450    0.8140   -3.4630 hc        1 DOP      0.036700
     36 H81         9.0460   -1.2570   -2.8640 hc        1 DOP      0.028033
     37 H82         9.8280    0.2420   -2.2130 hc        1 DOP      0.028033
     38 H83         8.8900   -0.8450   -1.1090 hc        1 DOP      0.028033
     39 H1'1       -3.9610   -0.4000   -1.1450 h1        1 DOP      0.028200
     40 H1'2       -2.2500   -0.8800   -0.7340 h1        1 DOP      0.028200
     41 H2'1       -3.7330    1.6270    0.3600 hc        1 DOP      0.039200
     42 H2'2       -2.0470    1.1390    0.7720 hc        1 DOP      0.039200
     43 H3'1       -2.9050   -1.0430    1.7040 hc        1 DOP      0.036700
     44 H3'2       -4.5920   -0.5560    1.2910 hc        1 DOP      0.036700
     45 H4'1       -2.6880    0.9740    3.1970 hc        1 DOP      0.035200
     46 H4'2       -4.3760    1.4610    2.7840 hc        1 DOP      0.035200
     47 H5'1       -5.2310   -0.7230    3.7030 hc        1 DOP      0.037200
     48 H5'2       -3.5440   -1.2100    4.1170 hc        1 DOP      0.037200
     49 H6'1       -3.3280    0.8070    5.6100 hc        1 DOP      0.036700
     50 H6'2       -5.0150    1.2940    5.1960 hc        1 DOP      0.036700
     51 H7'1       -4.1830   -1.3760    6.5270 hc        1 DOP      0.036700
     52 H7'2       -5.8700   -0.8880    6.1130 hc        1 DOP      0.036700
     53 H8'1       -5.6700    1.1080    7.6340 hc        1 DOP      0.028033
     54 H8'2       -3.9780    0.6190    8.0490 hc        1 DOP      0.028033
     55 H8'3       -5.3670   -0.4450    8.5170 hc        1 DOP      0.028033
@<TRIPOS>BOND
     1    1    2 1   
     2    1    3 1   
     3    1    4 1   
     4    1    5 1   
     5    2    6 1   
     6    3   14 1   
     7    6    7 1   
     8    6   22 1   
     9    6   23 1   
    10    7    8 1   
    11    7   24 1   
    12    7   25 1   
    13    8    9 1   
    14    8   26 1   
    15    8   27 1   
    16    9   10 1   
    17    9   28 1   
    18    9   29 1   
    19   10   11 1   
    20   10   30 1   
    21   10   31 1   
    22   11   12 1   
    23   11   32 1   
    24   11   33 1   
    25   12   13 1   
    26   12   34 1   
    27   12   35 1   
    28   13   36 1   
    29   13   37 1   
    30   13   38 1   
    31   14   15 1   
    32   14   39 1   
    33   14   40 1   
    34   15   16 1   
    35   15   41 1   
    36   15   42 1   
    37   16   17 1   
    38   16   43 1   
    39   16   44 1   
    40   17   18 1   
    41   17   45 1   
    42   17   46 1   
    43   18   19 1   
    44   18   47 1   
    45   18   48 1   
    46   19   20 1   
    47   19   49 1   
    48   19   50 1   
    49   20   21 1   
    50   20   51 1   
    51   20   52 1   
    52   21   53 1   
    53   21   54 1   
    54   21   55 1   
@<TRIPOS>SUBSTRUCTURE
     1 DOP         1 TEMP              0 ****  ****    0 ROOT
