@<TRIPOS>MOLECULE
DOP
   55    54     1     0     0
SMALL
bcc


@<TRIPOS>ATOM
      1 P           1.3070   -0.1180   -0.0000 p5        1 DOP      1.413800
      2 O1          0.2160   -0.0220    1.2400 os        1 DOP     -0.554200
      3 O1'         0.2160   -0.0220   -1.2400 os        1 DOP     -0.554200
      4 O2          2.1130    1.1200   -0.0010 o         1 DOP     -0.838500
      5 O3          1.8850   -1.4760   -0.0000 o         1 DOP     -0.838500
      6 C1          0.8740   -0.0820    2.4720 c3        1 DOP      0.166400
      7 C2         -0.1490    0.0070    3.5920 c3        1 DOP     -0.082400
      8 C3          0.5260   -0.0540    4.9440 c3        1 DOP     -0.079400
      9 C4         -0.4840    0.0340    6.0680 c3        1 DOP     -0.077400
     10 C5          0.1900   -0.0280    7.4220 c3        1 DOP     -0.079400
     11 C6         -0.8200    0.0600    8.5460 c3        1 DOP     -0.079400
     12 C7         -0.1460   -0.0020    9.9000 c3        1 DOP     -0.080400
     13 C8         -1.1480    0.0860   11.0230 c3        1 DOP     -0.091100
     14 C1'         0.8730   -0.0820   -2.4720 c3        1 DOP      0.166400
     15 C2'        -0.1510    0.0070   -3.5910 c3        1 DOP     -0.082400
     16 C3'         0.5230   -0.0540   -4.9440 c3        1 DOP     -0.079400
     17 C4'        -0.4870    0.0340   -6.0680 c3        1 DOP     -0.077400
     18 C5'         0.1860   -0.0280   -7.4220 c3        1 DOP     -0.079400
     19 C6'        -0.8240    0.0600   -8.5450 c3        1 DOP     -0.079400
     20 C7'        -0.1510   -0.0010   -9.9000 c3        1 DOP     -0.080400
     21 C8'        -1.1540    0.0860  -11.0220 c3        1 DOP     -0.091100
     22 H11         1.6070    0.7720    2.5340 h1        1 DOP      0.024950
     23 H12         1.4450   -1.0520    2.5310 h1        1 DOP      0.024950
     24 H21        -0.8830   -0.8330    3.4860 hc        1 DOP      0.042700
     25 H22        -0.7240    0.9640    3.4880 hc        1 DOP      0.042700
     26 H31         1.2640    0.7860    5.0340 hc        1 DOP      0.036700
     27 H32         1.1040   -1.0120    5.0320 hc        1 DOP      0.036700
     28 H41        -1.2220   -0.8070    5.9760 hc        1 DOP      0.035700
     29 H42        -1.0620    0.9910    5.9790 hc        1 DOP      0.035700
     30 H51         0.9280    0.8120    7.5130 hc        1 DOP      0.037700
     31 H52         0.7680   -0.9860    7.5100 hc        1 DOP      0.037700
     32 H61        -1.5580   -0.7800    8.4550 hc        1 DOP      0.036700
     33 H62        -1.3980    1.0180    8.4580 hc        1 DOP      0.036700
     34 H71         0.5930    0.8380    9.9880 hc        1 DOP      0.036700
     35 H72         0.4330   -0.9600    9.9860 hc        1 DOP      0.036700
     36 H81        -0.6310    0.0380   12.0110 hc        1 DOP      0.028033
     37 H82        -1.7180    1.0450   10.9680 hc        1 DOP      0.028033
     38 H83        -1.8780   -0.7580   10.9660 hc        1 DOP      0.028033
     39 H1'1        1.6050    0.7720   -2.5340 h1        1 DOP      0.024950
     40 H1'2        1.4440   -1.0510   -2.5320 h1        1 DOP      0.024950
     41 H2'1       -0.8850   -0.8330   -3.4850 hc        1 DOP      0.042700
     42 H2'2       -0.7260    0.9640   -3.4870 hc        1 DOP      0.042700
     43 H3'1        1.2610    0.7860   -5.0350 hc        1 DOP      0.036700
     44 H3'2        1.1010   -1.0120   -5.0320 hc        1 DOP      0.036700
     45 H4'1       -1.2250   -0.8060   -5.9760 hc        1 DOP      0.035700
     46 H4'2       -1.0650    0.9910   -5.9780 hc        1 DOP      0.035700
     47 H5'1        0.9240    0.8130   -7.5130 hc        1 DOP      0.037700
     48 H5'2        0.7640   -0.9850   -7.5100 hc        1 DOP      0.037700
     49 H6'1       -1.5620   -0.7800   -8.4540 hc        1 DOP      0.036700
     50 H6'2       -1.4020    1.0180   -8.4570 hc        1 DOP      0.036700
     51 H7'1        0.5870    0.8390   -9.9890 hc        1 DOP      0.036700
     52 H7'2        0.4280   -0.9590   -9.9860 hc        1 DOP      0.036700
     53 H8'1       -0.6370    0.0390  -12.0110 hc        1 DOP      0.028033
     54 H8'2       -1.8840   -0.7570  -10.9650 hc        1 DOP      0.028033
     55 H8'3       -1.7240    1.0450  -10.9670 hc        1 DOP      0.028033
@<TRIPOS>BOND
     1    1    2 1   
     2    1    3 1   
     3    1    4 1   
     4    1    5 1   
     5    2    6 1   
     6    3   14 1   
     7    6    7 1   
     8    6   22 1   
     9    6   23 1   
    10    7    8 1   
    11    7   24 1   
    12    7   25 1   
    13    8    9 1   
    14    8   26 1   
    15    8   27 1   
    16    9   10 1   
    17    9   28 1   
    18    9   29 1   
    19   10   11 1   
    20   10   30 1   
    21   10   31 1   
    22   11   12 1   
    23   11   32 1   
    24   11   33 1   
    25   12   13 1   
    26   12   34 1   
    27   12   35 1   
    28   13   36 1   
    29   13   37 1   
    30   13   38 1   
    31   14   15 1   
    32   14   39 1   
    33   14   40 1   
    34   15   16 1   
    35   15   41 1   
    36   15   42 1   
    37   16   17 1   
    38   16   43 1   
    39   16   44 1   
    40   17   18 1   
    41   17   45 1   
    42   17   46 1   
    43   18   19 1   
    44   18   47 1   
    45   18   48 1   
    46   19   20 1   
    47   19   49 1   
    48   19   50 1   
    49   20   21 1   
    50   20   51 1   
    51   20   52 1   
    52   21   53 1   
    53   21   54 1   
    54   21   55 1   
@<TRIPOS>SUBSTRUCTURE
     1 DOP         1 TEMP              0 ****  ****    0 ROOT
