@<TRIPOS>MOLECULE
DOQ
   40    40     1     0     0
SMALL
bcc


@<TRIPOS>ATOM
      1 OAD         1.2600   -1.9440   -0.5610 o         1 DOQ     -0.865800
      2 CAQ         1.5270   -0.7410   -0.2580 c         1 DOQ      0.911600
      3 OAG         2.0290    0.0730   -1.0860 o         1 DOQ     -0.865800
      4 CAS         1.1840   -0.2800    1.1800 c3        1 DOQ     -0.151500
      5 CAB        -0.2780    0.1180    1.2150 c3        1 DOQ     -0.060100
      6 CAK         2.0490    0.8310    1.6570 c2        1 DOQ     -0.138200
      7 CAI         2.1780    1.2600    2.9240 ce        1 DOQ     -0.161000
      8 CAJ         1.4920    0.6940    4.0630 ce        1 DOQ     -0.161000
      9 CAP         1.2690    1.2570    5.2700 c2        1 DOQ     -0.075400
     10 CAA         0.4810    0.4590    6.2550 c3        1 DOQ     -0.052900
     11 CAT         1.6610    2.6420    5.6570 c3        1 DOQ     -0.059500
     12 CAL         0.3900    3.4820    5.9870 c3        1 DOQ      0.144800
     13 N           0.4720    3.9610    7.3640 n3        1 DOQ     -0.767200
     14 CA          1.9160    4.0210    7.6660 c3        1 DOQ      0.031500
     15 C           2.4760    5.4230    7.2700 c         1 DOQ      0.934600
     16 O           2.5960    6.2810    8.1940 o         1 DOQ     -0.866300
     17 OXT         2.7660    5.6680    6.0640 o         1 DOQ     -0.866300
     18 CB          2.5940    2.8540    6.8850 c3        1 DOQ     -0.044700
     19 CG          2.7700    1.6180    7.7390 c3        1 DOQ     -0.179400
     20 CD          3.9120    1.6390    8.7640 c         1 DOQ      0.913600
     21 OE2         3.6120    1.4510    9.9860 o         1 DOQ     -0.875300
     22 OE1         5.1120    1.7330    8.3720 o         1 DOQ     -0.875300
     23 HAS         1.3260   -1.1740    1.8510 hc        1 DOQ      0.041700
     24 HAB1       -0.9080   -0.7320    0.8600 hc        1 DOQ      0.015700
     25 HAB2       -0.4560    0.9960    0.5490 hc        1 DOQ      0.015700
     26 HAB3       -0.5840    0.3910    2.2550 hc        1 DOQ      0.015700
     27 HAK         2.6190    1.3230    0.8480 ha        1 DOQ      0.134000
     28 HAI         2.8580    2.1030    3.1400 ha        1 DOQ      0.122000
     29 HAJ         1.0990   -0.3270    3.8880 ha        1 DOQ      0.097000
     30 HAA1        0.1020    1.0990    7.0880 hc        1 DOQ      0.026367
     31 HAA2       -0.3970   -0.0250    5.7580 hc        1 DOQ      0.026367
     32 HAA3        1.1180   -0.3470    6.6970 hc        1 DOQ      0.026367
     33 HAT         2.1730    3.1340    4.7850 hc        1 DOQ      0.069700
     34 HAL1        0.3860    4.3900    5.3250 h1        1 DOQ      0.028700
     35 HAL2       -0.5530    2.9020    5.8100 h1        1 DOQ      0.028700
     36 HN          0.0650    3.2630    7.9680 hn        1 DOQ      0.297800
     37 HA          2.0870    3.8880    8.7690 h1        1 DOQ      0.069700
     38 HB          3.6000    3.1970    6.5270 hc        1 DOQ      0.089700
     39 HG1         1.8200    1.4070    8.2970 hc        1 DOQ      0.012200
     40 HG2         2.9810    0.7440    7.0660 hc        1 DOQ      0.012200
@<TRIPOS>BOND
     1    1    2 1   
     2    2    3 1   
     3    2    4 1   
     4    4    5 1   
     5    4    6 1   
     6    4   23 1   
     7    5   24 1   
     8    5   25 1   
     9    5   26 1   
    10    6    7 2   
    11    6   27 1   
    12    7    8 1   
    13    7   28 1   
    14    8    9 2   
    15    8   29 1   
    16    9   10 1   
    17    9   11 1   
    18   10   30 1   
    19   10   31 1   
    20   10   32 1   
    21   11   12 1   
    22   11   18 1   
    23   11   33 1   
    24   12   13 1   
    25   12   34 1   
    26   12   35 1   
    27   13   14 1   
    28   13   36 1   
    29   14   15 1   
    30   14   18 1   
    31   14   37 1   
    32   15   16 1   
    33   15   17 1   
    34   18   19 1   
    35   18   38 1   
    36   19   20 1   
    37   19   39 1   
    38   19   40 1   
    39   20   21 1   
    40   20   22 1   
@<TRIPOS>SUBSTRUCTURE
     1 DOQ         1 TEMP              0 ****  ****    0 ROOT
