@<TRIPOS>MOLECULE
DOQ
   40    40     1     0     0
SMALL
bcc


@<TRIPOS>ATOM
      1 OAD         1.1240   -1.7950   -0.6460 o         1 DOQ     -0.865800
      2 CAQ         1.3790   -0.5960   -0.3200 c         1 DOQ      0.911600
      3 OAG         1.8360    0.2500   -1.1430 o         1 DOQ     -0.865800
      4 CAS         1.0820   -0.1800    1.1420 c3        1 DOQ     -0.151500
      5 CAB        -0.3850    0.1880    1.2420 c3        1 DOQ     -0.060100
      6 CAK         1.9430    0.9340    1.6170 c2        1 DOQ     -0.138200
      7 CAI         2.1110    1.3310    2.8900 ce        1 DOQ     -0.162000
      8 CAJ         1.4780    0.7220    4.0370 ce        1 DOQ     -0.161000
      9 CAP         1.2900    1.2470    5.2670 c2        1 DOQ     -0.075400
     10 CAA         0.5540    0.4080    6.2580 c3        1 DOQ     -0.052900
     11 CAT         1.6690    2.6290    5.6780 c3        1 DOQ     -0.059500
     12 CAL         0.3960    3.4350    6.0760 c3        1 DOQ      0.144800
     13 N           0.5200    3.8790    7.4630 n7        1 DOQ     -0.767200
     14 CA          1.9730    3.9590    7.7130 c3        1 DOQ      0.031500
     15 C           2.4920    5.3810    7.3360 c         1 DOQ      0.934600
     16 O           2.6290    6.2170    8.2780 o         1 DOQ     -0.866300
     17 OXT         2.7320    5.6640    6.1270 o         1 DOQ     -0.866300
     18 CB          2.6430    2.8260    6.8760 c3        1 DOQ     -0.044700
     19 CG          2.8740    1.5720    7.6890 c3        1 DOQ     -0.179400
     20 CD          4.0530    1.5880    8.6710 c         1 DOQ      0.913600
     21 OE2         3.8020    1.3610    9.8980 o         1 DOQ     -0.875300
     22 OE1         5.2350    1.7160    8.2390 o         1 DOQ     -0.875300
     23 HAS         1.2650   -1.0890    1.7820 hc        1 DOQ      0.041700
     24 HAB1       -1.0120   -0.6640    0.8860 hc        1 DOQ      0.015700
     25 HAB2       -0.6040    1.0800    0.6070 hc        1 DOQ      0.015700
     26 HAB3       -0.6570    0.4270    2.2990 hc        1 DOQ      0.015700
     27 HAK         2.4740    1.4590    0.8020 ha        1 DOQ      0.134000
     28 HAI         2.7830    2.1810    3.1040 ha        1 DOQ      0.122000
     29 HAJ         1.0980   -0.3020    3.8490 ha        1 DOQ      0.097000
     30 HAA1        0.1940    1.0180    7.1210 hc        1 DOQ      0.026367
     31 HAA2       -0.3330   -0.0800    5.7800 hc        1 DOQ      0.026367
     32 HAA3        1.2220   -0.3970    6.6540 hc        1 DOQ      0.026367
     33 HAT         2.1400    3.1550    4.8020 hc        1 DOQ      0.069700
     34 HAL1       -0.5420    2.8410    5.9180 h1        1 DOQ      0.028700
     35 HAL2        0.3500    4.3600    5.4400 h1        1 DOQ      0.028700
     36 HN          0.1490    3.1560    8.0610 hn        1 DOQ      0.297800
     37 HA          2.1860    3.8000    8.8050 h1        1 DOQ      0.069700
     38 HB          3.6280    3.1990    6.4910 hc        1 DOQ      0.089700
     39 HG1         3.0760    0.7210    6.9840 hc        1 DOQ      0.012200
     40 HG2         1.9490    1.3280    8.2750 hc        1 DOQ      0.012200
@<TRIPOS>BOND
     1    1    2 1   
     2    2    3 1   
     3    2    4 1   
     4    4    5 1   
     5    4    6 1   
     6    4   23 1   
     7    5   24 1   
     8    5   25 1   
     9    5   26 1   
    10    6    7 2   
    11    6   27 1   
    12    7    8 1   
    13    7   28 1   
    14    8    9 2   
    15    8   29 1   
    16    9   10 1   
    17    9   11 1   
    18   10   30 1   
    19   10   31 1   
    20   10   32 1   
    21   11   12 1   
    22   11   18 1   
    23   11   33 1   
    24   12   13 1   
    25   12   34 1   
    26   12   35 1   
    27   13   14 1   
    28   13   36 1   
    29   14   15 1   
    30   14   18 1   
    31   14   37 1   
    32   15   16 1   
    33   15   17 1   
    34   18   19 1   
    35   18   38 1   
    36   19   20 1   
    37   19   39 1   
    38   19   40 1   
    39   20   21 1   
    40   20   22 1   
@<TRIPOS>SUBSTRUCTURE
     1 DOQ         1 TEMP              0 ****  ****    0 ROOT
