@<TRIPOS>MOLECULE
DOQ
   40    37     1     0     0
SMALL
bcc


@<TRIPOS>ATOM
      1 OAD         0.3830    4.7740   -2.5600 o         1 DOQ     -0.601000
      2 CAQ        -0.1230    4.4660   -1.4490 c1        1 DOQ      0.331000
      3 OAG        -1.3200    4.7660   -1.1980 os        1 DOQ     -0.599000
      4 CAS         0.6890    3.6910   -0.4370 c3        1 DOQ     -0.147000
      5 CAB         1.3720    4.6560    0.5060 c3        1 DOQ     -0.178000
      6 CAK         1.7340    2.8640   -1.1560 c2        1 DOQ     -0.126000
      7 CAI         1.5900    1.5280   -1.2470 c1        1 DOQ     -0.172000
      8 CAJ         0.3850    0.8550   -0.6310 c1        1 DOQ     -0.164000
      9 CAP         0.0820   -0.4140   -0.9600 c1        1 DOQ     -0.060000
     10 CAA         0.9480   -1.1680   -1.9450 c2        1 DOQ     -0.177000
     11 CAT        -1.1140   -1.0820   -0.3480 c3        1 DOQ     -0.093000
     12 CAL        -1.4420   -2.1260   -1.0660 c3        1 DOQ     -0.076000
     13 N          -1.9300   -3.2130   -0.0740 n3        1 DOQ     -0.283000
     14 CA         -1.5270   -2.7450    1.3610 c3        1 DOQ     -0.111000
     15 C          -2.7770   -2.3330    2.1310 c2        1 DOQ      0.309000
     16 O          -3.8270   -3.0230    2.0430 o         1 DOQ     -0.602500
     17 OXT        -2.7620   -1.2990    2.8500 o         1 DOQ     -0.602500
     18 CB         -0.6870   -1.7450    1.1080 c3        1 DOQ     -0.061000
     19 CG          0.7520   -2.2800    1.0330 c3        1 DOQ     -0.204000
     20 CD          1.2080   -2.6990    2.4160 c2        1 DOQ      0.334000
     21 OE2         1.4270   -1.8250    3.2970 o         1 DOQ     -0.611500
     22 OE1         1.4460   -3.9110    2.6590 o         1 DOQ     -0.611500
     23 HAS         0.1010    3.1010    0.0700 hc        1 DOQ      0.090000
     24 HAB1        1.7960    5.3730   -0.0090 hc        1 DOQ      0.057333
     25 HAB2        2.0540    4.1790    1.0250 hc        1 DOQ      0.057333
     26 HAB3        0.7080    5.0400    1.1160 hc        1 DOQ      0.057333
     27 HAK         2.5130    3.2990   -1.5540 ha        1 DOQ      0.127000
     28 HAI         2.2620    0.9960   -1.7100 ha        1 DOQ      0.091000
     29 HAJ        -0.1740    1.3410    0.0040 ha        1 DOQ      0.121000
     30 HAA1        1.2020   -2.0350   -1.5600 ha        1 DOQ      0.071667
     31 HAA2        1.7550   -0.6460   -2.1360 ha        1 DOQ      0.071667
     32 HAA3        0.4460   -1.3140   -2.7780 ha        1 DOQ      0.071667
     33 HAT        -1.7510   -0.3390   -0.3290 hc        1 DOQ      0.086000
     34 HAL1       -2.1610   -1.8930   -1.6890 h1        1 DOQ      0.040000
     35 HAL2       -0.6610   -2.4510   -1.5610 h1        1 DOQ      0.040000
     36 HN         -2.8380   -3.2860   -0.1260 hn        1 DOQ      0.149000
     37 HA         -1.1300   -3.4010    1.9690 h1        1 DOQ      0.131000
     38 HB         -0.7540   -1.0700    1.8110 hc        1 DOQ      0.133000
     39 HG1         0.7820   -3.0510    0.4330 hc        1 DOQ      0.056000
     40 HG2         1.3440   -1.5790    0.6930 hc        1 DOQ      0.056000
@<TRIPOS>BOND
     1    1    2 1   
     2    2    4 1   
     3    4    5 1   
     4    4    6 1   
     5    4   23 1   
     6    5   24 1   
     7    5   25 1   
     8    5   26 1   
     9    6    7 1   
    10    6   27 1   
    11    7   28 1   
    12    8    9 1   
    13    8   29 1   
    14    9   11 1   
    15   10   30 1   
    16   10   31 1   
    17   10   32 1   
    18   11   12 1   
    19   11   18 1   
    20   11   33 1   
    21   12   13 1   
    22   12   34 1   
    23   12   35 1   
    24   13   14 1   
    25   13   36 1   
    26   14   15 1   
    27   14   18 1   
    28   14   37 1   
    29   15   16 1   
    30   15   17 1   
    31   18   19 1   
    32   18   38 1   
    33   19   20 1   
    34   19   39 1   
    35   19   40 1   
    36   20   21 1   
    37   20   22 1   
@<TRIPOS>SUBSTRUCTURE
     1 DOQ         1 TEMP              0 ****  ****    0 ROOT
