@<TRIPOS>MOLECULE
DOQ
   40    40     1     0     0
SMALL
bcc


@<TRIPOS>ATOM
      1 OAD         0.6720   -1.9290   -0.5150 o         1 DOQ     -0.867800
      2 CAQ         1.1390   -0.7900   -0.2090 c         1 DOQ      0.911600
      3 OAG         1.6950   -0.0350   -1.0600 o         1 DOQ     -0.867800
      4 CAS         0.9830   -0.3270    1.2590 c3        1 DOQ     -0.147500
      5 CAB        -0.3880    0.3010    1.4190 c3        1 DOQ     -0.061100
      6 CAK         2.0520    0.6100    1.6900 c2        1 DOQ     -0.146200
      7 CAI         2.3250    0.9940    2.9480 ce        1 DOQ     -0.155000
      8 CAJ         1.6250    0.5450    4.1310 ce        1 DOQ     -0.169000
      9 CAP         1.4860    1.1910    5.3090 c2        1 DOQ     -0.056400
     10 CAA         0.6670    0.5300    6.3620 c3        1 DOQ     -0.057900
     11 CAT         2.0000    2.5710    5.5650 c3        1 DOQ     -0.031500
     12 CAL         0.8380    3.5720    5.3000 c3        1 DOQ      0.153800
     13 N           0.3850    4.1450    6.5620 n3        1 DOQ     -0.811200
     14 CA          1.2970    3.6990    7.6290 c3        1 DOQ      0.034500
     15 C           1.7060    4.8570    8.5820 c         1 DOQ      0.913600
     16 O           1.8170    4.6010    9.8150 o         1 DOQ     -0.866300
     17 OXT         1.8450    6.0260    8.1070 o         1 DOQ     -0.866300
     18 CB          2.5090    2.9830    6.9660 c3        1 DOQ     -0.040700
     19 CG          3.1230    1.9320    7.8550 c3        1 DOQ     -0.175400
     20 CD          4.5650    1.5320    7.5190 c         1 DOQ      0.909600
     21 OE2         5.0010    0.4540    8.0370 o         1 DOQ     -0.879800
     22 OE1         5.2950    2.2650    6.7890 o         1 DOQ     -0.879800
     23 HAS         1.0250   -1.2520    1.9010 hc        1 DOQ      0.041700
     24 HAB1       -0.5610    0.5930    2.4830 hc        1 DOQ      0.016367
     25 HAB2       -0.4720    1.2130    0.7800 hc        1 DOQ      0.016367
     26 HAB3       -1.1750   -0.4260    1.1060 hc        1 DOQ      0.016367
     27 HAK         2.6540    1.0060    0.8520 ha        1 DOQ      0.130000
     28 HAI         3.1580    1.7000    3.1240 ha        1 DOQ      0.118000
     29 HAJ         1.1490   -0.4490    4.0220 ha        1 DOQ      0.098000
     30 HAA1       -0.2680    0.1010    5.9210 hc        1 DOQ      0.033033
     31 HAA2        1.2440   -0.3080    6.8290 hc        1 DOQ      0.033033
     32 HAA3        0.3790    1.2580    7.1600 hc        1 DOQ      0.033033
     33 HAT         2.8370    2.7690    4.8420 hc        1 DOQ      0.060700
     34 HAL1        1.1890    4.3570    4.5750 h1        1 DOQ      0.009700
     35 HAL2       -0.0380    3.0500    4.8270 h1        1 DOQ      0.009700
     36 HN          0.4300    5.1510    6.5100 hn        1 DOQ      0.352800
     37 HA          0.7280    2.9530    8.2540 h1        1 DOQ      0.036700
     38 HB          3.3120    3.7570    6.7890 hc        1 DOQ      0.078700
     39 HG1         2.5050    1.0030    7.8820 hc        1 DOQ      0.036200
     40 HG2         3.1450    2.3490    8.9000 hc        1 DOQ      0.036200
@<TRIPOS>BOND
     1    1    2 1   
     2    2    3 1   
     3    2    4 1   
     4    4    5 1   
     5    4    6 1   
     6    4   23 1   
     7    5   24 1   
     8    5   25 1   
     9    5   26 1   
    10    6    7 2   
    11    6   27 1   
    12    7    8 1   
    13    7   28 1   
    14    8    9 2   
    15    8   29 1   
    16    9   10 1   
    17    9   11 1   
    18   10   30 1   
    19   10   31 1   
    20   10   32 1   
    21   11   12 1   
    22   11   18 1   
    23   11   33 1   
    24   12   13 1   
    25   12   34 1   
    26   12   35 1   
    27   13   14 1   
    28   13   36 1   
    29   14   15 1   
    30   14   18 1   
    31   14   37 1   
    32   15   16 1   
    33   15   17 1   
    34   18   19 1   
    35   18   38 1   
    36   19   20 1   
    37   19   39 1   
    38   19   40 1   
    39   20   21 1   
    40   20   22 1   
@<TRIPOS>SUBSTRUCTURE
     1 DOQ         1 TEMP              0 ****  ****    0 ROOT
