@<TRIPOS>MOLECULE
DOQ
   40    40     1     0     0
SMALL
bcc


@<TRIPOS>ATOM
      1 OAD        -6.4040   -0.0140   -0.7930 o         1 DOQ     -0.865800
      2 CAQ        -6.0010   -0.0600    0.4060 c         1 DOQ      0.912600
      3 OAG        -6.7620   -0.3790    1.3690 o         1 DOQ     -0.865800
      4 CAS        -4.5360    0.3070    0.7450 c3        1 DOQ     -0.152500
      5 CAB        -4.4670    1.7920    1.0450 c3        1 DOQ     -0.060100
      6 CAK        -3.5910   -0.0530   -0.3440 c2        1 DOQ     -0.136200
      7 CAI        -2.2600   -0.1680   -0.1970 ce        1 DOQ     -0.163000
      8 CAJ        -1.4030   -0.5470   -1.2980 ce        1 DOQ     -0.162000
      9 CAP        -0.0830   -0.8290   -1.2980 c2        1 DOQ     -0.073400
     10 CAA         0.5050   -1.2900   -2.5910 c3        1 DOQ     -0.053900
     11 CAT         0.8080   -0.8100   -0.1040 c3        1 DOQ     -0.059500
     12 CAL         1.3620   -2.2410    0.1660 c3        1 DOQ      0.144800
     13 N           2.8200   -2.2210    0.0670 n3        1 DOQ     -0.767200
     14 CA          3.2080   -0.8370    0.4040 c3        1 DOQ      0.031500
     15 C           3.4390   -0.7200    1.9430 c         1 DOQ      0.935600
     16 O           4.6350   -0.7880    2.3540 o         1 DOQ     -0.864800
     17 OXT         2.4500   -0.5920    2.7200 o         1 DOQ     -0.864800
     18 CB          2.0730    0.0990   -0.1160 c3        1 DOQ     -0.044700
     19 CG          2.3900    0.6870   -1.4730 c3        1 DOQ     -0.179400
     20 CD          3.3880    1.8520   -1.5150 c         1 DOQ      0.913600
     21 OE2         4.4150    1.7220   -2.2540 o         1 DOQ     -0.874800
     22 OE1         3.1230    2.9350   -0.9150 o         1 DOQ     -0.874800
     23 HAS        -4.2590   -0.2580    1.6790 hc        1 DOQ      0.043700
     24 HAB1       -4.7650    2.3810    0.1460 hc        1 DOQ      0.016700
     25 HAB2       -5.1650    2.0400    1.8800 hc        1 DOQ      0.016700
     26 HAB3       -3.4300    2.0850    1.3380 hc        1 DOQ      0.016700
     27 HAK        -4.0800   -0.2260   -1.3200 ha        1 DOQ      0.130000
     28 HAI        -1.7790    0.0170    0.7780 ha        1 DOQ      0.127000
     29 HAJ        -1.9400   -0.6320   -2.2650 ha        1 DOQ      0.086000
     30 HAA1        0.6460   -0.4240   -3.2850 hc        1 DOQ      0.026367
     31 HAA2        1.4980   -1.7780   -2.4360 hc        1 DOQ      0.026367
     32 HAA3       -0.1720   -2.0290   -3.0910 hc        1 DOQ      0.026367
     33 HAT         0.2070   -0.5010    0.7950 hc        1 DOQ      0.068700
     34 HAL1        1.1110   -2.5230    1.2250 h1        1 DOQ      0.029700
     35 HAL2        0.9150   -3.0000   -0.5270 h1        1 DOQ      0.029700
     36 HN          3.0750   -2.3820   -0.8950 hn        1 DOQ      0.296800
     37 HA          4.1770   -0.5740   -0.1030 h1        1 DOQ      0.068700
     38 HB          1.9320    0.9330    0.6200 hc        1 DOQ      0.091700
     39 HG1         2.7840   -0.1170   -2.1490 hc        1 DOQ      0.012200
     40 HG2         1.4400    1.0870   -1.9200 hc        1 DOQ      0.012200
@<TRIPOS>BOND
     1    1    2 1   
     2    2    3 1   
     3    2    4 1   
     4    4    5 1   
     5    4    6 1   
     6    4   23 1   
     7    5   24 1   
     8    5   25 1   
     9    5   26 1   
    10    6    7 2   
    11    6   27 1   
    12    7    8 1   
    13    7   28 1   
    14    8    9 2   
    15    8   29 1   
    16    9   10 1   
    17    9   11 1   
    18   10   30 1   
    19   10   31 1   
    20   10   32 1   
    21   11   12 1   
    22   11   18 1   
    23   11   33 1   
    24   12   13 1   
    25   12   34 1   
    26   12   35 1   
    27   13   14 1   
    28   13   36 1   
    29   14   15 1   
    30   14   18 1   
    31   14   37 1   
    32   15   16 1   
    33   15   17 1   
    34   18   19 1   
    35   18   38 1   
    36   19   20 1   
    37   19   39 1   
    38   19   40 1   
    39   20   21 1   
    40   20   22 1   
@<TRIPOS>SUBSTRUCTURE
     1 DOQ         1 TEMP              0 ****  ****    0 ROOT
