@<TRIPOS>MOLECULE
DOR
   16    16     1     0     0
SMALL
bcc


@<TRIPOS>ATOM
      1 O2         -0.0770    0.3170   -0.3490 o         1 DOR     -0.695500
      2 C2          1.1490    0.0910   -0.1970 c         1 DOR      0.783500
      3 N1          1.7540    0.0610    1.0660 ns        1 DOR     -0.474900
      4 N3          1.8950   -0.2710   -1.3420 ns        1 DOR     -0.600500
      5 C4          3.2590   -0.5330   -1.3060 c         1 DOR      0.716500
      6 O4          3.8260   -0.8730   -2.3650 o         1 DOR     -0.668500
      7 C5          3.9910   -0.4240    0.0040 c3        1 DOR     -0.147400
      8 C6          3.2010    0.1320    1.1840 c3        1 DOR     -0.085300
      9 C7          3.7150    1.5720    1.5820 c         1 DOR      0.902600
     10 O72         4.9130    1.8470    1.3170 o         1 DOR     -0.816800
     11 O71         2.8980    2.3210    2.1810 o         1 DOR     -0.816800
     12 HN1         1.3110    0.7000    1.7100 hn        1 DOR      0.330500
     13 HN3         1.4050   -0.3140   -2.2070 hn        1 DOR      0.326500
     14 H51         4.3690   -1.4530    0.2460 hc        1 DOR      0.094700
     15 H52         4.8910    0.2410   -0.1570 hc        1 DOR      0.094700
     16 H6          3.4440   -0.5080    2.0870 h1        1 DOR      0.056700
@<TRIPOS>BOND
     1    1    2 2   
     2    2    3 1   
     3    2    4 1   
     4    3    8 1   
     5    3   12 1   
     6    4    5 1   
     7    4   13 1   
     8    5    6 2   
     9    5    7 1   
    10    7    8 1   
    11    7   14 1   
    12    7   15 1   
    13    8    9 1   
    14    8   16 1   
    15    9   10 1   
    16    9   11 1   
@<TRIPOS>SUBSTRUCTURE
     1 DOR         1 TEMP              0 ****  ****    0 ROOT
