@<TRIPOS>MOLECULE
DOR
   16    15     1     0     0
SMALL
bcc


@<TRIPOS>ATOM
      1 O2         -2.8510    0.4750   -0.3470 o         1 DOR     -0.420000
      2 C2         -1.7180    0.0350   -0.2970 c1        1 DOR      0.374000
      3 N1         -1.0340   -0.0200    0.9440 n2        1 DOR     -0.284000
      4 N3         -1.1110   -0.4910   -1.4650 n         1 DOR     -0.380000
      5 C4          0.2850   -0.7030   -1.5010 c2        1 DOR      0.324000
      6 O4          0.8600   -0.7800   -2.5680 o         1 DOR     -0.393000
      7 C5          1.0750   -0.7810   -0.2060 c3        1 DOR     -0.176000
      8 C6          0.4200   -0.0250    0.9720 c3        1 DOR     -0.113000
      9 C7          0.9880    1.4410    1.0900 c2        1 DOR      0.322000
     10 O72         1.7400    1.7480    2.0530 o         1 DOR     -0.551500
     11 O71         0.6290    2.3220    0.2680 o         1 DOR     -0.551500
     12 HN1        -1.5050   -0.0100    1.7250 hn        1 DOR      0.244000
     13 HN3        -1.6140   -0.6440   -2.2110 hn        1 DOR      0.240000
     14 H51         1.9790   -0.4210   -0.2650 hc        1 DOR      0.134000
     15 H52         1.1280   -1.7400   -0.0050 hc        1 DOR      0.134000
     16 H6          0.7280   -0.4050    1.8150 h1        1 DOR      0.096000
@<TRIPOS>BOND
     1    1    2 1   
     2    2    4 1   
     3    3    8 1   
     4    3   12 1   
     5    4    5 1   
     6    4   13 1   
     7    5    6 1   
     8    5    7 1   
     9    7    8 1   
    10    7   14 1   
    11    7   15 1   
    12    8    9 1   
    13    8   16 1   
    14    9   10 1   
    15    9   11 1   
@<TRIPOS>SUBSTRUCTURE
     1 DOR         1 TEMP              0 ****  ****    0 ROOT
