@<TRIPOS>MOLECULE
DOR
   16    16     1     0     0
SMALL
bcc


@<TRIPOS>ATOM
      1 O2         -2.3690   -1.6170    0.5810 o         1 DOR     -0.695500
      2 C2         -1.5280   -0.8150    0.1030 c         1 DOR      0.783500
      3 N1         -0.4530   -1.2410   -0.6860 n         1 DOR     -0.474900
      4 N3         -1.7720    0.5670    0.2730 n         1 DOR     -0.600500
      5 C4         -0.9120    1.5520   -0.1980 c         1 DOR      0.716500
      6 O4         -1.2260    2.7470   -0.0240 o         1 DOR     -0.668500
      7 C5          0.3440    1.1420   -0.9190 c3        1 DOR     -0.147400
      8 C6          0.6670   -0.3480   -0.9370 c3        1 DOR     -0.086300
      9 C7          1.9210   -0.6680   -0.0310 c         1 DOR      0.902600
     10 O72         2.7610    0.2550    0.1320 o         1 DOR     -0.816800
     11 O71         2.0120   -1.8400    0.4210 o         1 DOR     -0.816800
     12 HN1        -0.1260   -2.1570   -0.4150 hn        1 DOR      0.330500
     13 HN3        -2.5920    0.8240    0.7740 hn        1 DOR      0.326500
     14 H51         1.2120    1.6800   -0.4340 hc        1 DOR      0.094700
     15 H52         0.2500    1.5280   -1.9690 hc        1 DOR      0.094700
     16 H6          1.0090   -0.6080   -1.9860 h1        1 DOR      0.056700
@<TRIPOS>BOND
     1    1    2 2   
     2    2    3 1   
     3    2    4 1   
     4    3    8 1   
     5    3   12 1   
     6    4    5 1   
     7    4   13 1   
     8    5    6 2   
     9    5    7 1   
    10    7    8 1   
    11    7   14 1   
    12    7   15 1   
    13    8    9 1   
    14    8   16 1   
    15    9   10 1   
    16    9   11 1   
@<TRIPOS>SUBSTRUCTURE
     1 DOR         1 TEMP              0 ****  ****    0 ROOT
