@<TRIPOS>MOLECULE
DOR
   16    16     1     0     0
SMALL
bcc


@<TRIPOS>ATOM
      1 O2         -0.0830    0.2640   -0.3310 o         1 DOR     -0.695500
      2 C2          1.1490    0.0600   -0.1860 c         1 DOR      0.783500
      3 N1          1.7610    0.0420    1.0730 n         1 DOR     -0.474900
      4 N3          1.8940   -0.2890   -1.3360 n         1 DOR     -0.600500
      5 C4          3.2630   -0.5260   -1.3080 c         1 DOR      0.716500
      6 O4          3.8300   -0.8550   -2.3710 o         1 DOR     -0.668500
      7 C5          4.0000   -0.4050   -0.0020 c3        1 DOR     -0.147400
      8 C6          3.2080    0.1380    1.1820 c3        1 DOR     -0.086300
      9 C7          3.6980    1.5870    1.5760 c         1 DOR      0.902600
     10 O72         4.8900    1.8830    1.3040 o         1 DOR     -0.816800
     11 O71         2.8710    2.3230    2.1790 o         1 DOR     -0.816800
     12 HN1         1.3110    0.6720    1.7200 hn        1 DOR      0.330500
     13 HN3         1.3990   -0.3390   -2.1970 hn        1 DOR      0.326500
     14 H51         4.8880    0.2750   -0.1680 hc        1 DOR      0.094700
     15 H52         4.3970   -1.4270    0.2370 hc        1 DOR      0.094700
     16 H6          3.4680   -0.4970    2.0840 h1        1 DOR      0.056700
@<TRIPOS>BOND
     1    1    2 2   
     2    2    3 1   
     3    2    4 1   
     4    3    8 1   
     5    3   12 1   
     6    4    5 1   
     7    4   13 1   
     8    5    6 2   
     9    5    7 1   
    10    7    8 1   
    11    7   14 1   
    12    7   15 1   
    13    8    9 1   
    14    8   16 1   
    15    9   10 1   
    16    9   11 1   
@<TRIPOS>SUBSTRUCTURE
     1 DOR         1 TEMP              0 ****  ****    0 ROOT
