@<TRIPOS>MOLECULE
DOR
   16    16     1     0     0
SMALL
bcc


@<TRIPOS>ATOM
      1 O2         -0.0910    0.2940   -0.2190 o         1 DOR     -0.695500
      2 C2          1.1430    0.0780   -0.1210 c         1 DOR      0.783500
      3 N1          1.8000    0.0450    1.1140 n         1 DOR     -0.474900
      4 N3          1.8420   -0.2680   -1.3000 n         1 DOR     -0.600500
      5 C4          3.2090   -0.5180   -1.3240 c         1 DOR      0.716500
      6 O4          3.7330   -0.8440   -2.4090 o         1 DOR     -0.668500
      7 C5          3.9950   -0.4120   -0.0450 c3        1 DOR     -0.147400
      8 C6          3.2510    0.1280    1.1710 c3        1 DOR     -0.086300
      9 C7          3.7680    1.5700    1.5580 c         1 DOR      0.902600
     10 O72         4.9520    1.8580    1.2440 o         1 DOR     -0.816800
     11 O71         2.9710    2.3080    2.1970 o         1 DOR     -0.816800
     12 HN1         1.3800    0.6750    1.7820 hn        1 DOR      0.330500
     13 HN3         1.3160   -0.3080   -2.1430 hn        1 DOR      0.326500
     14 H51         4.8820    0.2620   -0.2390 hc        1 DOR      0.094700
     15 H52         4.3910   -1.4390    0.1720 hc        1 DOR      0.094700
     16 H6          3.5380   -0.5160    2.0580 h1        1 DOR      0.056700
@<TRIPOS>BOND
     1    1    2 2   
     2    2    3 1   
     3    2    4 1   
     4    3    8 1   
     5    3   12 1   
     6    4    5 1   
     7    4   13 1   
     8    5    6 2   
     9    5    7 1   
    10    7    8 1   
    11    7   14 1   
    12    7   15 1   
    13    8    9 1   
    14    8   16 1   
    15    9   10 1   
    16    9   11 1   
@<TRIPOS>SUBSTRUCTURE
     1 DOR         1 TEMP              0 ****  ****    0 ROOT
