@<TRIPOS>MOLECULE
DOV
   67    71     1     0     0
SMALL
bcc


@<TRIPOS>ATOM
      1 F27         0.5710    0.8940   -0.0520 f         1 DOV     -0.255300
      2 C4          1.8880    0.4490   -0.1060 c3        1 DOV      0.156600
      3 C5          2.5350    0.5990    1.2780 c3        1 DOV     -0.103400
      4 C6          3.9710    0.1340    1.2580 c3        1 DOV     -0.084400
      5 C1          4.0750   -1.2950    0.7760 c3        1 DOV     -0.102400
      6 C2          3.4620   -1.4240   -0.6290 c3        1 DOV      0.117700
      7 N7          3.6710   -2.7320   -1.2010 ns        1 DOV     -0.555900
      8 C8          2.6820   -3.4710   -1.8110 c         1 DOV      0.707500
      9 O28         2.8290   -4.6990   -1.9530 o         1 DOV     -0.598500
     10 C9          1.4030   -2.7950   -2.2860 c3        1 DOV     -0.173700
     11 C10         1.3920   -1.2810   -1.9750 c3        1 DOV      0.129500
     12 N29         0.0120   -0.7260   -2.1780 nz        1 DOV     -0.848600
     13 C3          1.9640   -1.0230   -0.5720 c3        1 DOV     -0.137700
     14 C11         1.1340   -2.9620   -3.8100 c3        1 DOV      0.365700
     15 N15        -0.3410   -2.8570   -4.0980 n7        1 DOV     -0.838200
     16 C14        -0.4550   -3.5530   -5.3890 c3        1 DOV      0.126500
     17 C19        -1.7610   -4.1960   -5.8170 c3        1 DOV     -0.068400
     18 C18        -1.5500   -4.7580   -7.2150 c3        1 DOV     -0.117400
     19 C17        -0.3730   -5.7550   -7.2980 c3        1 DOV      0.191500
     20 C16         0.9310   -5.1170   -6.7550 c3        1 DOV     -0.059400
     21 C13         0.6360   -4.6840   -5.3280 c3        1 DOV      0.132500
     22 N12         1.7290   -4.1100   -4.5300 n7        1 DOV     -0.797200
     23 N20        -0.1530   -6.3620   -8.6050 n3        1 DOV     -0.732600
     24 C25        -1.1500   -7.3660   -8.9460 c3        1 DOV      0.138800
     25 C24        -0.8620   -8.0470  -10.3030 c3        1 DOV      0.164300
     26 N23        -0.6020   -7.1410  -11.4080 n3        1 DOV     -0.718600
     27 C26        -1.7970   -6.5980  -12.0140 c3        1 DOV      0.149100
     28 C22         0.3760   -6.1340  -11.0310 c3        1 DOV      0.164300
     29 C21         0.1010   -5.4240   -9.6860 c3        1 DOV      0.138800
     30 H4          2.4380    1.0990   -0.8500 h1        1 DOV      0.071700
     31 H51C        1.9430    0.0100    2.0260 hc        1 DOV      0.078700
     32 H52C        2.4810    1.6780    1.5800 hc        1 DOV      0.078700
     33 H3          1.4240   -1.6620    0.1800 hc        1 DOV      0.095700
     34 H61C        4.5830    0.8060    0.5990 hc        1 DOV      0.071700
     35 H62C        4.3960    0.2070    2.2940 hc        1 DOV      0.071700
     36 H11C        3.5500   -1.9830    1.4900 hc        1 DOV      0.072700
     37 H12C        5.1560   -1.5970    0.7460 hc        1 DOV      0.072700
     38 H2          3.9890   -0.6780   -1.3040 h1        1 DOV      0.067700
     39 H7          4.4710   -3.2360   -0.8750 hn        1 DOV      0.347500
     40 H9          0.5920   -3.3120   -1.6920 hc        1 DOV      0.095700
     41 H10         2.0520   -0.7420   -2.7270 hx        1 DOV      0.120700
     42 H11         1.5980   -2.0630   -4.3310 h2        1 DOV      0.078700
     43 H291       -0.6490   -1.1920   -1.5510 hn        1 DOV      0.470467
     44 H292        0.0060    0.2800   -1.9630 hn        1 DOV      0.470467
     45 H15        -0.8660   -3.3660   -3.4070 hn        1 DOV      0.339800
     46 H12         2.1290   -4.8000   -3.9210 hn        1 DOV      0.404800
     47 H14        -0.1640   -2.7930   -6.1740 h1        1 DOV      0.087700
     48 H191       -2.5870   -3.4390   -5.8370 hc        1 DOV      0.052700
     49 H192       -2.0600   -5.0100   -5.1070 hc        1 DOV      0.052700
     50 H13         0.2020   -5.5810   -4.7860 h1        1 DOV      0.042700
     51 H181       -1.3710   -3.9080   -7.9250 hc        1 DOV      0.057200
     52 H182       -2.4910   -5.2760   -7.5360 hc        1 DOV      0.057200
     53 H17        -0.6270   -6.6130   -6.6000 h1        1 DOV      0.054700
     54 H161        1.2420   -4.2420   -7.3780 hc        1 DOV      0.069700
     55 H162        1.7610   -5.8680   -6.7760 hc        1 DOV      0.069700
     56 H251       -1.1320   -8.1600   -8.1490 h1        1 DOV      0.032700
     57 H252       -2.1910   -6.9290   -8.9750 h1        1 DOV      0.032700
     58 H211       -0.7590   -4.7070   -9.8310 h1        1 DOV      0.032700
     59 H212        1.0130   -4.8220   -9.4180 h1        1 DOV      0.032700
     60 H241        0.0500   -8.7000  -10.1950 h1        1 DOV      0.062950
     61 H242       -1.7390   -8.7050  -10.5520 h1        1 DOV      0.062950
     62 H261       -1.5040   -5.9910  -12.9100 h1        1 DOV      0.033367
     63 H262       -2.3960   -5.9470  -11.3210 h1        1 DOV      0.033367
     64 H263       -2.4460   -7.4470  -12.3550 h1        1 DOV      0.033367
     65 H221        1.3730   -6.6540  -10.9710 h1        1 DOV      0.062950
     66 H222        0.4350   -5.3470  -11.8310 h1        1 DOV      0.062950
     67 H293       -0.2860   -0.8800   -3.1560 hn        1 DOV      0.470467
@<TRIPOS>BOND
     1    1    2 1   
     2    2    3 1   
     3    2   13 1   
     4    2   30 1   
     5    3    4 1   
     6    3   31 1   
     7    3   32 1   
     8    4    5 1   
     9    4   34 1   
    10    4   35 1   
    11    5    6 1   
    12    5   36 1   
    13    5   37 1   
    14    6    7 1   
    15    6   13 1   
    16    6   38 1   
    17    7    8 1   
    18    7   39 1   
    19    8    9 2   
    20    8   10 1   
    21   10   11 1   
    22   10   14 1   
    23   10   40 1   
    24   11   12 1   
    25   11   13 1   
    26   11   41 1   
    27   12   43 1   
    28   12   44 1   
    29   12   67 1   
    30   13   33 1   
    31   14   15 1   
    32   14   22 1   
    33   14   42 1   
    34   15   16 1   
    35   15   45 1   
    36   16   17 1   
    37   16   21 1   
    38   16   47 1   
    39   17   18 1   
    40   17   48 1   
    41   17   49 1   
    42   18   19 1   
    43   18   51 1   
    44   18   52 1   
    45   19   20 1   
    46   19   23 1   
    47   19   53 1   
    48   20   21 1   
    49   20   54 1   
    50   20   55 1   
    51   21   22 1   
    52   21   50 1   
    53   22   46 1   
    54   23   24 1   
    55   23   29 1   
    56   24   25 1   
    57   24   56 1   
    58   24   57 1   
    59   25   26 1   
    60   25   60 1   
    61   25   61 1   
    62   26   27 1   
    63   26   28 1   
    64   27   62 1   
    65   27   63 1   
    66   27   64 1   
    67   28   29 1   
    68   28   65 1   
    69   28   66 1   
    70   29   58 1   
    71   29   59 1   
@<TRIPOS>SUBSTRUCTURE
     1 DOV         1 TEMP              0 ****  ****    0 ROOT
