@<TRIPOS>MOLECULE
DOV
   67    71     1     0     0
SMALL
bcc


@<TRIPOS>ATOM
      1 F27         0.3460    0.6490   -0.0250 f         1 DOV     -0.257300
      2 C4          1.6740    0.2580    0.1130 c3        1 DOV      0.154600
      3 C5          1.9980    0.0880    1.6050 c3        1 DOV     -0.103400
      4 C6          3.4320   -0.3340    1.8130 c3        1 DOV     -0.086400
      5 C1          3.7550   -1.5940    1.0410 c3        1 DOV     -0.090400
      6 C2          3.4710   -1.3690   -0.4540 c3        1 DOV      0.116700
      7 N7          3.9400   -2.4690   -1.2640 n         1 DOV     -0.565900
      8 C8          3.4180   -2.7110   -2.5280 c         1 DOV      0.700500
      9 O28         4.1510   -3.1350   -3.4320 o         1 DOV     -0.571500
     10 C9          1.9110   -2.4750   -2.6900 c3        1 DOV     -0.151700
     11 C10         1.6600   -1.0450   -2.1540 c3        1 DOV      0.124500
     12 N29         0.2910   -0.5280   -2.4650 n4        1 DOV     -0.841600
     13 C3          1.9600   -1.0630   -0.6380 c3        1 DOV     -0.131700
     14 C11         1.4790   -2.6990   -4.1600 c3        1 DOV      0.365700
     15 N15         0.0060   -2.5180   -4.3900 n3        1 DOV     -0.822200
     16 C14        -0.2200   -3.3160   -5.6070 c3        1 DOV      0.113500
     17 C19        -1.5940   -3.8580   -5.9450 c3        1 DOV     -0.066400
     18 C18        -1.4740   -4.5760   -7.2820 c3        1 DOV     -0.117400
     19 C17        -0.4060   -5.6920   -7.2820 c3        1 DOV      0.196500
     20 C16         0.9680   -5.1440   -6.8220 c3        1 DOV     -0.079400
     21 C13         0.7530   -4.5420   -5.4460 c3        1 DOV      0.129500
     22 N12         1.8760   -4.0530   -4.6470 n3        1 DOV     -0.802200
     23 N20        -0.2790   -6.4420   -8.5270 n3        1 DOV     -0.734600
     24 C25        -1.3650   -7.3890   -8.7390 c3        1 DOV      0.138800
     25 C24        -1.1760   -8.2230  -10.0260 c3        1 DOV      0.164800
     26 N23        -0.8780   -7.4570  -11.2240 n3        1 DOV     -0.718600
     27 C26        -2.0440   -6.8800  -11.8550 c3        1 DOV      0.149100
     28 C22         0.1880   -6.5020  -10.9740 c3        1 DOV      0.164800
     29 C21         0.0130   -5.6410   -9.7030 c3        1 DOV      0.138800
     30 H4          2.3170    1.0790   -0.3220 h1        1 DOV      0.072700
     31 H51C        1.3000   -0.6720    2.0450 hc        1 DOV      0.077200
     32 H52C        1.8030    1.0630    2.1230 hc        1 DOV      0.077200
     33 H3          1.3530   -1.8790   -0.1570 hc        1 DOV      0.097700
     34 H61C        4.1240    0.4930    1.5010 hc        1 DOV      0.070200
     35 H62C        3.6060   -0.5170    2.9070 hc        1 DOV      0.070200
     36 H11C        4.8360   -1.8550    1.1880 hc        1 DOV      0.073200
     37 H12C        3.1450   -2.4540    1.4220 hc        1 DOV      0.073200
     38 H2          4.0330   -0.4310   -0.7690 h1        1 DOV      0.044700
     39 H7          4.8950   -2.7270   -1.1170 hn        1 DOV      0.340500
     40 H9          1.3810   -3.2280   -2.0380 hc        1 DOV      0.112700
     41 H10         2.3750   -0.3310   -2.6680 hx        1 DOV      0.110700
     42 H11         1.9860   -1.8880   -4.7720 h2        1 DOV      0.057700
     43 H291        0.1300   -0.5450   -3.4860 hn        1 DOV      0.469800
     44 H292       -0.4160   -1.1090   -2.0060 hn        1 DOV      0.469800
     45 H15        -0.5070   -2.9490   -3.6360 hn        1 DOV      0.337800
     46 H12         2.7430   -4.0100   -5.1480 hn        1 DOV      0.403800
     47 H14         0.1220   -2.6670   -6.4680 h1        1 DOV      0.080700
     48 H191       -1.9530   -4.5640   -5.1530 hc        1 DOV      0.053200
     49 H192       -2.3410   -3.0280   -6.0300 hc        1 DOV      0.053200
     50 H13         0.2550   -5.3260   -4.7970 h1        1 DOV      0.075700
     51 H181       -2.4700   -5.0240   -7.5370 hc        1 DOV      0.057700
     52 H182       -1.2290   -3.8230   -8.0770 hc        1 DOV      0.057700
     53 H17        -0.7290   -6.4460   -6.4980 h1        1 DOV      0.057700
     54 H161        1.3520   -4.3750   -7.5390 hc        1 DOV      0.066700
     55 H162        1.7120   -5.9800   -6.7770 hc        1 DOV      0.066700
     56 H251       -2.3670   -6.8710   -8.7870 h1        1 DOV      0.032700
     57 H252       -1.3840   -8.0990   -7.8660 h1        1 DOV      0.032700
     58 H211       -0.7930   -4.8740   -9.9010 h1        1 DOV      0.032700
     59 H212        0.9760   -5.0900   -9.5200 h1        1 DOV      0.032700
     60 H241       -0.3170   -8.9360   -9.8730 h1        1 DOV      0.063450
     61 H242       -2.1110   -8.8260  -10.1860 h1        1 DOV      0.063450
     62 H261       -2.7700   -7.7020  -12.0930 h1        1 DOV      0.033367
     63 H262       -1.7310   -6.3910  -12.8150 h1        1 DOV      0.033367
     64 H263       -2.5680   -6.1150  -11.2190 h1        1 DOV      0.033367
     65 H221        1.1420   -7.0950  -10.8830 h1        1 DOV      0.063450
     66 H222        0.2860   -5.8070  -11.8520 h1        1 DOV      0.063450
     67 H293        0.1960    0.4320   -2.1100 hn        1 DOV      0.469800
@<TRIPOS>BOND
     1    1    2 1   
     2    2    3 1   
     3    2   13 1   
     4    2   30 1   
     5    3    4 1   
     6    3   31 1   
     7    3   32 1   
     8    4    5 1   
     9    4   34 1   
    10    4   35 1   
    11    5    6 1   
    12    5   36 1   
    13    5   37 1   
    14    6    7 1   
    15    6   13 1   
    16    6   38 1   
    17    7    8 1   
    18    7   39 1   
    19    8    9 2   
    20    8   10 1   
    21   10   11 1   
    22   10   14 1   
    23   10   40 1   
    24   11   12 1   
    25   11   13 1   
    26   11   41 1   
    27   12   43 1   
    28   12   44 1   
    29   12   67 1   
    30   13   33 1   
    31   14   15 1   
    32   14   22 1   
    33   14   42 1   
    34   15   16 1   
    35   15   45 1   
    36   16   17 1   
    37   16   21 1   
    38   16   47 1   
    39   17   18 1   
    40   17   48 1   
    41   17   49 1   
    42   18   19 1   
    43   18   51 1   
    44   18   52 1   
    45   19   20 1   
    46   19   23 1   
    47   19   53 1   
    48   20   21 1   
    49   20   54 1   
    50   20   55 1   
    51   21   22 1   
    52   21   50 1   
    53   22   46 1   
    54   23   24 1   
    55   23   29 1   
    56   24   25 1   
    57   24   56 1   
    58   24   57 1   
    59   25   26 1   
    60   25   60 1   
    61   25   61 1   
    62   26   27 1   
    63   26   28 1   
    64   27   62 1   
    65   27   63 1   
    66   27   64 1   
    67   28   29 1   
    68   28   65 1   
    69   28   66 1   
    70   29   58 1   
    71   29   59 1   
@<TRIPOS>SUBSTRUCTURE
     1 DOV         1 TEMP              0 ****  ****    0 ROOT
