@<TRIPOS>MOLECULE
DOX
   14    14     1     0     0
SMALL
bcc


@<TRIPOS>ATOM
      1 C1         -1.1840    0.2540    0.7180 c3        1 DOX      0.091400
      2 C2         -1.1840   -0.2540   -0.7180 c3        1 DOX      0.091400
      3 O1          0.0000    0.1470   -1.4020 os        1 DOX     -0.412600
      4 C3          1.1840   -0.2540   -0.7180 c3        1 DOX      0.091400
      5 C4          1.1840    0.2540    0.7180 c3        1 DOX      0.091400
      6 O2          0.0000   -0.1470    1.4020 os        1 DOX     -0.412600
      7 H11        -1.2650    1.3730    0.7390 h1        1 DOX      0.057200
      8 H12        -2.0160   -0.2060    1.3100 h1        1 DOX      0.057200
      9 H21        -1.2650   -1.3730   -0.7390 h1        1 DOX      0.057200
     10 H22        -2.0160    0.2060   -1.3100 h1        1 DOX      0.057200
     11 H31         1.2650   -1.3730   -0.7390 h1        1 DOX      0.057200
     12 H32         2.0160    0.2060   -1.3100 h1        1 DOX      0.057200
     13 H41         2.0160   -0.2060    1.3100 h1        1 DOX      0.057200
     14 H42         1.2650    1.3730    0.7390 h1        1 DOX      0.057200
@<TRIPOS>BOND
     1    1    2 1   
     2    1    6 1   
     3    1    7 1   
     4    1    8 1   
     5    2    3 1   
     6    2    9 1   
     7    2   10 1   
     8    3    4 1   
     9    4    5 1   
    10    4   11 1   
    11    4   12 1   
    12    5    6 1   
    13    5   13 1   
    14    5   14 1   
@<TRIPOS>SUBSTRUCTURE
     1 DOX         1 TEMP              0 ****  ****    0 ROOT
