@<TRIPOS>MOLECULE
DOX
   14    14     1     0     0
SMALL
bcc


@<TRIPOS>ATOM
      1 C1          0.0020    0.0280   -0.0260 c3        1 DOX      0.091400
      2 C2          1.5250    0.0100   -0.0370 c3        1 DOX      0.091400
      3 O1          2.0450   -0.0950    1.2860 os        1 DOX     -0.412600
      4 C3          1.5260   -1.2230    1.9840 c3        1 DOX      0.091400
      5 C4          0.0030   -1.2050    1.9950 c3        1 DOX      0.091400
      6 O2         -0.5170   -1.1000    0.6720 os        1 DOX     -0.412600
      7 H11        -0.4110   -0.0730   -1.0630 h1        1 DOX      0.057200
      8 H12        -0.3760    0.9690    0.4540 h1        1 DOX      0.057200
      9 H21         1.9390    0.9790   -0.4210 h1        1 DOX      0.057200
     10 H22         1.9040   -0.8460   -0.6550 h1        1 DOX      0.057200
     11 H31         1.9390   -1.1230    3.0210 h1        1 DOX      0.057200
     12 H32         1.9040   -2.1640    1.5050 h1        1 DOX      0.057200
     13 H41        -0.3760   -0.3490    2.6130 h1        1 DOX      0.057200
     14 H42        -0.4110   -2.1740    2.3790 h1        1 DOX      0.057200
@<TRIPOS>BOND
     1    1    2 1   
     2    1    6 1   
     3    1    7 1   
     4    1    8 1   
     5    2    3 1   
     6    2    9 1   
     7    2   10 1   
     8    3    4 1   
     9    4    5 1   
    10    4   11 1   
    11    4   12 1   
    12    5    6 1   
    13    5   13 1   
    14    5   14 1   
@<TRIPOS>SUBSTRUCTURE
     1 DOX         1 TEMP              0 ****  ****    0 ROOT
