@<TRIPOS>MOLECULE
DOX
   14    14     1     0     0
SMALL
bcc


@<TRIPOS>ATOM
      1 C1          0.0020    0.0290   -0.0250 c3        1 DOX      0.091400
      2 C2          1.5250    0.0090   -0.0380 c3        1 DOX      0.091400
      3 O1          2.0460   -0.0980    1.2840 os        1 DOX     -0.412600
      4 C3          1.5260   -1.2250    1.9830 c3        1 DOX      0.091400
      5 C4          0.0030   -1.2040    1.9960 c3        1 DOX      0.091400
      6 O2         -0.5180   -1.0980    0.6740 os        1 DOX     -0.412600
      7 H11        -0.4130   -0.0700   -1.0610 h1        1 DOX      0.057200
      8 H12        -0.3740    0.9710    0.4550 h1        1 DOX      0.057200
      9 H21         1.9400    0.9770   -0.4230 h1        1 DOX      0.057200
     10 H22         1.9010   -0.8480   -0.6560 h1        1 DOX      0.057200
     11 H31         1.9410   -1.1250    3.0190 h1        1 DOX      0.057200
     12 H32         1.9020   -2.1660    1.5030 h1        1 DOX      0.057200
     13 H41        -0.3730   -0.3470    2.6150 h1        1 DOX      0.057200
     14 H42        -0.4120   -2.1720    2.3810 h1        1 DOX      0.057200
@<TRIPOS>BOND
     1    1    2 1   
     2    1    6 1   
     3    1    7 1   
     4    1    8 1   
     5    2    3 1   
     6    2    9 1   
     7    2   10 1   
     8    3    4 1   
     9    4    5 1   
    10    4   11 1   
    11    4   12 1   
    12    5    6 1   
    13    5   13 1   
    14    5   14 1   
@<TRIPOS>SUBSTRUCTURE
     1 DOX         1 TEMP              0 ****  ****    0 ROOT
