@<TRIPOS>MOLECULE
DOY
   36    38     1     0     0
SMALL
bcc


@<TRIPOS>ATOM
      1 C1          0.1980    0.1140   -0.1060 ca        1 DOY     -0.184000
      2 C2          1.5720    0.2400    0.0300 ca        1 DOY     -0.083000
      3 C3          2.1870    0.1790    1.2870 ca        1 DOY     -0.084100
      4 S4          3.8900    0.2460    1.3030 ss        1 DOY     -0.239000
      5 C5          4.2020    1.7770    2.1800 c3        1 DOY      0.057700
      6 C6          5.6720    1.8290    2.4040 ca        1 DOY     -0.071300
      7 C7          6.2660    1.3290    3.5700 ca        1 DOY     -0.113000
      8 C8          7.6490    1.3990    3.7370 ca        1 DOY     -0.140000
      9 C9          8.4520    1.9650    2.7480 ca        1 DOY     -0.136000
     10 C10         7.8670    2.4640    1.5850 ca        1 DOY     -0.140000
     11 C11         6.4870    2.3980    1.4130 ca        1 DOY     -0.113000
     12 C12         3.3480    1.9380    3.4190 c3        1 DOY     -0.156400
     13 C13         3.0280    0.6470    4.1590 c         1 DOY      0.720500
     14 O14         3.6730    0.3570    5.1880 o         1 DOY     -0.648500
     15 N15         1.9900   -0.1700    3.7160 n         1 DOY     -0.336000
     16 C16         1.3410   -1.0620    4.6670 c3        1 DOY     -0.052000
     17 C17         0.1230   -0.5120    5.4660 c         1 DOY      0.901600
     18 O18        -0.3810   -1.3270    6.2860 o         1 DOY     -0.830300
     19 O19        -0.3050    0.6550    5.2520 o         1 DOY     -0.830300
     20 C20         1.3980   -0.0040    2.4500 ca        1 DOY      0.129600
     21 C21        -0.0120   -0.0910    2.2960 ca        1 DOY     -0.145000
     22 C22        -0.5900   -0.0410    1.0390 ca        1 DOY     -0.102000
     23 H1         -0.2680    0.1460   -1.0990 ha        1 DOY      0.117000
     24 H2          2.2050    0.3850   -0.8600 ha        1 DOY      0.127000
     25 H5          3.9250    2.6190    1.4840 h1        1 DOY      0.066700
     26 H7          5.6380    0.8770    4.3580 ha        1 DOY      0.154500
     27 H8          8.1030    1.0020    4.6570 ha        1 DOY      0.125000
     28 H9          9.5410    2.0170    2.8840 ha        1 DOY      0.119000
     29 H10         8.4950    2.9100    0.8010 ha        1 DOY      0.125000
     30 H11         6.0320    2.7910    0.4920 ha        1 DOY      0.154500
     31 H12         2.3820    2.4390    3.1390 hc        1 DOY      0.079700
     32 H12A        3.8750    2.6090    4.1510 hc        1 DOY      0.079700
     33 H16         0.9970   -1.9720    4.1040 h1        1 DOY      0.058200
     34 H16A        2.1160   -1.3770    5.4200 h1        1 DOY      0.058200
     35 H21        -0.6470   -0.1660    3.2020 ha        1 DOY      0.204000
     36 H22        -1.6840   -0.1130    0.9450 ha        1 DOY      0.125000
@<TRIPOS>BOND
     1    1    2 ar  
     2    1   22 ar  
     3    1   23 1   
     4    2    3 ar  
     5    2   24 1   
     6    3    4 1   
     7    3   20 ar  
     8    4    5 1   
     9    5    6 1   
    10    5   12 1   
    11    5   25 1   
    12    6    7 ar  
    13    6   11 ar  
    14    7    8 ar  
    15    7   26 1   
    16    8    9 ar  
    17    8   27 1   
    18    9   10 ar  
    19    9   28 1   
    20   10   11 ar  
    21   10   29 1   
    22   11   30 1   
    23   12   13 1   
    24   12   31 1   
    25   12   32 1   
    26   13   14 2   
    27   13   15 1   
    28   15   16 1   
    29   15   20 1   
    30   16   17 1   
    31   16   33 1   
    32   16   34 1   
    33   17   18 1   
    34   17   19 1   
    35   20   21 ar  
    36   21   22 ar  
    37   21   35 1   
    38   22   36 1   
@<TRIPOS>SUBSTRUCTURE
     1 DOY         1 TEMP              0 ****  ****    0 ROOT
