@<TRIPOS>MOLECULE
DOY
   36    38     1     0     0
SMALL
bcc


@<TRIPOS>ATOM
      1 C1          0.2060    0.1170   -0.1150 ca        1 DOY     -0.184000
      2 C2          1.5800    0.2430    0.0250 ca        1 DOY     -0.083000
      3 C3          2.1910    0.1790    1.2830 ca        1 DOY     -0.084100
      4 S4          3.8940    0.2450    1.3020 ss        1 DOY     -0.239000
      5 C5          4.2050    1.7750    2.1840 c3        1 DOY      0.057700
      6 C6          5.6740    1.8260    2.4110 ca        1 DOY     -0.071300
      7 C7          6.2660    1.3230    3.5770 ca        1 DOY     -0.113000
      8 C8          7.6480    1.3920    3.7480 ca        1 DOY     -0.140000
      9 C9          8.4540    1.9600    2.7630 ca        1 DOY     -0.136000
     10 C10         7.8710    2.4630    1.5990 ca        1 DOY     -0.140000
     11 C11         6.4910    2.3980    1.4240 ca        1 DOY     -0.113000
     12 C12         3.3480    1.9330    3.4210 c3        1 DOY     -0.156400
     13 C13         3.0260    0.6400    4.1580 c         1 DOY      0.720500
     14 O14         3.6690    0.3480    5.1880 o         1 DOY     -0.648500
     15 N15         1.9890   -0.1760    3.7100 n         1 DOY     -0.336000
     16 C16         1.3380   -1.0690    4.6580 c3        1 DOY     -0.052000
     17 C17         0.1170   -0.5210    5.4550 c         1 DOY      0.901600
     18 O18        -0.3880   -1.3380    6.2730 o         1 DOY     -0.830300
     19 O19        -0.3100    0.6470    5.2430 o         1 DOY     -0.830300
     20 C20         1.4000   -0.0060    2.4440 ca        1 DOY      0.129600
     21 C21        -0.0090   -0.0920    2.2870 ca        1 DOY     -0.145000
     22 C22        -0.5850   -0.0400    1.0280 ca        1 DOY     -0.102000
     23 H1         -0.2580    0.1520   -1.1090 ha        1 DOY      0.117000
     24 H2          2.2140    0.3900   -0.8640 ha        1 DOY      0.127000
     25 H5          3.9290    2.6180    1.4890 h1        1 DOY      0.066700
     26 H7          5.6350    0.8690    4.3630 ha        1 DOY      0.154500
     27 H8          8.1000    0.9920    4.6670 ha        1 DOY      0.125000
     28 H9          9.5430    2.0120    2.9010 ha        1 DOY      0.119000
     29 H10         8.5010    2.9120    0.8180 ha        1 DOY      0.125000
     30 H11         6.0380    2.7940    0.5030 ha        1 DOY      0.154500
     31 H12         2.3820    2.4350    3.1400 hc        1 DOY      0.079700
     32 H12A        3.8730    2.6020    4.1560 hc        1 DOY      0.079700
     33 H16         0.9950   -1.9780    4.0920 h1        1 DOY      0.058200
     34 H16A        2.1110   -1.3870    5.4120 h1        1 DOY      0.058200
     35 H21        -0.6470   -0.1690    3.1910 ha        1 DOY      0.204000
     36 H22        -1.6790   -0.1110    0.9310 ha        1 DOY      0.125000
@<TRIPOS>BOND
     1    1    2 ar  
     2    1   22 ar  
     3    1   23 1   
     4    2    3 ar  
     5    2   24 1   
     6    3    4 1   
     7    3   20 ar  
     8    4    5 1   
     9    5    6 1   
    10    5   12 1   
    11    5   25 1   
    12    6    7 ar  
    13    6   11 ar  
    14    7    8 ar  
    15    7   26 1   
    16    8    9 ar  
    17    8   27 1   
    18    9   10 ar  
    19    9   28 1   
    20   10   11 ar  
    21   10   29 1   
    22   11   30 1   
    23   12   13 1   
    24   12   31 1   
    25   12   32 1   
    26   13   14 2   
    27   13   15 1   
    28   15   16 1   
    29   15   20 1   
    30   16   17 1   
    31   16   33 1   
    32   16   34 1   
    33   17   18 1   
    34   17   19 1   
    35   20   21 ar  
    36   21   22 ar  
    37   21   35 1   
    38   22   36 1   
@<TRIPOS>SUBSTRUCTURE
     1 DOY         1 TEMP              0 ****  ****    0 ROOT
