@<TRIPOS>MOLECULE
DOY
   36    33     1     0     0
SMALL
bcc


@<TRIPOS>ATOM
      1 C1         -3.0420   -0.9010   -3.0340 c1        1 DOY     -0.141750
      2 C2         -1.6470   -0.8970   -3.0100 c1        1 DOY     -0.073000
      3 C3         -0.9670   -0.8870   -1.7880 c1        1 DOY     -0.328000
      4 S4          0.5680   -0.0200   -1.6110 s         1 DOY      0.171000
      5 C5          0.4060    1.3330   -0.4890 c3        1 DOY     -0.175000
      6 C6          1.7700    1.6410    0.1280 c2        1 DOY     -0.062000
      7 C7          2.8680    0.8550   -0.1940 c2        1 DOY     -0.105000
      8 C8          4.1300    1.2000    0.2720 c1        1 DOY     -0.135000
      9 C9          4.2940    2.3260    1.0570 c1        1 DOY     -0.141750
     10 C10         3.1990    3.1100    1.3790 c1        1 DOY     -0.141750
     11 C11         1.9330    2.7640    0.9110 c1        1 DOY     -0.121000
     12 C12        -0.5840    1.0010    0.6210 c3        1 DOY     -0.186000
     13 C13        -0.1670   -0.3530    1.1560 c2        1 DOY      0.343000
     14 O14         0.5800   -0.5180    2.1090 o         1 DOY     -0.357000
     15 N15        -0.8710   -1.4030    0.4930 n         1 DOY     -0.248000
     16 C16        -0.7820   -2.8030    0.8510 c3        1 DOY     -0.122000
     17 C17        -1.3070   -2.9990    2.2640 c2        1 DOY      0.316000
     18 O18        -0.8390   -2.3110    3.2100 o         1 DOY     -0.562000
     19 O19        -2.2590   -3.7960    2.4760 o         1 DOY     -0.562000
     20 C20        -1.6780   -0.8810   -0.6010 c2        1 DOY      0.148000
     21 C21        -3.0810   -0.8850   -0.6240 c1        1 DOY     -0.168000
     22 C22        -3.7570   -0.8950   -1.8420 c1        1 DOY     -0.141750
     23 H1         -3.5160   -0.9080   -3.8870 ha        1 DOY      0.120500
     24 H2         -1.1480   -0.9010   -3.8410 ha        1 DOY      0.126000
     25 H5          0.0870    2.1210   -0.9780 h1        1 DOY      0.108000
     26 H7          2.7540    0.0660   -0.7440 ha        1 DOY      0.179000
     27 H8          4.9030    0.6460    0.0450 ha        1 DOY      0.129000
     28 H9          5.1580    2.5100    1.4660 ha        1 DOY      0.120500
     29 H10         3.3150    3.9090    1.9350 ha        1 DOY      0.120500
     30 H11         1.1600    3.3180    1.1380 ha        1 DOY      0.128000
     31 H12        -1.5230    1.1320    0.3940 hc        1 DOY      0.123000
     32 H12A       -0.4830    1.6530    1.3490 hc        1 DOY      0.123000
     33 H16        -1.3170   -3.3340    0.2270 h1        1 DOY      0.096000
     34 H16A        0.1570   -3.0940    0.8070 h1        1 DOY      0.096000
     35 H21        -3.5820   -0.9030    0.2120 ha        1 DOY      0.204000
     36 H22        -4.7310   -0.8980   -1.8590 ha        1 DOY      0.120500
@<TRIPOS>BOND
     1    1   22 1   
     2    1   23 1   
     3    2    3 1   
     4    2   24 1   
     5    3   20 1   
     6    4    5 1   
     7    5    6 1   
     8    5   12 1   
     9    5   25 1   
    10    6    7 1   
    11    6   11 1   
    12    7    8 1   
    13    7   26 1   
    14    8   27 1   
    15    9   10 1   
    16    9   28 1   
    17   10   29 1   
    18   11   30 1   
    19   12   13 1   
    20   12   31 1   
    21   12   32 1   
    22   13   14 1   
    23   13   15 1   
    24   15   16 1   
    25   15   20 1   
    26   16   17 1   
    27   16   33 1   
    28   16   34 1   
    29   17   18 1   
    30   17   19 1   
    31   20   21 1   
    32   21   35 1   
    33   22   36 1   
@<TRIPOS>SUBSTRUCTURE
     1 DOY         1 TEMP              0 ****  ****    0 ROOT
