@<TRIPOS>MOLECULE
DOY
   36    38     1     0     0
SMALL
bcc


@<TRIPOS>ATOM
      1 C1          2.5120   -3.3850    0.1130 ca        1 DOY     -0.184000
      2 C2          1.1940   -3.0520   -0.1600 ca        1 DOY     -0.083000
      3 C3          0.7940   -1.7160   -0.2860 ca        1 DOY     -0.084100
      4 S4         -0.8320   -1.4500   -0.7230 ss        1 DOY     -0.239000
      5 C5         -1.4810   -0.6090    0.7210 c3        1 DOY      0.057700
      6 C6         -2.8560   -0.1710    0.3570 ca        1 DOY     -0.071300
      7 C7         -3.1150    1.0930   -0.1880 ca        1 DOY     -0.113000
      8 C8         -4.4200    1.4610   -0.5150 ca        1 DOY     -0.140000
      9 C9         -5.4770    0.5780   -0.3020 ca        1 DOY     -0.136000
     10 C10        -5.2260   -0.6820    0.2410 ca        1 DOY     -0.140000
     11 C11        -3.9250   -1.0550    0.5700 ca        1 DOY     -0.113000
     12 C12        -0.5660    0.4800    1.2370 c3        1 DOY     -0.156400
     13 C13         0.2250    1.2240    0.1700 c         1 DOY      0.720500
     14 O14        -0.1650    2.3500   -0.2040 o         1 DOY     -0.648500
     15 N15         1.3970    0.6700   -0.3420 n         1 DOY     -0.336000
     16 C16         2.4020    1.5550   -0.9120 c3        1 DOY     -0.052000
     17 C17         3.4870    2.1360    0.0410 c         1 DOY      0.901600
     18 O18         4.3150    2.9100   -0.5120 o         1 DOY     -0.830300
     19 O19         3.5080    1.8060    1.2580 o         1 DOY     -0.830300
     20 C20         1.7420   -0.6760   -0.1230 ca        1 DOY      0.129600
     21 C21         3.0800   -1.0340    0.1970 ca        1 DOY     -0.145000
     22 C22         3.4500   -2.3640    0.3010 ca        1 DOY     -0.102000
     23 H1          2.8150   -4.4370    0.1920 ha        1 DOY      0.117000
     24 H2          0.4390   -3.8430   -0.2880 ha        1 DOY      0.127000
     25 H5         -1.5650   -1.3770    1.5400 h1        1 DOY      0.066700
     26 H7         -2.2830    1.8000   -0.3620 ha        1 DOY      0.154500
     27 H8         -4.6100    2.4560   -0.9440 ha        1 DOY      0.125000
     28 H9         -6.5040    0.8710   -0.5620 ha        1 DOY      0.119000
     29 H10        -6.0550   -1.3840    0.4090 ha        1 DOY      0.125000
     30 H11        -3.7330   -2.0510    0.9950 ha        1 DOY      0.154500
     31 H12        -1.1730    1.2500    1.7860 hc        1 DOY      0.079700
     32 H12A        0.1580    0.0360    1.9730 hc        1 DOY      0.079700
     33 H16         2.9320    0.9910   -1.7280 h1        1 DOY      0.058200
     34 H16A        1.8630    2.4290   -1.3730 h1        1 DOY      0.058200
     35 H21         3.8190   -0.2310    0.3940 ha        1 DOY      0.204000
     36 H22         4.4920   -2.6170    0.5470 ha        1 DOY      0.125000
@<TRIPOS>BOND
     1    1    2 ar  
     2    1   22 ar  
     3    1   23 1   
     4    2    3 ar  
     5    2   24 1   
     6    3    4 1   
     7    3   20 ar  
     8    4    5 1   
     9    5    6 1   
    10    5   12 1   
    11    5   25 1   
    12    6    7 ar  
    13    6   11 ar  
    14    7    8 ar  
    15    7   26 1   
    16    8    9 ar  
    17    8   27 1   
    18    9   10 ar  
    19    9   28 1   
    20   10   11 ar  
    21   10   29 1   
    22   11   30 1   
    23   12   13 1   
    24   12   31 1   
    25   12   32 1   
    26   13   14 2   
    27   13   15 1   
    28   15   16 1   
    29   15   20 1   
    30   16   17 1   
    31   16   33 1   
    32   16   34 1   
    33   17   18 1   
    34   17   19 1   
    35   20   21 ar  
    36   21   22 ar  
    37   21   35 1   
    38   22   36 1   
@<TRIPOS>SUBSTRUCTURE
     1 DOY         1 TEMP              0 ****  ****    0 ROOT
