@<TRIPOS>MOLECULE
DOY
   36    38     1     0     0
SMALL
bcc


@<TRIPOS>ATOM
      1 C1          0.2010    0.1210   -0.1100 ca        1 DOY     -0.184000
      2 C2          1.5750    0.2420    0.0280 ca        1 DOY     -0.083000
      3 C3          2.1870    0.1790    1.2860 ca        1 DOY     -0.084100
      4 S4          3.8910    0.2390    1.3040 ss        1 DOY     -0.239000
      5 C5          4.2080    1.7690    2.1800 c3        1 DOY      0.057700
      6 C6          5.6780    1.8150    2.4060 ca        1 DOY     -0.071300
      7 C7          6.2690    1.3140    3.5730 ca        1 DOY     -0.113000
      8 C8          7.6510    1.3770    3.7430 ca        1 DOY     -0.140000
      9 C9          8.4590    1.9390    2.7550 ca        1 DOY     -0.136000
     10 C10         7.8780    2.4400    1.5900 ca        1 DOY     -0.140000
     11 C11         6.4970    2.3800    1.4170 ca        1 DOY     -0.113000
     12 C12         3.3530    1.9350    3.4180 c3        1 DOY     -0.156400
     13 C13         3.0260    0.6460    4.1580 c         1 DOY      0.720500
     14 O14         3.6690    0.3550    5.1890 o         1 DOY     -0.648500
     15 N15         1.9850   -0.1670    3.7140 n         1 DOY     -0.336000
     16 C16         1.3320   -1.0540    4.6650 c3        1 DOY     -0.052000
     17 C17         0.1140   -0.5000    5.4620 c         1 DOY      0.901600
     18 O18        -0.3940   -1.3120    6.2830 o         1 DOY     -0.830300
     19 O19        -0.3090    0.6690    5.2460 o         1 DOY     -0.830300
     20 C20         1.3970    0.0010    2.4480 ca        1 DOY      0.129600
     21 C21        -0.0130   -0.0800    2.2920 ca        1 DOY     -0.145000
     22 C22        -0.5900   -0.0290    1.0340 ca        1 DOY     -0.102000
     23 H1         -0.2640    0.1550   -1.1050 ha        1 DOY      0.117000
     24 H2          2.2100    0.3830   -0.8620 ha        1 DOY      0.127000
     25 H5          3.9360    2.6120    1.4830 h1        1 DOY      0.066700
     26 H7          5.6370    0.8660    4.3620 ha        1 DOY      0.154500
     27 H8          8.1020    0.9790    4.6630 ha        1 DOY      0.125000
     28 H9          9.5480    1.9860    2.8920 ha        1 DOY      0.119000
     29 H10         8.5090    2.8830    0.8070 ha        1 DOY      0.125000
     30 H11         6.0450    2.7740    0.4940 ha        1 DOY      0.154500
     31 H12         3.8820    2.6050    4.1500 hc        1 DOY      0.079700
     32 H12A        2.3890    2.4400    3.1360 hc        1 DOY      0.079700
     33 H16         2.1040   -1.3730    5.4200 h1        1 DOY      0.058200
     34 H16A        0.9850   -1.9640    4.1020 h1        1 DOY      0.058200
     35 H21        -0.6510   -0.1510    3.1970 ha        1 DOY      0.204000
     36 H22        -1.6840   -0.0960    0.9380 ha        1 DOY      0.125000
@<TRIPOS>BOND
     1    1    2 ar  
     2    1   22 ar  
     3    1   23 1   
     4    2    3 ar  
     5    2   24 1   
     6    3    4 1   
     7    3   20 ar  
     8    4    5 1   
     9    5    6 1   
    10    5   12 1   
    11    5   25 1   
    12    6    7 ar  
    13    6   11 ar  
    14    7    8 ar  
    15    7   26 1   
    16    8    9 ar  
    17    8   27 1   
    18    9   10 ar  
    19    9   28 1   
    20   10   11 ar  
    21   10   29 1   
    22   11   30 1   
    23   12   13 1   
    24   12   31 1   
    25   12   32 1   
    26   13   14 2   
    27   13   15 1   
    28   15   16 1   
    29   15   20 1   
    30   16   17 1   
    31   16   33 1   
    32   16   34 1   
    33   17   18 1   
    34   17   19 1   
    35   20   21 ar  
    36   21   22 ar  
    37   21   35 1   
    38   22   36 1   
@<TRIPOS>SUBSTRUCTURE
     1 DOY         1 TEMP              0 ****  ****    0 ROOT
