@<TRIPOS>MOLECULE
DP0
   56    57     1     0     0
SMALL
bcc


@<TRIPOS>ATOM
      1 C1         -0.0350    0.1730   -0.1990 c3        1 DP0     -0.050000
      2 O1          0.2140    2.4250   -1.2090 o         1 DP0     -0.426100
      3 C2          1.5100    0.0900   -0.2080 c3        1 DP0     -0.096400
      4 N2          3.6480    0.9970    0.8320 n4        1 DP0     -0.690400
      5 C3          2.1750    1.1580    0.6590 c3        1 DP0      0.091800
      6 N3         -0.3030   -1.1280   -2.2600 nb        1 DP0     -0.737000
      7 C4          4.4510    1.1080   -0.4600 c3        1 DP0      0.133000
      8 N4         -1.7600    1.3530   -1.7400 n4        1 DP0     -0.747400
      9 C5          4.2140    1.9820    1.8560 c3        1 DP0      0.133000
     10 C6         -0.5820    0.3230    1.1940 ca        1 DP0     -0.153300
     11 C7         -0.5450   -1.0780   -0.9150 ca        1 DP0      0.292600
     12 C8         -0.4280    1.4030   -1.0300 c         1 DP0      0.573100
     13 C9          4.6180   -0.2410   -1.1470 c3        1 DP0     -0.131600
     14 C10         3.9180    2.1540   -1.4250 c3        1 DP0     -0.131600
     15 C11         3.2540    2.3430    2.9800 c3        1 DP0     -0.131600
     16 C12         5.4970    1.4300    2.4740 c3        1 DP0     -0.131600
     17 C13        -1.4890    1.3340    1.5340 ca        1 DP0     -0.137500
     18 C14        -0.1650   -0.5720    2.1930 ca        1 DP0     -0.137500
     19 C15        -1.1640   -2.1330   -0.2290 ca        1 DP0     -0.194300
     20 C16        -1.9890    1.4330    2.8320 ca        1 DP0     -0.102000
     21 C17        -0.6660   -0.4730    3.4890 ca        1 DP0     -0.102000
     22 C18        -1.5080   -3.2950   -0.9410 ca        1 DP0     -0.078000
     23 C19        -1.5840    0.5260    3.8130 ca        1 DP0     -0.082000
     24 C20        -0.6350   -2.2430   -2.9200 ca        1 DP0      0.416200
     25 C21        -1.2320   -3.3670   -2.3010 ca        1 DP0     -0.188300
     26 H2          1.7900   -0.9360    0.1540 hc        1 DP0      0.093700
     27 H2A         1.8570    0.1850   -1.2720 hc        1 DP0      0.093700
     28 H3          1.7000    1.1020    1.6860 hx        1 DP0      0.114700
     29 H3A         1.9870    2.1850    0.2310 hx        1 DP0      0.114700
     30 H4          5.4910    1.4430   -0.1410 hx        1 DP0      0.109700
     31 HN4        -1.6140    1.0340   -2.7090 hn        1 DP0      0.480800
     32 HN4A       -2.1870    2.2870   -1.7690 hn        1 DP0      0.480800
     33 H5          4.4460    2.9250    1.2720 hx        1 DP0      0.109700
     34 H9          3.6590   -0.6380   -1.5520 hc        1 DP0      0.077367
     35 H9A         5.3240   -0.1020   -2.0060 hc        1 DP0      0.077367
     36 H9B         5.0650   -1.0000   -0.4590 hc        1 DP0      0.077367
     37 H10         4.6520    2.2500   -2.2670 hc        1 DP0      0.077367
     38 H10A        3.8240    3.1550   -0.9360 hc        1 DP0      0.077367
     39 H10B        2.9300    1.8670   -1.8580 hc        1 DP0      0.077367
     40 H11         2.3750    2.9220    2.6060 hc        1 DP0      0.077367
     41 H11A        2.9050    1.4410    3.5380 hc        1 DP0      0.077367
     42 H11B        3.8050    3.0000    3.7030 hc        1 DP0      0.077367
     43 H12         6.2560    1.1380    1.7100 hc        1 DP0      0.077367
     44 H12A        5.2820    0.5490    3.1280 hc        1 DP0      0.077367
     45 H12B        5.9490    2.2330    3.1110 hc        1 DP0      0.077367
     46 H13        -1.8140    2.0900    0.8040 ha        1 DP0      0.125000
     47 H14         0.5500   -1.3750    1.9500 ha        1 DP0      0.125000
     48 H15        -1.3910   -2.0750    0.8460 ha        1 DP0      0.173000
     49 H16        -2.7070    2.2320    3.0840 ha        1 DP0      0.170000
     50 H17        -0.3410   -1.1930    4.2590 ha        1 DP0      0.170000
     51 H18        -1.9900   -4.1380   -0.4160 ha        1 DP0      0.181000
     52 H19        -1.9880    0.6000    4.8370 ha        1 DP0      0.177000
     53 H20        -0.4120   -2.2480   -4.0060 h4        1 DP0      0.057100
     54 H21        -1.4710   -4.2650   -2.8930 ha        1 DP0      0.188000
     55 H211        3.8130    0.0510    1.2000 hn        1 DP0      0.438800
     56 H43        -2.3880    0.6960   -1.2650 hn        1 DP0      0.480800
@<TRIPOS>BOND
     1    1    3 1   
     2    1   10 1   
     3    1   11 1   
     4    1   12 1   
     5    2   12 2   
     6    3    5 1   
     7    3   26 1   
     8    3   27 1   
     9    4    5 1   
    10    4    7 1   
    11    4    9 1   
    12    4   55 1   
    13    5   28 1   
    14    5   29 1   
    15    6   11 ar  
    16    6   24 ar  
    17    7   13 1   
    18    7   14 1   
    19    7   30 1   
    20    8   12 1   
    21    8   31 1   
    22    8   32 1   
    23    8   56 1   
    24    9   15 1   
    25    9   16 1   
    26    9   33 1   
    27   10   17 ar  
    28   10   18 ar  
    29   11   19 ar  
    30   13   34 1   
    31   13   35 1   
    32   13   36 1   
    33   14   37 1   
    34   14   38 1   
    35   14   39 1   
    36   15   40 1   
    37   15   41 1   
    38   15   42 1   
    39   16   43 1   
    40   16   44 1   
    41   16   45 1   
    42   17   20 ar  
    43   17   46 1   
    44   18   21 ar  
    45   18   47 1   
    46   19   22 ar  
    47   19   48 1   
    48   20   23 ar  
    49   20   49 1   
    50   21   23 ar  
    51   21   50 1   
    52   22   25 ar  
    53   22   51 1   
    54   23   52 1   
    55   24   25 ar  
    56   24   53 1   
    57   25   54 1   
@<TRIPOS>SUBSTRUCTURE
     1 DP0         1 TEMP              0 ****  ****    0 ROOT
