@<TRIPOS>MOLECULE
DP0
   56    57     1     0     0
SMALL
bcc


@<TRIPOS>ATOM
      1 C1         -0.0340    0.1740   -0.2080 c3        1 DP0     -0.050000
      2 O1          0.2020    2.4350   -1.2010 o         1 DP0     -0.426100
      3 C2          1.5120    0.1010   -0.2170 c3        1 DP0     -0.096400
      4 N2          3.6430    1.0110    0.8350 nx        1 DP0     -0.690400
      5 C3          2.1700    1.1670    0.6570 c3        1 DP0      0.091800
      6 N3         -0.2930   -1.1150   -2.2780 nb        1 DP0     -0.737000
      7 C4          4.4510    1.1260   -0.4530 c3        1 DP0      0.133000
      8 N4         -1.7640    1.3540   -1.7440 nz        1 DP0     -0.747400
      9 C5          4.2020    1.9950    1.8640 c3        1 DP0      0.133000
     10 C6         -0.5830    0.3100    1.1850 ca        1 DP0     -0.153300
     11 C7         -0.5360   -1.0750   -0.9330 ca        1 DP0      0.292600
     12 C8         -0.4340    1.4070   -1.0310 c         1 DP0      0.573100
     13 C9          4.6230   -0.2200   -1.1430 c3        1 DP0     -0.131600
     14 C10         3.9200    2.1750   -1.4160 c3        1 DP0     -0.131600
     15 C11         3.2350    2.3520    2.9840 c3        1 DP0     -0.131600
     16 C12         5.4820    1.4440    2.4870 c3        1 DP0     -0.131600
     17 C13        -1.4970    1.3130    1.5310 ca        1 DP0     -0.137500
     18 C14        -0.1600   -0.5890    2.1780 ca        1 DP0     -0.137500
     19 C15        -1.1480   -2.1390   -0.2560 ca        1 DP0     -0.194300
     20 C16        -1.9980    1.4000    2.8300 ca        1 DP0     -0.102000
     21 C17        -0.6630   -0.5020    3.4750 ca        1 DP0     -0.102000
     22 C18        -1.4850   -3.2980   -0.9760 ca        1 DP0     -0.078000
     23 C19        -1.5890    0.4890    3.8040 ca        1 DP0     -0.082000
     24 C20        -0.6170   -2.2270   -2.9470 ca        1 DP0      0.416200
     25 C21        -1.2070   -3.3590   -2.3360 ca        1 DP0     -0.188300
     26 H2          1.7970   -0.9260    0.1400 hc        1 DP0      0.093700
     27 H2A         1.8590    0.2040   -1.2800 hc        1 DP0      0.093700
     28 H3          1.9800    2.1950    0.2310 hx        1 DP0      0.114700
     29 H3A         1.6910    1.1070    1.6810 hx        1 DP0      0.114700
     30 H4          5.4890    1.4620   -0.1290 hx        1 DP0      0.109700
     31 HN4        -1.6140    1.0440   -2.7150 hn        1 DP0      0.480800
     32 HN4A       -2.3890    0.6900   -1.2740 hn        1 DP0      0.480800
     33 H5          4.4340    2.9400    1.2830 hx        1 DP0      0.109700
     34 H9          5.3330   -0.0780   -1.9990 hc        1 DP0      0.077367
     35 H9A         3.6660   -0.6170   -1.5540 hc        1 DP0      0.077367
     36 H9B         5.0670   -0.9820   -0.4550 hc        1 DP0      0.077367
     37 H10         4.6570    2.2750   -2.2550 hc        1 DP0      0.077367
     38 H10A        3.8200    3.1740   -0.9250 hc        1 DP0      0.077367
     39 H10B        2.9360    1.8860   -1.8560 hc        1 DP0      0.077367
     40 H11         2.8860    1.4480    3.5390 hc        1 DP0      0.077367
     41 H11A        2.3560    2.9280    2.6070 hc        1 DP0      0.077367
     42 H11B        3.7810    3.0090    3.7100 hc        1 DP0      0.077367
     43 H12         6.2460    1.1560    1.7260 hc        1 DP0      0.077367
     44 H12A        5.9300    2.2480    3.1280 hc        1 DP0      0.077367
     45 H12B        5.2680    0.5620    3.1380 hc        1 DP0      0.077367
     46 H13        -1.8270    2.0710    0.8060 ha        1 DP0      0.125000
     47 H14         0.5600   -1.3850    1.9310 ha        1 DP0      0.125000
     48 H15        -1.3770   -2.0890    0.8200 ha        1 DP0      0.173000
     49 H16        -2.7220    2.1920    3.0860 ha        1 DP0      0.170000
     50 H17        -0.3340   -1.2250    4.2400 ha        1 DP0      0.170000
     51 H18        -1.9620   -4.1470   -0.4570 ha        1 DP0      0.181000
     52 H19        -1.9940    0.5530    4.8290 ha        1 DP0      0.177000
     53 H20        -0.3940   -2.2220   -4.0330 h4        1 DP0      0.057100
     54 H21        -1.4400   -4.2530   -2.9350 ha        1 DP0      0.188000
     55 H211        3.8090    0.0640    1.2030 hn        1 DP0      0.438800
     56 H43        -2.1970    2.2860   -1.7660 hn        1 DP0      0.480800
@<TRIPOS>BOND
     1    1    3 1   
     2    1   10 1   
     3    1   11 1   
     4    1   12 1   
     5    2   12 2   
     6    3    5 1   
     7    3   26 1   
     8    3   27 1   
     9    4    5 1   
    10    4    7 1   
    11    4    9 1   
    12    4   55 1   
    13    5   28 1   
    14    5   29 1   
    15    6   11 ar  
    16    6   24 ar  
    17    7   13 1   
    18    7   14 1   
    19    7   30 1   
    20    8   12 1   
    21    8   31 1   
    22    8   32 1   
    23    8   56 1   
    24    9   15 1   
    25    9   16 1   
    26    9   33 1   
    27   10   17 ar  
    28   10   18 ar  
    29   11   19 ar  
    30   13   34 1   
    31   13   35 1   
    32   13   36 1   
    33   14   37 1   
    34   14   38 1   
    35   14   39 1   
    36   15   40 1   
    37   15   41 1   
    38   15   42 1   
    39   16   43 1   
    40   16   44 1   
    41   16   45 1   
    42   17   20 ar  
    43   17   46 1   
    44   18   21 ar  
    45   18   47 1   
    46   19   22 ar  
    47   19   48 1   
    48   20   23 ar  
    49   20   49 1   
    50   21   23 ar  
    51   21   50 1   
    52   22   25 ar  
    53   22   51 1   
    54   23   52 1   
    55   24   25 ar  
    56   24   53 1   
    57   25   54 1   
@<TRIPOS>SUBSTRUCTURE
     1 DP0         1 TEMP              0 ****  ****    0 ROOT
