@<TRIPOS>MOLECULE
DP0
   56    57     1     0     0
SMALL
bcc


@<TRIPOS>ATOM
      1 C1         -0.0250    0.1740   -0.2220 c3        1 DP0     -0.050000
      2 O1          0.2350    2.4300   -1.2200 o         1 DP0     -0.426100
      3 C2          1.5190    0.0940   -0.2070 c3        1 DP0     -0.096400
      4 N2          3.6400    0.9990    0.8710 n4        1 DP0     -0.690400
      5 C3          2.1700    1.1610    0.6720 c3        1 DP0      0.091800
      6 N3         -0.2610   -1.1210   -2.2900 nb        1 DP0     -0.737000
      7 C4          4.4660    1.1070   -0.4060 c3        1 DP0      0.133000
      8 N4         -1.7280    1.3560   -1.7860 n4        1 DP0     -0.747400
      9 C5          4.1890    1.9840    1.9040 c3        1 DP0      0.133000
     10 C6         -0.5940    0.3190    1.1630 ca        1 DP0     -0.153300
     11 C7         -0.5230   -1.0750   -0.9490 ca        1 DP0      0.292600
     12 C8         -0.4080    1.4060   -1.0550 c         1 DP0      0.573100
     13 C9          4.6420   -0.2430   -1.0900 c3        1 DP0     -0.131600
     14 C10         3.9530    2.1540   -1.3810 c3        1 DP0     -0.131600
     15 C11         3.2080    2.3480    3.0090 c3        1 DP0     -0.131600
     16 C12         5.4580    1.4300    2.5460 c3        1 DP0     -0.131600
     17 C13        -1.5080    1.3280    1.4920 ca        1 DP0     -0.137500
     18 C14        -0.1900   -0.5780    2.1660 ca        1 DP0     -0.137500
     19 C15        -1.1500   -2.1340   -0.2760 ca        1 DP0     -0.194300
     20 C16        -2.0280    1.4220    2.7830 ca        1 DP0     -0.102000
     21 C17        -0.7110   -0.4840    3.4550 ca        1 DP0     -0.102000
     22 C18        -1.4820   -3.2940   -0.9960 ca        1 DP0     -0.078000
     23 C19        -1.6360    0.5140    3.7670 ca        1 DP0     -0.082000
     24 C20        -0.5810   -2.2350   -2.9580 ca        1 DP0      0.416200
     25 C21        -1.1850   -3.3610   -2.3510 ca        1 DP0     -0.188300
     26 H2          1.8830    0.1910   -1.2660 hc        1 DP0      0.093700
     27 H2A         1.7950   -0.9330    0.1580 hc        1 DP0      0.093700
     28 H3          1.6770    1.1060    1.6900 hx        1 DP0      0.114700
     29 H3A         1.9910    2.1880    0.2400 hx        1 DP0      0.114700
     30 H4          5.5000    1.4390   -0.0690 hx        1 DP0      0.109700
     31 HN4        -2.3620    0.6970   -1.3230 hn        1 DP0      0.480800
     32 HN4A       -2.1560    2.2900   -1.8190 hn        1 DP0      0.480800
     33 H5          4.4320    2.9260    1.3230 hx        1 DP0      0.109700
     34 H9          5.0740   -1.0030   -0.3930 hc        1 DP0      0.077367
     35 H9A         5.3650   -0.1060   -1.9360 hc        1 DP0      0.077367
     36 H9B         3.6890   -0.6370   -1.5120 hc        1 DP0      0.077367
     37 H10         4.7020    2.2480   -2.2090 hc        1 DP0      0.077367
     38 H10A        2.9730    1.8680   -1.8320 hc        1 DP0      0.077367
     39 H10B        3.8500    3.1550   -0.8940 hc        1 DP0      0.077367
     40 H11         2.8480    1.4470    3.5620 hc        1 DP0      0.077367
     41 H11A        2.3370    2.9270    2.6190 hc        1 DP0      0.077367
     42 H11B        3.7470    3.0060    3.7410 hc        1 DP0      0.077367
     43 H12         6.2310    1.1360    1.7960 hc        1 DP0      0.077367
     44 H12A        5.2310    0.5500    3.1970 hc        1 DP0      0.077367
     45 H12B        5.9000    2.2340    3.1910 hc        1 DP0      0.077367
     46 H13        -1.8240    2.0850    0.7590 ha        1 DP0      0.125000
     47 H14         0.5300   -1.3780    1.9320 ha        1 DP0      0.125000
     48 H15        -1.3940   -2.0790    0.7960 ha        1 DP0      0.173000
     49 H16        -2.7510    2.2190    3.0260 ha        1 DP0      0.170000
     50 H17        -0.3960   -1.2050    4.2270 ha        1 DP0      0.170000
     51 H18        -1.9700   -4.1390   -0.4800 ha        1 DP0      0.181000
     52 H19        -2.0560    0.5840    4.7850 ha        1 DP0      0.177000
     53 H20        -0.3420   -2.2360   -4.0410 h4        1 DP0      0.057100
     54 H21        -1.4140   -4.2580   -2.9500 ha        1 DP0      0.188000
     55 H211        3.7970    0.0520    1.2430 hn        1 DP0      0.438800
     56 H43        -1.5660    1.0410   -2.7540 hn        1 DP0      0.480800
@<TRIPOS>BOND
     1    1    3 1   
     2    1   10 1   
     3    1   11 1   
     4    1   12 1   
     5    2   12 2   
     6    3    5 1   
     7    3   26 1   
     8    3   27 1   
     9    4    5 1   
    10    4    7 1   
    11    4    9 1   
    12    4   55 1   
    13    5   28 1   
    14    5   29 1   
    15    6   11 ar  
    16    6   24 ar  
    17    7   13 1   
    18    7   14 1   
    19    7   30 1   
    20    8   12 1   
    21    8   31 1   
    22    8   32 1   
    23    8   56 1   
    24    9   15 1   
    25    9   16 1   
    26    9   33 1   
    27   10   17 ar  
    28   10   18 ar  
    29   11   19 ar  
    30   13   34 1   
    31   13   35 1   
    32   13   36 1   
    33   14   37 1   
    34   14   38 1   
    35   14   39 1   
    36   15   40 1   
    37   15   41 1   
    38   15   42 1   
    39   16   43 1   
    40   16   44 1   
    41   16   45 1   
    42   17   20 ar  
    43   17   46 1   
    44   18   21 ar  
    45   18   47 1   
    46   19   22 ar  
    47   19   48 1   
    48   20   23 ar  
    49   20   49 1   
    50   21   23 ar  
    51   21   50 1   
    52   22   25 ar  
    53   22   51 1   
    54   23   52 1   
    55   24   25 ar  
    56   24   53 1   
    57   25   54 1   
@<TRIPOS>SUBSTRUCTURE
     1 DP0         1 TEMP              0 ****  ****    0 ROOT
