@<TRIPOS>MOLECULE
DP1
   44    41     1     0     0
SMALL
bcc


@<TRIPOS>ATOM
      1 NH2        -2.8250    1.5040    5.7010 n1        1 DP1     -0.585800
      2 CZ         -1.6860    2.0900    5.4310 c1        1 DP1      0.538600
      3 NH1        -0.8980    2.6360    6.4850 n2        1 DP1     -0.751500
      4 NO         -1.3390    3.7530    7.1690 no        1 DP1      0.501100
      5 O2         -0.9150    4.9950    6.7940 o         1 DP1     -0.202000
      6 O3         -2.0850    3.6260    8.1310 o         1 DP1     -0.202000
      7 NE         -1.2340    2.1800    4.0810 n3        1 DP1     -0.691800
      8 CD         -0.9500    0.9890    3.3430 c3        1 DP1      0.163800
      9 CG         -0.9650    1.3010    1.8460 c3        1 DP1     -0.089400
     10 CB         -0.6100    0.0440    1.0610 c3        1 DP1     -0.114400
     11 CA         -0.7560    0.3180   -0.4280 c3        1 DP1      0.102500
     12 N          -2.0110   -0.1550   -0.8730 n3        1 DP1     -0.909800
     13 C           0.3510   -0.3950   -1.1850 c         1 DP1      0.663100
     14 O           1.4070   -0.6300   -0.6350 o         1 DP1     -0.624100
     15 N'          0.1590   -0.7650   -2.5600 n         1 DP1     -0.549900
     16 CA'         1.2680   -1.2210   -3.3370 c3        1 DP1      0.040700
     17 C'          1.8480   -0.0650   -4.1140 c         1 DP1      0.637100
     18 O'          1.1130    0.6850   -4.7280 o         1 DP1     -0.610100
     19 N1'         3.2500    0.1920   -4.0670 n         1 DP1     -0.668000
     20 CB'         0.8050   -2.2910   -4.2980 c3        1 DP1     -0.097400
     21 C1          1.8350   -3.4090   -4.3450 c3        1 DP1      0.159800
     22 N1          1.5120   -4.3090   -5.4020 n3        1 DP1     -0.913800
     23 HH2        -3.1170    1.4460    6.5700 DU        1 DP1      0.202000
     24 HH1        -0.0910    2.2650    6.6890 hn        1 DP1      0.498400
     25 HNE        -1.0720    2.9960    3.7090 hn        1 DP1      0.406800
     26 HD1        -0.0650    0.6500    3.5970 h1        1 DP1      0.049200
     27 HD2        -1.6290    0.3120    3.5420 h1        1 DP1      0.049200
     28 HG1        -1.8540    1.6060    1.5860 hc        1 DP1      0.048700
     29 HG2        -0.3100    2.0030    1.6520 hc        1 DP1      0.048700
     30 HB1         0.3140   -0.2120    1.2560 hc        1 DP1      0.069200
     31 HB2        -1.2090   -0.6800    1.3190 hc        1 DP1      0.069200
     32 HA         -0.6950    1.2820   -0.5900 h1        1 DP1      0.080700
     33 HN1        -2.4780    0.5350   -1.2590 hn        1 DP1      0.359800
     34 HN2        -2.4850   -0.4830   -0.1590 hn        1 DP1      0.359800
     35 HN'        -0.6810   -0.7700   -2.9180 hn        1 DP1      0.342500
     36 HA'         1.9500   -1.5890   -2.7450 h1        1 DP1      0.091700
     37 H1'1        3.6060    0.8870   -4.5510 hn        1 DP1      0.314000
     38 H1'2        3.7950   -0.3370   -3.5600 hn        1 DP1      0.314000
     39 HB'1        0.7010   -1.9060   -5.1900 hc        1 DP1      0.069700
     40 HB'2       -0.0520   -2.6510   -3.9970 hc        1 DP1      0.069700
     41 H11         1.8320   -3.8910   -3.4950 h1        1 DP1      0.027200
     42 H12         2.7220   -3.0280   -4.5010 h1        1 DP1      0.027200
     43 HN11        2.2260   -4.3790   -5.9720 hn        1 DP1      0.351800
     44 HN12        1.3180   -5.1310   -5.0530 hn        1 DP1      0.351800
@<TRIPOS>BOND
     1    1    2 3   
     2    2    7 1   
     3    3    4 2   
     4    3   24 1   
     5    4    5 1   
     6    4    6 1   
     7    7    8 1   
     8    7   25 1   
     9    8    9 1   
    10    8   26 1   
    11    8   27 1   
    12    9   10 1   
    13    9   28 1   
    14    9   29 1   
    15   10   11 1   
    16   10   30 1   
    17   10   31 1   
    18   11   12 1   
    19   11   13 1   
    20   11   32 1   
    21   12   33 1   
    22   12   34 1   
    23   13   14 2   
    24   13   15 1   
    25   15   16 1   
    26   15   35 1   
    27   16   17 1   
    28   16   20 1   
    29   16   36 1   
    30   17   18 2   
    31   17   19 1   
    32   19   37 1   
    33   19   38 1   
    34   20   21 1   
    35   20   39 1   
    36   20   40 1   
    37   21   22 1   
    38   21   41 1   
    39   21   42 1   
    40   22   43 1   
    41   22   44 1   
@<TRIPOS>SUBSTRUCTURE
     1 DP1         1 TEMP              0 ****  ****    0 ROOT
