@<TRIPOS>MOLECULE
DP1
   44    43     1     0     0
SMALL
bcc


@<TRIPOS>ATOM
      1 NH2        -4.4380    1.7820   -0.0810 n2        1 DP1     -0.793100
      2 CZ         -4.6750    0.5180   -0.2110 c2        1 DP1      0.754100
      3 NH1        -6.0170   -0.0850   -0.3350 nh        1 DP1     -0.811500
      4 NO         -7.0490    0.3050    0.5030 no        1 DP1      0.444500
      5 O2         -7.0700    1.4250    0.9430 o         1 DP1     -0.203000
      6 O3         -7.9290   -0.4960    0.6800 o         1 DP1     -0.203000
      7 NE         -3.6380   -0.4790   -0.2700 nh        1 DP1     -0.795200
      8 CD         -2.3010   -0.0380    0.0870 c3        1 DP1      0.176800
      9 CG         -1.2900   -1.1850    0.0160 c3        1 DP1     -0.083400
     10 CB          0.0660   -0.6850    0.4650 c3        1 DP1     -0.078400
     11 CA          1.1460   -1.7650    0.2970 c3        1 DP1      0.111500
     12 N           0.8910   -2.9490    1.0850 n3        1 DP1     -0.886800
     13 C           2.5100   -1.1000    0.6180 c         1 DP1      0.608100
     14 O           3.0930   -1.3170    1.7000 o         1 DP1     -0.618100
     15 N'          3.0800   -0.3150   -0.3680 n         1 DP1     -0.540900
     16 CA'         4.2400    0.5020   -0.1110 c3        1 DP1      0.030700
     17 C'          3.8450    1.9950    0.0370 c         1 DP1      0.630100
     18 O'          2.9190    2.4910   -0.6370 o         1 DP1     -0.619100
     19 N1'         4.5660    2.7650    0.9090 n         1 DP1     -0.664000
     20 CB'         5.2850    0.4410   -1.2370 c3        1 DP1     -0.086400
     21 C1          5.9180   -0.9470   -1.3180 c3        1 DP1      0.161800
     22 N1          6.9440   -1.0350   -2.3290 n3        1 DP1     -0.917800
     23 HH2        -5.2070    2.4010    0.0640 hn        1 DP1      0.444400
     24 HH1        -6.0360   -1.0850   -0.4850 hn        1 DP1      0.450800
     25 HNE        -3.6480   -0.9650   -1.1480 hn        1 DP1      0.393800
     26 HD1        -2.3410    0.3560    1.1420 h1        1 DP1      0.058200
     27 HD2        -1.9410    0.8020   -0.5770 h1        1 DP1      0.058200
     28 HG1        -1.2190   -1.5750   -1.0330 hc        1 DP1      0.058700
     29 HG2        -1.6220   -2.0340    0.6680 hc        1 DP1      0.058700
     30 HB1         0.0160   -0.3600    1.5380 hc        1 DP1      0.057700
     31 HB2         0.3570    0.2110   -0.1450 hc        1 DP1      0.057700
     32 HA          1.1580   -2.0970   -0.7850 h1        1 DP1      0.077700
     33 HN1         1.6600   -3.5870    1.0080 hn        1 DP1      0.363300
     34 HN2         0.7670   -2.7110    2.0510 hn        1 DP1      0.363300
     35 HN'         2.5100   -0.0190   -1.1290 hn        1 DP1      0.323500
     36 HA'         4.7150    0.1310    0.8490 h1        1 DP1      0.097700
     37 H1'1        5.2450    2.3640    1.5020 hn        1 DP1      0.315000
     38 H1'2        4.3230    3.7160    1.0360 hn        1 DP1      0.315000
     39 HB'1        6.0720    1.2100   -1.0170 hc        1 DP1      0.063200
     40 HB'2        4.8140    0.7090   -2.2180 hc        1 DP1      0.063200
     41 H11         5.1220   -1.7000   -1.5840 h1        1 DP1      0.031700
     42 H12         6.2990   -1.2190   -0.2870 h1        1 DP1      0.031700
     43 HN11        7.6600   -0.3520   -2.1810 hn        1 DP1      0.351300
     44 HN12        7.3530   -1.9480   -2.3300 hn        1 DP1      0.351300
@<TRIPOS>BOND
     1    1    2 2   
     2    1   23 1   
     3    2    3 1   
     4    2    7 1   
     5    3    4 1   
     6    3   24 1   
     7    4    5 1   
     8    4    6 1   
     9    7    8 1   
    10    7   25 1   
    11    8    9 1   
    12    8   26 1   
    13    8   27 1   
    14    9   10 1   
    15    9   28 1   
    16    9   29 1   
    17   10   11 1   
    18   10   30 1   
    19   10   31 1   
    20   11   12 1   
    21   11   13 1   
    22   11   32 1   
    23   12   33 1   
    24   12   34 1   
    25   13   14 2   
    26   13   15 1   
    27   15   16 1   
    28   15   35 1   
    29   16   17 1   
    30   16   20 1   
    31   16   36 1   
    32   17   18 2   
    33   17   19 1   
    34   19   37 1   
    35   19   38 1   
    36   20   21 1   
    37   20   39 1   
    38   20   40 1   
    39   21   22 1   
    40   21   41 1   
    41   21   42 1   
    42   22   43 1   
    43   22   44 1   
@<TRIPOS>SUBSTRUCTURE
     1 DP1         1 TEMP              0 ****  ****    0 ROOT
