@<TRIPOS>MOLECULE
DP1
   44    43     1     0     0
SMALL
bcc


@<TRIPOS>ATOM
      1 NH2        -0.3150   -0.3910   -0.1890 n2        1 DP1     -0.793100
      2 CZ          0.9510   -0.1700   -0.0430 c2        1 DP1      0.754100
      3 NH1         1.6210    0.1070    1.2430 nh        1 DP1     -0.811500
      4 NO          1.0760    1.0020    2.1480 no        1 DP1      0.444500
      5 O2         -0.1170    1.1550    2.1930 o         1 DP1     -0.203000
      6 O3          1.8430    1.5270    2.9130 o         1 DP1     -0.203000
      7 NE          1.8870   -0.1840   -1.1370 nh        1 DP1     -0.795200
      8 CD          1.3150   -0.1920   -2.4720 c3        1 DP1      0.176800
      9 CG          2.4010   -0.1790   -3.5510 c3        1 DP1     -0.082400
     10 CB          1.7490   -0.1100   -4.9150 c3        1 DP1     -0.078400
     11 CA          2.7890   -0.2240   -6.0410 c3        1 DP1      0.110500
     12 N           3.7650    0.8420   -6.0210 n3        1 DP1     -0.886800
     13 C           2.0070   -0.3120   -7.3770 c         1 DP1      0.606100
     14 O           1.9360    0.6680   -8.1460 o         1 DP1     -0.614100
     15 N'          1.4550   -1.5370   -7.7090 n         1 DP1     -0.539900
     16 CA'         0.5300   -1.6770   -8.8080 c3        1 DP1      0.027700
     17 C'         -0.9190   -1.8720   -8.2920 c         1 DP1      0.632100
     18 O'         -1.1520   -2.4460   -7.2080 o         1 DP1     -0.624100
     19 N1'        -1.9430   -1.4120   -9.0740 n         1 DP1     -0.664000
     20 CB'         0.8380   -2.8820   -9.7100 c3        1 DP1     -0.087400
     21 C1          2.1480   -2.6760  -10.4680 c3        1 DP1      0.159800
     22 N1          2.3670   -3.6770  -11.4850 n3        1 DP1     -0.918800
     23 HH2        -0.9180   -0.2560    0.5940 hn        1 DP1      0.444400
     24 HH1         2.6270    0.2090    1.1990 hn        1 DP1      0.450800
     25 HNE         2.5720   -0.9090   -1.0210 hn        1 DP1      0.393800
     26 HD1         0.6480   -1.0870   -2.6420 h1        1 DP1      0.058200
     27 HD2         0.6780    0.7320   -2.5760 h1        1 DP1      0.058200
     28 HG1         3.0300   -1.1040   -3.4790 hc        1 DP1      0.058200
     29 HG2         3.0810    0.7010   -3.4050 hc        1 DP1      0.058200
     30 HB1         1.1810    0.8510   -5.0180 hc        1 DP1      0.058200
     31 HB2         1.0130   -0.9500   -5.0220 hc        1 DP1      0.058200
     32 HA          3.3660   -1.1880   -5.9020 h1        1 DP1      0.075700
     33 HN1         3.3120    1.7360   -6.0300 hn        1 DP1      0.362800
     34 HN2         4.3620    0.7780   -6.8240 hn        1 DP1      0.362800
     35 HN'         1.3650   -2.2210   -6.9900 hn        1 DP1      0.320500
     36 HA'         0.5910   -0.7320   -9.4310 h1        1 DP1      0.101700
     37 H1'1       -1.7660   -0.9360   -9.9200 hn        1 DP1      0.317000
     38 H1'2       -2.8790   -1.5250   -8.7730 hn        1 DP1      0.317000
     39 HB'1       -0.0090   -2.9940  -10.4380 hc        1 DP1      0.061700
     40 HB'2        0.8860   -3.8200   -9.0980 hc        1 DP1      0.061700
     41 H11         2.9910   -2.6330   -9.7160 h1        1 DP1      0.033700
     42 H12         2.1170   -1.6730  -10.9850 h1        1 DP1      0.033700
     43 HN11        2.3380   -4.5990  -11.0970 hn        1 DP1      0.351800
     44 HN12        3.2520   -3.5330  -11.9280 hn        1 DP1      0.351800
@<TRIPOS>BOND
     1    1    2 2   
     2    1   23 1   
     3    2    3 1   
     4    2    7 1   
     5    3    4 1   
     6    3   24 1   
     7    4    5 1   
     8    4    6 1   
     9    7    8 1   
    10    7   25 1   
    11    8    9 1   
    12    8   26 1   
    13    8   27 1   
    14    9   10 1   
    15    9   28 1   
    16    9   29 1   
    17   10   11 1   
    18   10   30 1   
    19   10   31 1   
    20   11   12 1   
    21   11   13 1   
    22   11   32 1   
    23   12   33 1   
    24   12   34 1   
    25   13   14 2   
    26   13   15 1   
    27   15   16 1   
    28   15   35 1   
    29   16   17 1   
    30   16   20 1   
    31   16   36 1   
    32   17   18 2   
    33   17   19 1   
    34   19   37 1   
    35   19   38 1   
    36   20   21 1   
    37   20   39 1   
    38   20   40 1   
    39   21   22 1   
    40   21   41 1   
    41   21   42 1   
    42   22   43 1   
    43   22   44 1   
@<TRIPOS>SUBSTRUCTURE
     1 DP1         1 TEMP              0 ****  ****    0 ROOT
