@<TRIPOS>MOLECULE
DP2
   52    50     1     0     0
SMALL
bcc


@<TRIPOS>ATOM
      1 N1          5.7240    6.2200   -1.5640 n3        1 DP2      0.063600
      2 O2          4.9990    7.0060   -2.4050 oh        1 DP2     -0.443800
      3 O3          6.9560    5.9660   -2.1220 oh        1 DP2     -0.443800
      4 N          -0.6680   -0.2220    0.4590 n         1 DP2     -0.553900
      5 CA          0.7490   -0.0390    0.5510 c3        1 DP2      0.038700
      6 C           1.4320   -0.8670   -0.5100 c         1 DP2      0.637100
      7 N2          2.3230   -1.9010   -0.1360 n         1 DP2     -0.667000
      8 O           1.1670   -0.6880   -1.6890 o         1 DP2     -0.620100
      9 CB          1.0830    1.4120    0.3430 c3        1 DP2     -0.082400
     10 CG          2.5640    1.6300    0.5930 c3        1 DP2     -0.093400
     11 CD          2.8890    3.1230    0.4620 c3        1 DP2      0.190800
     12 NE          4.2980    3.2920    0.1750 nh        1 DP2     -0.775000
     13 CZ          4.8180    4.5890   -0.0430 c2        1 DP2      0.341000
     14 NH1         5.0660    5.0390   -1.3590 nh        1 DP2     -0.545800
     15 NH2         5.0640    5.3580    0.9540 n1        1 DP2     -0.342000
     16 N'         -3.4210   -1.0320    2.1790 n3        1 DP2     -0.911800
     17 CA'        -2.8250   -1.5340    1.0160 c3        1 DP2      0.101500
     18 C'         -1.2840   -1.3430    1.0980 c         1 DP2      0.663100
     19 O'         -0.5960   -2.1950    1.6180 o         1 DP2     -0.635100
     20 CB'        -3.1430   -3.0000    0.8820 c3        1 DP2     -0.112400
     21 CG'        -4.3550   -3.1720    0.0220 c3        1 DP2     -0.081400
     22 CD'        -4.8110   -4.6520    0.0490 c3        1 DP2     -0.082400
     23 CE'        -5.8780   -4.8870   -1.0730 c3        1 DP2      0.159800
     24 NZ'        -6.2450   -6.2900   -1.1030 n3        1 DP2     -0.916800
     25 HO2         5.0590    7.8510   -2.1440 ho        1 DP2      0.447000
     26 HO3         7.5050    6.6560   -1.9610 ho        1 DP2      0.447000
     27 HN         -1.1770    0.3770   -0.0040 hn        1 DP2      0.336500
     28 HA          1.0670   -0.3290    1.4590 h1        1 DP2      0.084700
     29 HN21        2.6900   -2.4460   -0.7780 hn        1 DP2      0.323000
     30 HN22        2.5160   -2.0370    0.7410 hn        1 DP2      0.323000
     31 HB1         0.5560    1.9670    0.9750 hc        1 DP2      0.063700
     32 HB2         0.8690    1.6630   -0.5610 hc        1 DP2      0.063700
     33 HG1         3.0840    1.1220   -0.0660 hc        1 DP2      0.057700
     34 HG2         2.7860    1.3320    1.4720 hc        1 DP2      0.057700
     35 HD1         2.6640    3.5970    1.3320 h1        1 DP2      0.047200
     36 HD2         2.3590    3.5090   -0.2670 h1        1 DP2      0.047200
     37 HNE         4.8600    2.5810    0.2370 hn        1 DP2      0.399800
     38 HH1         4.8330    4.5220   -2.0660 hn        1 DP2      0.397800
     39 HH2         4.9090    5.0830    1.7640 DU        1 DP2      0.153000
     40 HN'1       -4.1340   -1.5700    2.4160 hn        1 DP2      0.360300
     41 HN'2       -3.7170   -0.1840    2.0260 hn        1 DP2      0.360300
     42 HA'        -3.1740   -1.0500    0.2350 h1        1 DP2      0.078700
     43 HB'1       -3.3150   -3.3840    1.7800 hc        1 DP2      0.067200
     44 HB'2       -2.3940   -3.4550    0.4750 hc        1 DP2      0.067200
     45 HG'1       -4.1410   -2.9190   -0.8890 hc        1 DP2      0.037700
     46 HG'2       -5.0790   -2.6010    0.3590 hc        1 DP2      0.037700
     47 HD'1       -4.0430   -5.2320   -0.1040 hc        1 DP2      0.051200
     48 HD'2       -5.2080   -4.8570    0.9230 hc        1 DP2      0.051200
     49 HE'1       -6.6650   -4.3510   -0.8880 h1        1 DP2      0.023200
     50 HE'2       -5.5020   -4.6280   -1.9420 h1        1 DP2      0.023200
     51 HZ'1       -5.9610   -6.6600   -1.8780 hn        1 DP2      0.350300
     52 HZ'2       -7.1550   -6.3700   -1.0420 hn        1 DP2      0.350300
@<TRIPOS>BOND
     1    1    2 1   
     2    1    3 1   
     3    1   14 1   
     4    2   25 1   
     5    3   26 1   
     6    4    5 1   
     7    4   18 1   
     8    4   27 1   
     9    5    6 1   
    10    5    9 1   
    11    5   28 1   
    12    6    7 1   
    13    6    8 2   
    14    7   29 1   
    15    7   30 1   
    16    9   10 1   
    17    9   31 1   
    18    9   32 1   
    19   10   11 1   
    20   10   33 1   
    21   10   34 1   
    22   11   12 1   
    23   11   35 1   
    24   11   36 1   
    25   12   13 1   
    26   12   37 1   
    27   13   14 1   
    28   13   15 2   
    29   14   38 1   
    30   16   17 1   
    31   16   40 1   
    32   16   41 1   
    33   17   18 1   
    34   17   20 1   
    35   17   42 1   
    36   18   19 2   
    37   20   21 1   
    38   20   43 1   
    39   20   44 1   
    40   21   22 1   
    41   21   45 1   
    42   21   46 1   
    43   22   23 1   
    44   22   47 1   
    45   22   48 1   
    46   23   24 1   
    47   23   49 1   
    48   23   50 1   
    49   24   51 1   
    50   24   52 1   
@<TRIPOS>SUBSTRUCTURE
     1 DP2         1 TEMP              0 ****  ****    0 ROOT
