@<TRIPOS>MOLECULE
DP2
   52    51     1     0     0
SMALL
bcc


@<TRIPOS>ATOM
      1 N1          1.2050    0.0460   -7.3010 n3        1 DP2      0.066600
      2 O2          1.9810    1.1450   -7.4690 oh        1 DP2     -0.469800
      3 O3          1.8930   -0.9080   -7.9720 oh        1 DP2     -0.469800
      4 N          -0.8660   -0.2580    1.5100 n         1 DP2     -0.559900
      5 CA         -2.0240   -0.0830    0.6700 c3        1 DP2      0.037700
      6 C          -3.1700    0.6500    1.4180 c         1 DP2      0.632100
      7 N2         -3.7670   -0.0180    2.4500 n         1 DP2     -0.667000
      8 O          -3.5330    1.7970    1.0900 o         1 DP2     -0.618100
      9 CB         -1.7200    0.6940   -0.6170 c3        1 DP2     -0.082400
     10 CG         -0.7960   -0.0750   -1.5330 c3        1 DP2     -0.091400
     11 CD         -0.6080    0.7040   -2.8370 c3        1 DP2      0.184800
     12 NE          0.3130    0.0390   -3.7400 nh        1 DP2     -0.789200
     13 CZ          0.4810    0.6250   -5.0390 c2        1 DP2      0.757100
     14 NH1         1.1950   -0.2970   -5.9480 nh        1 DP2     -0.664000
     15 NH2         0.0590    1.8270   -5.3010 n2        1 DP2     -0.843100
     16 N'          0.7940   -2.7050    3.7790 n3        1 DP2     -0.884800
     17 CA'         0.5590   -1.3860    3.2390 c3        1 DP2      0.112500
     18 O'         -1.6590   -2.1410    2.5390 o         1 DP2     -0.640100
     19 CB'         0.5060   -0.2930    4.3160 c3        1 DP2     -0.075400
     20 CG'         1.8150   -0.1850    5.0670 c3        1 DP2     -0.076400
     21 CD'         1.7830    0.9800    6.0340 c3        1 DP2     -0.085400
     22 CE'         3.1040    1.0630    6.7990 c3        1 DP2      0.159800
     23 NZ'         3.1280    2.1190    7.7830 n3        1 DP2     -0.916800
     24 HO2         2.0590    1.2950   -8.4290 ho        1 DP2      0.447000
     25 HO3         1.2290   -1.5670   -8.2460 ho        1 DP2      0.447000
     26 HN         -0.1730    0.4530    1.4840 hn        1 DP2      0.321500
     27 HA         -2.4060   -1.1140    0.3900 h1        1 DP2      0.087700
     28 HN21       -4.5160    0.4050    2.9390 hn        1 DP2      0.323500
     29 HN22       -3.4870   -0.9380    2.6920 hn        1 DP2      0.323500
     30 HB1        -2.7000    0.8880   -1.1310 hc        1 DP2      0.072700
     31 HB2        -1.2840    1.6970   -0.3690 hc        1 DP2      0.072700
     32 HG1         0.1980   -0.2340   -1.0380 hc        1 DP2      0.046700
     33 HG2        -1.2300   -1.0880   -1.7450 hc        1 DP2      0.046700
     34 HD1        -1.6200    0.8640   -3.3110 h1        1 DP2      0.057700
     35 HD2        -0.1820    1.7200   -2.6000 h1        1 DP2      0.057700
     36 HNE         0.1460   -0.9490   -3.7880 hn        1 DP2      0.396800
     37 HH1         2.1140   -0.5120   -5.5820 hn        1 DP2      0.398800
     38 HH2         0.3080    2.2160   -6.1830 hn        1 DP2      0.418400
     39 HN'2        0.7050   -3.3960    3.0570 hn        1 DP2      0.362800
     40 HA'         1.4270   -1.1660    2.5450 h1        1 DP2      0.075700
     41 HB'1       -0.3280   -0.5070    5.0350 hc        1 DP2      0.050700
     42 HB'2        0.2810    0.6880    3.8220 hc        1 DP2      0.050700
     43 HG'1        2.6580   -0.0510    4.3380 hc        1 DP2      0.052200
     44 HG'2        2.0140   -1.1350    5.6300 hc        1 DP2      0.052200
     45 HD'1        0.9330    0.8520    6.7540 hc        1 DP2      0.046700
     46 HD'2        1.6050    1.9350    5.4730 hc        1 DP2      0.046700
     47 HE'1        3.2670    0.0910    7.3470 h1        1 DP2      0.025200
     48 HE'2        3.9390    1.1580    6.0410 h1        1 DP2      0.025200
     49 HZ'1        4.0410    2.2000    8.1830 hn        1 DP2      0.348800
     50 HZ'2        2.8640    2.9950    7.3800 hn        1 DP2      0.348800
     51 C'         -0.7500   -1.2910    2.4110 c         1 DP2      0.614100
     52 HN'1        0.1350   -2.9140    4.5050 hn        1 DP2      0.362800
@<TRIPOS>BOND
     1    1    2 1   
     2    1    3 1   
     3    1   14 1   
     4    2   24 1   
     5    3   25 1   
     6    4    5 1   
     7    4   26 1   
     8    4   51 1   
     9    5    6 1   
    10    5    9 1   
    11    5   27 1   
    12    6    7 1   
    13    6    8 2   
    14    7   28 1   
    15    7   29 1   
    16    9   10 1   
    17    9   30 1   
    18    9   31 1   
    19   10   11 1   
    20   10   32 1   
    21   10   33 1   
    22   11   12 1   
    23   11   34 1   
    24   11   35 1   
    25   12   13 1   
    26   12   36 1   
    27   13   14 1   
    28   13   15 2   
    29   14   37 1   
    30   15   38 1   
    31   16   17 1   
    32   16   39 1   
    33   16   52 1   
    34   17   19 1   
    35   17   40 1   
    36   17   51 1   
    37   18   51 2   
    38   19   20 1   
    39   19   41 1   
    40   19   42 1   
    41   20   21 1   
    42   20   43 1   
    43   20   44 1   
    44   21   22 1   
    45   21   45 1   
    46   21   46 1   
    47   22   23 1   
    48   22   47 1   
    49   22   48 1   
    50   23   49 1   
    51   23   50 1   
@<TRIPOS>SUBSTRUCTURE
     1 DP2         1 TEMP              0 ****  ****    0 ROOT
