@<TRIPOS>MOLECULE
DP3
   38    37     1     0     0
SMALL
bcc


@<TRIPOS>ATOM
      1 N2'        -8.4680    0.8330    0.0470 n3        1 DP3     -0.916800
      2 C2'        -7.3510   -0.0570    0.2560 c3        1 DP3      0.153800
      3 C1'        -6.0120    0.5870   -0.1650 c3        1 DP3      0.158800
      4 N1'        -4.8880   -0.3040    0.0510 n3        1 DP3     -0.831200
      5 C          -3.6100    0.3410   -0.1600 c3        1 DP3      0.118800
      6 CA         -2.4080   -0.6110    0.1020 c3        1 DP3      0.168500
      7 N          -2.4420   -1.8590   -0.6300 n3        1 DP3     -0.900800
      8 CB         -1.1330    0.2010   -0.1780 c3        1 DP3     -0.072400
      9 CG          0.1130   -0.5530    0.2310 c3        1 DP3     -0.082400
     10 CD          1.3300    0.3630    0.0900 c3        1 DP3      0.177800
     11 NE          2.5690   -0.3360    0.3850 nh        1 DP3     -0.795200
     12 CZ          3.7770    0.4410    0.3040 c2        1 DP3      0.756100
     13 NH2         3.7860    1.7290    0.1770 n2        1 DP3     -0.797100
     14 NH1         4.9810   -0.4090    0.3970 nh        1 DP3     -0.812500
     15 NO          6.0490   -0.2220   -0.4650 no        1 DP3      0.444500
     16 O2          6.7540   -1.1770   -0.6620 o         1 DP3     -0.203000
     17 O3          6.2770    0.8750   -0.9050 o         1 DP3     -0.203000
     18 H2'1       -8.4950    1.1630   -0.8970 hn        1 DP3      0.351300
     19 H2'2       -9.3260    0.3630    0.2580 hn        1 DP3      0.351300
     20 H11        -7.3160   -0.2980    1.3570 h1        1 DP3      0.031200
     21 H12        -7.4650   -1.0360   -0.2970 h1        1 DP3      0.031200
     22 H1'1       -6.0420    0.8250   -1.2660 h1        1 DP3      0.038200
     23 H1'2       -5.8910    1.5660    0.3870 h1        1 DP3      0.038200
     24 H1'        -4.9290   -0.7070    0.9690 hn        1 DP3      0.356800
     25 H1         -3.5740    0.6890   -1.2310 h1        1 DP3      0.034700
     26 H2         -3.4760    1.2540    0.4930 h1        1 DP3      0.034700
     27 HA         -2.4110   -0.8830    1.2010 h1        1 DP3      0.054700
     28 HN1        -3.2700   -2.3740   -0.4030 hn        1 DP3      0.354300
     29 HN2        -2.4290   -1.6880   -1.6170 hn        1 DP3      0.354300
     30 HB1        -1.0780    0.4630   -1.2670 hc        1 DP3      0.045200
     31 HB2        -1.1980    1.1620    0.3960 hc        1 DP3      0.045200
     32 HG1         0.0120   -0.9010    1.2920 hc        1 DP3      0.057700
     33 HG2         0.2360   -1.4650   -0.4110 hc        1 DP3      0.057700
     34 HD1         1.3950    0.7360   -0.9710 h1        1 DP3      0.054700
     35 HD2         1.1820    1.2620    0.7580 h1        1 DP3      0.054700
     36 HNE         2.5140   -0.8420    1.2500 hn        1 DP3      0.394800
     37 HH2         4.6570    2.1870    0.0110 hn        1 DP3      0.443400
     38 HH1         4.8100   -1.3950    0.5460 hn        1 DP3      0.449800
@<TRIPOS>BOND
     1    1    2 1   
     2    1   18 1   
     3    1   19 1   
     4    2    3 1   
     5    2   20 1   
     6    2   21 1   
     7    3    4 1   
     8    3   22 1   
     9    3   23 1   
    10    4    5 1   
    11    4   24 1   
    12    5    6 1   
    13    5   25 1   
    14    5   26 1   
    15    6    7 1   
    16    6    8 1   
    17    6   27 1   
    18    7   28 1   
    19    7   29 1   
    20    8    9 1   
    21    8   30 1   
    22    8   31 1   
    23    9   10 1   
    24    9   32 1   
    25    9   33 1   
    26   10   11 1   
    27   10   34 1   
    28   10   35 1   
    29   11   12 1   
    30   11   36 1   
    31   12   13 2   
    32   12   14 1   
    33   13   37 1   
    34   14   15 1   
    35   14   38 1   
    36   15   16 1   
    37   15   17 1   
@<TRIPOS>SUBSTRUCTURE
     1 DP3         1 TEMP              0 ****  ****    0 ROOT
