@<TRIPOS>MOLECULE
DP3
   38    37     1     0     0
SMALL
bcc


@<TRIPOS>ATOM
      1 N2'         0.0250   -0.7520    0.2180 n3        1 DP3     -0.916800
      2 C2'         1.4680   -0.7340    0.2200 c3        1 DP3      0.153800
      3 C1'         2.0370   -0.1590    1.5360 c3        1 DP3      0.158800
      4 N1'         3.4870   -0.1390    1.5380 n3        1 DP3     -0.831200
      5 C           4.0430    0.2080    2.8290 c3        1 DP3      0.118800
      6 CA          5.5980    0.2040    2.8320 c3        1 DP3      0.168500
      7 N           6.2150    1.0110    1.8000 n3        1 DP3     -0.899800
      8 CB          6.0390    0.6220    4.2430 c3        1 DP3     -0.071400
      9 CG          7.5240    0.4170    4.4450 c3        1 DP3     -0.085400
     10 CD          7.8940    0.7400    5.8930 c3        1 DP3      0.183800
     11 NE          9.3120    0.6100    6.1540 nh        1 DP3     -0.826200
     12 CZ          9.7120    0.5440    7.5110 c2        1 DP3      0.773100
     13 NH2         9.1130    1.0380    8.5600 n2        1 DP3     -0.850100
     14 NH1        11.0440   -0.0380    7.7460 nh        1 DP3     -0.759500
     15 NO         11.2460   -1.3870    7.4790 no        1 DP3      0.436500
     16 O2         12.1270   -1.9320    8.0880 o         1 DP3     -0.202500
     17 O3         10.6080   -1.9190    6.6080 o         1 DP3     -0.202500
     18 H2'1       -0.3150   -1.0690   -0.6680 hn        1 DP3      0.351800
     19 H2'2       -0.3480    0.1560    0.4090 hn        1 DP3      0.351800
     20 H11         1.8970   -0.1430   -0.6430 h1        1 DP3      0.031700
     21 H12         1.8160   -1.7990    0.1000 h1        1 DP3      0.031700
     22 H1'1        1.6180   -0.7520    2.4010 h1        1 DP3      0.038200
     23 H1'2        1.6880    0.9060    1.6590 h1        1 DP3      0.038200
     24 H1'         3.8530   -1.0200    1.2260 hn        1 DP3      0.357800
     25 H1          3.6940   -0.4880    3.6480 h1        1 DP3      0.034200
     26 H2          3.6790    1.2420    3.0920 h1        1 DP3      0.034200
     27 HA          5.9440   -0.8600    2.6600 h1        1 DP3      0.057700
     28 HN1         5.9560    0.6760    0.8930 hn        1 DP3      0.354800
     29 HN2         5.9290    1.9670    1.8830 hn        1 DP3      0.354800
     30 HB1         5.7730    1.6950    4.4270 hc        1 DP3      0.043200
     31 HB2         5.4700    0.0020    4.9850 hc        1 DP3      0.043200
     32 HG1         8.1010    1.0770    3.7440 hc        1 DP3      0.065200
     33 HG2         7.7960   -0.6450    4.2060 hc        1 DP3      0.065200
     34 HD1         7.6040    1.8080    6.1140 h1        1 DP3      0.039700
     35 HD2         7.2880    0.0750    6.5760 h1        1 DP3      0.039700
     36 HNE         9.7930    0.0010    5.5220 hn        1 DP3      0.434800
     37 HH2         8.2590    1.5240    8.3950 hn        1 DP3      0.418400
     38 HH1        11.4520    0.2290    8.6350 hn        1 DP3      0.465800
@<TRIPOS>BOND
     1    1    2 1   
     2    1   18 1   
     3    1   19 1   
     4    2    3 1   
     5    2   20 1   
     6    2   21 1   
     7    3    4 1   
     8    3   22 1   
     9    3   23 1   
    10    4    5 1   
    11    4   24 1   
    12    5    6 1   
    13    5   25 1   
    14    5   26 1   
    15    6    7 1   
    16    6    8 1   
    17    6   27 1   
    18    7   28 1   
    19    7   29 1   
    20    8    9 1   
    21    8   30 1   
    22    8   31 1   
    23    9   10 1   
    24    9   32 1   
    25    9   33 1   
    26   10   11 1   
    27   10   34 1   
    28   10   35 1   
    29   11   12 1   
    30   11   36 1   
    31   12   13 2   
    32   12   14 1   
    33   13   37 1   
    34   14   15 1   
    35   14   38 1   
    36   15   16 1   
    37   15   17 1   
@<TRIPOS>SUBSTRUCTURE
     1 DP3         1 TEMP              0 ****  ****    0 ROOT
