@<TRIPOS>MOLECULE
DP3
   38    36     1     0     0
SMALL
bcc


@<TRIPOS>ATOM
      1 N2'        -6.0820   -0.9310   -3.4510 n3        1 DP3     -0.916800
      2 C2'        -4.6710   -1.2450   -3.3680 c3        1 DP3      0.155800
      3 C1'        -4.0950   -0.6810   -2.0530 c3        1 DP3      0.160800
      4 N1'        -2.6620   -0.9610   -1.9840 n3        1 DP3     -0.816200
      5 C          -2.0790   -0.2270   -0.8790 c3        1 DP3      0.175800
      6 CA         -0.5660   -0.4080   -0.8870 c3        1 DP3      0.120500
      7 N          -0.0480    0.0140   -2.1340 n3        1 DP3     -0.908800
      8 CB          0.0520    0.4230    0.2290 c3        1 DP3     -0.117400
      9 CG          1.3250   -0.2580    0.7280 c3        1 DP3     -0.091400
     10 CD          2.0170    0.6500    1.7920 c3        1 DP3      0.184800
     11 NE          3.2210    0.0280    2.2450 nh        1 DP3     -0.756000
     12 CZ          4.0800    0.7170    3.1640 c2        1 DP3      0.343000
     13 NH2         3.7770    0.7540    4.4490 n1        1 DP3     -0.312000
     14 NH1         5.2520    1.3600    2.6930 nh        1 DP3     -0.690300
     15 NO          6.1230    1.9560    3.5920 no        1 DP3      0.437500
     16 O2          6.0590    3.1520    3.7970 o         1 DP3     -0.202500
     17 O3          7.0210    1.1900    4.2830 o         1 DP3     -0.202500
     18 H2'1       -6.5730   -1.7060   -3.3950 hn        1 DP3      0.349300
     19 H2'2       -6.2570   -0.5140   -4.2520 hn        1 DP3      0.349300
     20 H11        -4.2020   -0.8440   -4.1280 h1        1 DP3      0.031700
     21 H12        -4.5500   -2.2240   -3.3870 h1        1 DP3      0.031700
     22 H1'1       -4.2400    0.2880   -2.0240 h1        1 DP3      0.034200
     23 H1'2       -4.5470   -1.1010   -1.2930 h1        1 DP3      0.034200
     24 H1'        -2.5320   -1.8530   -1.8570 hn        1 DP3      0.370800
     25 H1         -2.4440   -0.5640   -0.0350 h1        1 DP3      0.051200
     26 H2         -2.2940    0.7230   -0.9700 h1        1 DP3      0.051200
     27 HA         -0.3500   -1.3560   -0.7460 h1        1 DP3      0.061700
     28 HN1         0.4890   -0.6430   -2.4810 hn        1 DP3      0.350300
     29 HN2         0.4410    0.7790   -2.0180 hn        1 DP3      0.350300
     30 HB1        -0.5870    0.5030    0.9690 hc        1 DP3      0.049200
     31 HB2         0.2690    1.3100   -0.1090 hc        1 DP3      0.049200
     32 HG1         1.9340   -0.4030   -0.0250 hc        1 DP3      0.054200
     33 HG2         1.0970   -1.1190    1.1340 hc        1 DP3      0.054200
     34 HD1         1.4090    0.7820    2.5560 h1        1 DP3      0.044200
     35 HD2         2.2310    1.5210    1.3890 h1        1 DP3      0.044200
     36 HNE         3.4780   -0.7680    1.8960 hn        1 DP3      0.431800
     37 HH2         3.0280    0.3440    4.7500 DU        1 DP3      0.175000
     38 HH1         5.4740    1.3100    1.8090 hn        1 DP3      0.466800
@<TRIPOS>BOND
     1    1    2 1   
     2    1   18 1   
     3    1   19 1   
     4    2    3 1   
     5    2   20 1   
     6    2   21 1   
     7    3    4 1   
     8    3   22 1   
     9    3   23 1   
    10    4    5 1   
    11    4   24 1   
    12    5    6 1   
    13    5   25 1   
    14    5   26 1   
    15    6    7 1   
    16    6    8 1   
    17    6   27 1   
    18    7   28 1   
    19    7   29 1   
    20    8    9 1   
    21    8   30 1   
    22    8   31 1   
    23    9   10 1   
    24    9   32 1   
    25    9   33 1   
    26   10   11 1   
    27   10   34 1   
    28   10   35 1   
    29   11   12 1   
    30   11   36 1   
    31   12   13 2   
    32   12   14 1   
    33   14   15 1   
    34   14   38 1   
    35   15   16 1   
    36   15   17 1   
@<TRIPOS>SUBSTRUCTURE
     1 DP3         1 TEMP              0 ****  ****    0 ROOT
