@<TRIPOS>MOLECULE
DP4
   40    41     1     0     0
SMALL
bcc


@<TRIPOS>ATOM
      1 C1         -0.0470   -0.0360    0.0490 ca        1 DP4     -0.112000
      2 C2          0.7620   -1.0950    0.4620 ca        1 DP4     -0.142500
      3 C3          1.4800   -0.9970    1.6550 ca        1 DP4     -0.090500
      4 C4          1.3990    0.1510    2.4420 ca        1 DP4     -0.244200
      5 C5          0.5890    1.2050    2.0190 ca        1 DP4     -0.090500
      6 C6         -0.1330    1.1170    0.8290 ca        1 DP4     -0.142500
      7 C7          3.2740   -1.2190    4.3130 c3        1 DP4     -0.298100
      8 C8          3.4940    1.7040    3.8070 c3        1 DP4     -0.298100
      9 SI          2.3210    0.3030    3.9640 Si        1 DP4      0.647200
     10 C9          1.1480    0.6640    5.3500 c3        1 DP4     -0.256700
     11 C10         1.9280    1.1210    6.5590 c3        1 DP4     -0.066900
     12 C11         1.0240    1.3130    7.7670 c3        1 DP4      0.097800
     13 C12        -0.5330   -0.3720    6.8920 c3        1 DP4      0.097800
     14 C13         0.3560   -0.5790    5.6750 c3        1 DP4     -0.066900
     15 N1          0.2580    0.0430    8.1290 n4        1 DP4     -0.144600
     16 O1          1.0310   -0.8830    8.5400 o         1 DP4     -0.648000
     17 C14        -0.7510    0.4260    9.1890 c3        1 DP4      0.073100
     18 HC1        -0.6140   -0.1100   -0.8900 ha        1 DP4      0.130000
     19 HC2         0.8330   -2.0050   -0.1510 ha        1 DP4      0.130000
     20 HC3         2.1190   -1.8360    1.9740 ha        1 DP4      0.127000
     21 HC5         0.5190    2.1200    2.6300 ha        1 DP4      0.127000
     22 HC6        -0.7680    1.9540    0.5050 ha        1 DP4      0.130000
     23 HC71        2.6380   -2.1330    4.2640 hc        1 DP4      0.050867
     24 HC72        3.7240   -1.1900    5.3340 hc        1 DP4      0.050867
     25 HC73        4.1070   -1.3540    3.5860 hc        1 DP4      0.050867
     26 HC81        2.9620    2.6720    3.6670 hc        1 DP4      0.050867
     27 HC82        4.1730    1.5680    2.9340 hc        1 DP4      0.050867
     28 HC83        4.1350    1.8030    4.7130 hc        1 DP4      0.050867
     29 HC9         0.4380    1.4780    5.0440 hc        1 DP4      0.052700
     30 H101        2.4380    2.0990    6.3500 hc        1 DP4      0.063950
     31 H102        2.7140    0.3600    6.8160 hc        1 DP4      0.063950
     32 H111        1.6440    1.5820    8.6640 hx        1 DP4      0.059450
     33 H112        0.2770    2.1270    7.5640 hx        1 DP4      0.059450
     34 H121       -1.0500   -1.3360    7.1490 hx        1 DP4      0.059450
     35 H122       -1.2960    0.4240    6.6810 hx        1 DP4      0.059450
     36 H131        1.0580   -1.4330    5.8840 hc        1 DP4      0.063950
     37 H132       -0.3020   -0.8630    4.8120 hc        1 DP4      0.063950
     38 H141       -1.4220    1.2380    8.8170 hx        1 DP4      0.062367
     39 H142       -1.3470   -0.4850    9.4470 hx        1 DP4      0.062367
     40 H143       -0.1920    0.7640   10.0960 hx        1 DP4      0.062367
@<TRIPOS>BOND
     1    1    2 ar  
     2    1    6 ar  
     3    1   18 1   
     4    2    3 ar  
     5    2   19 1   
     6    3    4 ar  
     7    3   20 1   
     8    4    5 ar  
     9    4    9 1   
    10    5    6 ar  
    11    5   21 1   
    12    6   22 1   
    13    7    9 1   
    14    7   23 1   
    15    7   24 1   
    16    7   25 1   
    17    8    9 1   
    18    8   26 1   
    19    8   27 1   
    20    8   28 1   
    21    9   10 1   
    22   10   11 1   
    23   10   14 1   
    24   10   29 1   
    25   11   12 1   
    26   11   30 1   
    27   11   31 1   
    28   12   15 1   
    29   12   32 1   
    30   12   33 1   
    31   13   14 1   
    32   13   15 1   
    33   13   34 1   
    34   13   35 1   
    35   14   36 1   
    36   14   37 1   
    37   15   16 1   
    38   15   17 1   
    39   17   38 1   
    40   17   39 1   
    41   17   40 1   
@<TRIPOS>SUBSTRUCTURE
     1 DP4         1 TEMP              0 ****  ****    0 ROOT
