@<TRIPOS>MOLECULE
DP4
   40    41     1     0     0
SMALL
bcc


@<TRIPOS>ATOM
      1 C1         -0.0470   -0.0780    0.0520 ca        1 DP4     -0.112000
      2 C2          0.7230   -1.1570    0.4870 ca        1 DP4     -0.142500
      3 C3          1.4420   -1.0620    1.6790 ca        1 DP4     -0.090500
      4 C4          1.4000    0.1020    2.4450 ca        1 DP4     -0.244200
      5 C5          0.6290    1.1760    2.0010 ca        1 DP4     -0.090500
      6 C6         -0.0940    1.0920    0.8110 ca        1 DP4     -0.142500
      7 C7          3.2270   -1.2980    4.3430 c3        1 DP4     -0.298100
      8 C8          3.5430    1.6080    3.7890 c3        1 DP4     -0.298100
      9 Si          2.3250    0.2490    3.9670 Si        1 DP4      0.647200
     10 C9          1.1610    0.6720    5.3430 c3        1 DP4     -0.256700
     11 C10         1.9530    1.1210    6.5470 c3        1 DP4     -0.066900
     12 C11         1.0530    1.3630    7.7500 c3        1 DP4      0.097800
     13 C12        -0.5580   -0.2830    6.8970 c3        1 DP4      0.097800
     14 C13         0.3270   -0.5380    5.6860 c3        1 DP4     -0.066900
     15 N1          0.2450    0.1250    8.1290 n4        1 DP4     -0.144600
     16 O1          0.9840   -0.8190    8.5570 o         1 DP4     -0.648000
     17 C14        -0.7540    0.5590    9.1800 c3        1 DP4      0.073100
     18 HC1        -0.6150   -0.1480   -0.8870 ha        1 DP4      0.130000
     19 HC2         0.7630   -2.0790   -0.1100 ha        1 DP4      0.130000
     20 HC3         2.0500   -1.9180    2.0150 ha        1 DP4      0.127000
     21 HC5         0.5900    2.1030    2.5950 ha        1 DP4      0.127000
     22 HC6        -0.6990    1.9450    0.4710 ha        1 DP4      0.130000
     23 HC71        2.5600   -2.1910    4.3090 hc        1 DP4      0.050867
     24 HC72        4.0550   -1.4730    3.6190 hc        1 DP4      0.050867
     25 HC73        3.6770   -1.2660    5.3630 hc        1 DP4      0.050867
     26 HC81        4.1850    1.7020    4.6950 hc        1 DP4      0.050867
     27 HC82        4.2190    1.4350    2.9200 hc        1 DP4      0.050867
     28 HC83        3.0430    2.5900    3.6300 hc        1 DP4      0.050867
     29 HC9         0.4800    1.5040    5.0220 hc        1 DP4      0.052700
     30 H101        2.4960    2.0780    6.3240 hc        1 DP4      0.063950
     31 H102        2.7130    0.3380    6.8180 hc        1 DP4      0.063950
     32 H111        1.6800    1.6250    8.6430 hx        1 DP4      0.059450
     33 H112        0.3350    2.1980    7.5310 hx        1 DP4      0.059450
     34 H121       -1.1070   -1.2240    7.1680 hx        1 DP4      0.059450
     35 H122       -1.2930    0.5350    6.6710 hx        1 DP4      0.059450
     36 H131       -0.3380   -0.8150    4.8260 hc        1 DP4      0.063950
     37 H132        0.9990   -1.4120    5.9100 hc        1 DP4      0.063950
     38 H141       -0.1850    0.8930   10.0830 hx        1 DP4      0.062367
     39 H142       -1.3800   -0.3270    9.4510 hx        1 DP4      0.062367
     40 H143       -1.3960    1.3880    8.7940 hx        1 DP4      0.062367
@<TRIPOS>BOND
     1    1    2 ar  
     2    1    6 ar  
     3    1   18 1   
     4    2    3 ar  
     5    2   19 1   
     6    3    4 ar  
     7    3   20 1   
     8    4    5 ar  
     9    4    9 1   
    10    5    6 ar  
    11    5   21 1   
    12    6   22 1   
    13    7    9 1   
    14    7   23 1   
    15    7   24 1   
    16    7   25 1   
    17    8    9 1   
    18    8   26 1   
    19    8   27 1   
    20    8   28 1   
    21    9   10 1   
    22   10   11 1   
    23   10   14 1   
    24   10   29 1   
    25   11   12 1   
    26   11   30 1   
    27   11   31 1   
    28   12   15 1   
    29   12   32 1   
    30   12   33 1   
    31   13   14 1   
    32   13   15 1   
    33   13   34 1   
    34   13   35 1   
    35   14   36 1   
    36   14   37 1   
    37   15   16 1   
    38   15   17 1   
    39   17   38 1   
    40   17   39 1   
    41   17   40 1   
@<TRIPOS>SUBSTRUCTURE
     1 DP4         1 TEMP              0 ****  ****    0 ROOT
