@<TRIPOS>MOLECULE
DP4
   40    41     1     0     0
SMALL
bcc


@<TRIPOS>ATOM
      1 C1         -4.4550    1.6510   -0.0810 ca        1 DP4     -0.112000
      2 C2         -4.1800    0.8570    1.0330 ca        1 DP4     -0.142500
      3 C3         -3.0690    0.0130    1.0280 ca        1 DP4     -0.090500
      4 C4         -2.2260   -0.0460   -0.0810 ca        1 DP4     -0.244200
      5 C5         -2.5100    0.7500   -1.1900 ca        1 DP4     -0.090500
      6 C6         -3.6180    1.5970   -1.1950 ca        1 DP4     -0.142500
      7 C7         -0.6330   -2.0400    1.4640 c3        1 DP4     -0.298100
      8 C8         -1.0210   -2.3450   -1.4700 c3        1 DP4     -0.298100
      9 SI         -0.8050   -1.1300   -0.1130 Si        1 DP4      0.647200
     10 C9          0.7140   -0.1270   -0.4520 c3        1 DP4     -0.256700
     11 C10         1.8530   -1.0500   -0.8100 c3        1 DP4     -0.066900
     12 C11         3.1590   -0.2890   -0.9770 c3        1 DP4      0.097800
     13 C12         2.3750    1.4320    0.5920 c3        1 DP4      0.097800
     14 C13         1.0620    0.6860    0.7710 c3        1 DP4     -0.066900
     15 N1          3.5390    0.4960    0.2770 n4        1 DP4     -0.144600
     16 O1          3.8200   -0.2700    1.2560 o         1 DP4     -0.648000
     17 C14         4.7180    1.3690   -0.0930 c3        1 DP4      0.073100
     18 HC1        -5.3300    2.3170   -0.0800 ha        1 DP4      0.130000
     19 HC2        -4.8390    0.8960    1.9130 ha        1 DP4      0.130000
     20 HC3        -2.8590   -0.6130    1.9110 ha        1 DP4      0.127000
     21 HC5        -1.8540    0.7100   -2.0740 ha        1 DP4      0.127000
     22 HC6        -3.8330    2.2200   -2.0750 ha        1 DP4      0.130000
     23 HC71       -1.4530   -2.7840    1.5970 hc        1 DP4      0.050867
     24 HC72        0.3320   -2.5960    1.5070 hc        1 DP4      0.050867
     25 HC73       -0.6560   -1.3590    2.3460 hc        1 DP4      0.050867
     26 HC81       -1.0580   -1.8480   -2.4650 hc        1 DP4      0.050867
     27 HC82       -0.1850   -3.0820   -1.4940 hc        1 DP4      0.050867
     28 HC83       -1.9680   -2.9210   -1.3510 hc        1 DP4      0.050867
     29 HC9         0.5250    0.5700   -1.3110 hc        1 DP4      0.052700
     30 H101        1.9870   -1.8220   -0.0020 hc        1 DP4      0.063950
     31 H102        1.6370   -1.5830   -1.7740 hc        1 DP4      0.063950
     32 H111        3.9950   -1.0120   -1.1710 hx        1 DP4      0.059450
     33 H112        3.0750    0.4350   -1.8310 hx        1 DP4      0.059450
     34 H121        2.2850    2.1730   -0.2470 hx        1 DP4      0.059450
     35 H122        2.6400    1.9650    1.5440 hx        1 DP4      0.059450
     36 H131        0.2620    1.4440    0.9810 hc        1 DP4      0.063950
     37 H132        1.1530    0.0090    1.6650 hc        1 DP4      0.063950
     38 H141        4.4600    2.0340   -0.9530 hx        1 DP4      0.062367
     39 H142        4.9940    1.9770    0.8040 hx        1 DP4      0.062367
     40 H143        5.5750    0.7010   -0.3590 hx        1 DP4      0.062367
@<TRIPOS>BOND
     1    1    2 ar  
     2    1    6 ar  
     3    1   18 1   
     4    2    3 ar  
     5    2   19 1   
     6    3    4 ar  
     7    3   20 1   
     8    4    5 ar  
     9    4    9 1   
    10    5    6 ar  
    11    5   21 1   
    12    6   22 1   
    13    7    9 1   
    14    7   23 1   
    15    7   24 1   
    16    7   25 1   
    17    8    9 1   
    18    8   26 1   
    19    8   27 1   
    20    8   28 1   
    21    9   10 1   
    22   10   11 1   
    23   10   14 1   
    24   10   29 1   
    25   11   12 1   
    26   11   30 1   
    27   11   31 1   
    28   12   15 1   
    29   12   32 1   
    30   12   33 1   
    31   13   14 1   
    32   13   15 1   
    33   13   34 1   
    34   13   35 1   
    35   14   36 1   
    36   14   37 1   
    37   15   16 1   
    38   15   17 1   
    39   17   38 1   
    40   17   39 1   
    41   17   40 1   
@<TRIPOS>SUBSTRUCTURE
     1 DP4         1 TEMP              0 ****  ****    0 ROOT
