@<TRIPOS>MOLECULE
DP4
   40    38     1     0     0
SMALL
bcc


@<TRIPOS>ATOM
      1 C1         -3.4700   -0.6120   -3.6260 c1        1 DP4     -0.062500
      2 C2         -2.3300   -1.3980   -3.5750 c1        1 DP4     -0.062500
      3 C3         -1.5600   -1.4290   -2.4220 c1        1 DP4     -0.062500
      4 C4         -1.9310   -0.6750   -1.3210 c1        1 DP4     -0.207700
      5 C5         -3.0720    0.1110   -1.3720 c1        1 DP4     -0.032500
      6 C6         -3.8410    0.1430   -2.5240 c1        1 DP4     -0.062500
      7 C7         -1.8340    0.1460    1.6080 c3        1 DP4     -0.297100
      8 C8         -0.7830   -2.5810    0.7550 c3        1 DP4     -0.297100
      9 SI         -0.9520   -0.7920    0.2600 Si        1 DP4      0.603700
     10 C9          0.8060   -0.0290   -0.0130 c3        1 DP4     -0.257700
     11 C10         1.7670   -0.7050    0.8960 c3        1 DP4     -0.078900
     12 C11         3.1270   -0.0460    0.8870 c3        1 DP4      0.090800
     13 C12         2.1020    2.0740    0.2230 c3        1 DP4      0.090800
     14 C13         0.7360    1.4220    0.2280 c3        1 DP4     -0.078900
     15 N1          3.0540    1.3990    1.1230 n4        1 DP4     -0.145600
     16 O1          4.2940    1.9390    0.9360 o         1 DP4     -0.652000
     17 C14         2.6630    1.6200    2.4350 c3        1 DP4      0.076100
     18 HC1        -4.0120   -0.5900   -4.4370 ha        1 DP4      0.072500
     19 HC2        -2.0690   -1.9290   -4.3510 ha        1 DP4      0.072500
     20 HC3        -0.7580   -1.9830   -2.3870 ha        1 DP4      0.072500
     21 HC5        -3.3340    0.6430   -0.5950 ha        1 DP4      0.070500
     22 HC6        -4.6440    0.6960   -2.5600 ha        1 DP4      0.072500
     23 HC71       -2.6500   -0.3340    1.8600 hc        1 DP4      0.050033
     24 HC72       -2.0680    1.0410    1.2840 hc        1 DP4      0.050033
     25 HC73       -1.2470    0.2250    2.3890 hc        1 DP4      0.050033
     26 HC81       -1.6280   -3.0490    0.5850 hc        1 DP4      0.050033
     27 HC82       -0.5650   -2.6370    1.7100 hc        1 DP4      0.050033
     28 HC83       -0.0670   -2.9990    0.2330 hc        1 DP4      0.050033
     29 HC9         1.0800   -0.1840   -0.9380 hc        1 DP4      0.067700
     30 H101        1.8650   -1.6370    0.6170 hc        1 DP4      0.051200
     31 H102        1.4110   -0.6830    1.8070 hc        1 DP4      0.051200
     32 H111        3.5490   -0.2030    0.0190 hx        1 DP4      0.078700
     33 H112        3.6790   -0.4520    1.5850 hx        1 DP4      0.078700
     34 H121        2.0090    3.0060    0.5040 hx        1 DP4      0.078700
     35 H122        2.4590    2.0520   -0.6880 hx        1 DP4      0.078700
     36 H131        0.1870    1.8330   -0.4690 hc        1 DP4      0.051200
     37 H132        0.3140    1.5790    1.0970 hc        1 DP4      0.051200
     38 H141        3.3420    1.2570    3.0450 hx        1 DP4      0.063033
     39 H142        1.8030    1.1750    2.6000 hx        1 DP4      0.063033
     40 H143        2.5670    2.5840    2.5900 hx        1 DP4      0.063033
@<TRIPOS>BOND
     1    1    6 3   
     2    1   18 1   
     3    2    3 3   
     4    2   19 1   
     5    3   20 1   
     6    4    5 3   
     7    4    9 1   
     8    5   21 1   
     9    6   22 1   
    10    7    9 1   
    11    7   23 1   
    12    7   24 1   
    13    7   25 1   
    14    8    9 1   
    15    8   26 1   
    16    8   27 1   
    17    8   28 1   
    18    9   10 1   
    19   10   11 1   
    20   10   14 1   
    21   10   29 1   
    22   11   12 1   
    23   11   30 1   
    24   11   31 1   
    25   12   15 1   
    26   12   32 1   
    27   12   33 1   
    28   13   14 1   
    29   13   15 1   
    30   13   34 1   
    31   13   35 1   
    32   14   36 1   
    33   14   37 1   
    34   15   16 1   
    35   15   17 1   
    36   17   38 1   
    37   17   39 1   
    38   17   40 1   
@<TRIPOS>SUBSTRUCTURE
     1 DP4         1 TEMP              0 ****  ****    0 ROOT
