@<TRIPOS>MOLECULE
DP4
   40    41     1     0     0
SMALL
bcc


@<TRIPOS>ATOM
      1 C1         -0.0460   -0.0600    0.0510 ca        1 DP4     -0.112000
      2 C2          0.7110   -1.1480    0.4850 ca        1 DP4     -0.142500
      3 C3          1.4310   -1.0620    1.6770 ca        1 DP4     -0.090500
      4 C4          1.4010    0.1010    2.4450 ca        1 DP4     -0.244200
      5 C5          0.6410    1.1840    2.0020 ca        1 DP4     -0.090500
      6 C6         -0.0820    1.1090    0.8110 ca        1 DP4     -0.142500
      7 C7          3.2090   -1.3210    4.3440 c3        1 DP4     -0.298100
      8 C8          3.5590    1.5810    3.7920 c3        1 DP4     -0.298100
      9 SI          2.3250    0.2360    3.9680 Si        1 DP4      0.647200
     10 C9          1.1650    0.6710    5.3440 c3        1 DP4     -0.256700
     11 C10         1.9610    1.1110    6.5480 c3        1 DP4     -0.066900
     12 C11         1.0630    1.3610    7.7500 c3        1 DP4      0.097800
     13 C12        -0.5650   -0.2670    6.8950 c3        1 DP4      0.097800
     14 C13         0.3170   -0.5310    5.6850 c3        1 DP4     -0.066900
     15 N1          0.2400    0.1320    8.1290 n4        1 DP4     -0.144600
     16 O1          0.9700   -0.8210    8.5560 o         1 DP4     -0.648000
     17 C14        -0.7540    0.5760    9.1790 c3        1 DP4      0.073100
     18 HC1        -0.6140   -0.1240   -0.8890 ha        1 DP4      0.130000
     19 HC2         0.7420   -2.0710   -0.1130 ha        1 DP4      0.130000
     20 HC3         2.0290   -1.9250    2.0130 ha        1 DP4      0.127000
     21 HC5         0.6120    2.1110    2.5970 ha        1 DP4      0.127000
     22 HC6        -0.6760    1.9690    0.4710 ha        1 DP4      0.130000
     23 HC71        4.0370   -1.5040    3.6200 hc        1 DP4      0.050867
     24 HC72        3.6580   -1.2950    5.3640 hc        1 DP4      0.050867
     25 HC73        2.5330   -2.2060    4.3070 hc        1 DP4      0.050867
     26 HC81        4.2330    1.4020    2.9240 hc        1 DP4      0.050867
     27 HC82        4.2010    1.6670    4.6990 hc        1 DP4      0.050867
     28 HC83        3.0700    2.5700    3.6340 hc        1 DP4      0.050867
     29 HC9         0.4930    1.5110    5.0230 hc        1 DP4      0.052700
     30 H101        2.7120    0.3180    6.8190 hc        1 DP4      0.063950
     31 H102        2.5150    2.0610    6.3270 hc        1 DP4      0.063950
     32 H111        0.3540    2.2040    7.5320 hx        1 DP4      0.059450
     33 H112        1.6920    1.6160    8.6450 hx        1 DP4      0.059450
     34 H121       -1.1250   -1.2020    7.1650 hx        1 DP4      0.059450
     35 H122       -1.2920    0.5600    6.6690 hx        1 DP4      0.059450
     36 H131        0.9800   -1.4120    5.9090 hc        1 DP4      0.063950
     37 H132       -0.3500   -0.7990    4.8240 hc        1 DP4      0.063950
     38 H141       -1.3870    1.4120    8.7930 hx        1 DP4      0.062367
     39 H142       -1.3900   -0.3040    9.4480 hx        1 DP4      0.062367
     40 H143       -0.1820    0.9030   10.0830 hx        1 DP4      0.062367
@<TRIPOS>BOND
     1    1    2 ar  
     2    1    6 ar  
     3    1   18 1   
     4    2    3 ar  
     5    2   19 1   
     6    3    4 ar  
     7    3   20 1   
     8    4    5 ar  
     9    4    9 1   
    10    5    6 ar  
    11    5   21 1   
    12    6   22 1   
    13    7    9 1   
    14    7   23 1   
    15    7   24 1   
    16    7   25 1   
    17    8    9 1   
    18    8   26 1   
    19    8   27 1   
    20    8   28 1   
    21    9   10 1   
    22   10   11 1   
    23   10   14 1   
    24   10   29 1   
    25   11   12 1   
    26   11   30 1   
    27   11   31 1   
    28   12   15 1   
    29   12   32 1   
    30   12   33 1   
    31   13   14 1   
    32   13   15 1   
    33   13   34 1   
    34   13   35 1   
    35   14   36 1   
    36   14   37 1   
    37   15   16 1   
    38   15   17 1   
    39   17   38 1   
    40   17   39 1   
    41   17   40 1   
@<TRIPOS>SUBSTRUCTURE
     1 DP4         1 TEMP              0 ****  ****    0 ROOT
