@<TRIPOS>MOLECULE
DP6
   28    27     1     0     0
SMALL
bcc


@<TRIPOS>ATOM
      1 C3A         1.0450    0.1030    0.1230 c3        1 DP6     -0.111100
      2 O1A        -0.0200    3.7210   -3.3260 o         1 DP6     -0.932500
      3 O2A         1.1710    1.8260   -4.5130 o         1 DP6     -0.932500
      4 O3A        -0.9310    0.7760    1.3190 oh        1 DP6     -0.658800
      5 O1B        -3.1160    3.8400   -6.6330 o         1 DP6     -0.969833
      6 O2B        -1.9240    1.9600   -7.8190 o         1 DP6     -0.969833
      7 O3B        -0.8640    4.2490   -7.7000 o         1 DP6     -0.969833
      8 PB         -1.7950    3.2520   -7.0550 p5        1 DP6      1.470900
      9 O6         -0.9690    2.8230   -5.5450 os        1 DP6     -0.811800
     10 PA         -0.1030    2.5660   -4.2670 p5        1 DP6      1.583800
     11 O5         -1.0100    1.4210   -3.3720 os        1 DP6     -0.579200
     12 C5         -0.3220    0.7710   -2.3680 c3        1 DP6      0.238400
     13 C4         -1.0640    0.9040   -1.0300 c3        1 DP6     -0.106400
     14 C3         -0.4790    0.0930    0.1390 c3        1 DP6      0.176800
     15 C2         -0.9920   -1.3520    0.1520 c3        1 DP6     -0.199400
     16 C1         -0.5760   -2.2260    1.3360 c         1 DP6      0.902600
     17 O1         -0.2750   -1.7170    2.4640 o         1 DP6     -0.891300
     18 O2         -0.5830   -3.4890    1.1830 o         1 DP6     -0.891300
     19 H3A1        1.4190   -0.4300   -0.7820 hc        1 DP6      0.030367
     20 H3A2        1.4150    1.1550    0.1020 hc        1 DP6      0.030367
     21 H3A3        1.4310   -0.4080    1.0390 hc        1 DP6      0.030367
     22 HO3A       -0.6840    0.2170    2.0690 ho        1 DP6      0.416000
     23 H51         0.7220    1.1840   -2.2700 h1        1 DP6     -0.009800
     24 H52        -0.2460   -0.3330   -2.6080 h1        1 DP6     -0.009800
     25 H41        -2.1310    0.6010   -1.1790 hc        1 DP6      0.041200
     26 H42        -1.0640    1.9880   -0.7400 hc        1 DP6      0.041200
     27 H21        -2.1130   -1.3270    0.1520 hc        1 DP6      0.040700
     28 H22        -0.6610   -1.8490   -0.7940 hc        1 DP6      0.040700
@<TRIPOS>BOND
     1    1   14 1   
     2    1   19 1   
     3    1   20 1   
     4    1   21 1   
     5    2   10 1   
     6    3   10 1   
     7    4   14 1   
     8    4   22 1   
     9    5    8 1   
    10    6    8 1   
    11    7    8 1   
    12    8    9 1   
    13    9   10 1   
    14   10   11 1   
    15   11   12 1   
    16   12   13 1   
    17   12   23 1   
    18   12   24 1   
    19   13   14 1   
    20   13   25 1   
    21   13   26 1   
    22   14   15 1   
    23   15   16 1   
    24   15   27 1   
    25   15   28 1   
    26   16   17 1   
    27   16   18 1   
@<TRIPOS>SUBSTRUCTURE
     1 DP6         1 TEMP              0 ****  ****    0 ROOT
