@<TRIPOS>MOLECULE
DP6
   28    27     1     0     0
SMALL
bcc


@<TRIPOS>ATOM
      1 C3A         2.2490   -2.0270   -0.2080 c3        1 DP6     -0.109100
      2 O1A        -0.9490    2.6320    1.7210 o         1 DP6     -0.940500
      3 O2A         0.8170    3.5320    0.2550 o         1 DP6     -0.940500
      4 O3A         0.3690   -1.9170    1.2550 oh        1 DP6     -0.634800
      5 O1B        -1.2410    5.5700    1.3850 o         1 DP6     -0.938167
      6 O2B        -3.3140    5.6240    0.0510 o         1 DP6     -0.938167
      7 O3B        -1.1640    6.2440   -0.9860 o         1 DP6     -0.938167
      8 PB         -1.8320    5.3330    0.0160 p5        1 DP6      1.375900
      9 O6         -1.6010    3.8270   -0.4040 os        1 DP6     -0.727800
     10 PA         -0.5430    2.8780    0.2870 p5        1 DP6      1.600800
     11 O5         -0.4850    1.5010   -0.4870 os        1 DP6     -0.576200
     12 C5          0.0870    0.3900    0.1620 c3        1 DP6      0.281400
     13 C4          0.2230   -0.7530   -0.8210 c3        1 DP6     -0.112400
     14 C3          0.7410   -1.9780   -0.1010 c3        1 DP6      0.174800
     15 C2          0.1500   -3.2200   -0.7300 c3        1 DP6     -0.202400
     16 C1         -0.9050   -3.7970    0.1870 c         1 DP6      0.902600
     17 O1         -0.5810   -4.6340    1.0710 o         1 DP6     -0.897300
     18 O2         -2.1070   -3.4420    0.0680 o         1 DP6     -0.897300
     19 H3A1        2.5110   -1.9870   -1.1520 hc        1 DP6      0.028033
     20 H3A2        2.6350   -1.2640    0.2710 hc        1 DP6      0.028033
     21 H3A3        2.5780   -2.8610    0.1870 hc        1 DP6      0.028033
     22 HO3A        1.0800   -2.0760    1.7640 ho        1 DP6      0.404000
     23 H51         0.9720    0.6320    0.5060 h1        1 DP6     -0.039800
     24 H52        -0.4880    0.1140    0.9050 h1        1 DP6     -0.039800
     25 H41        -0.6500   -0.9500   -1.2140 hc        1 DP6      0.024700
     26 H42         0.8500   -0.5010   -1.5280 hc        1 DP6      0.024700
     27 H21         0.8570   -3.8810   -0.8720 hc        1 DP6      0.029700
     28 H22        -0.2560   -2.9880   -1.5890 hc        1 DP6      0.029700
@<TRIPOS>BOND
     1    1   14 1   
     2    1   19 1   
     3    1   20 1   
     4    1   21 1   
     5    2   10 1   
     6    3   10 1   
     7    4   14 1   
     8    4   22 1   
     9    5    8 1   
    10    6    8 1   
    11    7    8 1   
    12    8    9 1   
    13    9   10 1   
    14   10   11 1   
    15   11   12 1   
    16   12   13 1   
    17   12   23 1   
    18   12   24 1   
    19   13   14 1   
    20   13   25 1   
    21   13   26 1   
    22   14   15 1   
    23   15   16 1   
    24   15   27 1   
    25   15   28 1   
    26   16   17 1   
    27   16   18 1   
@<TRIPOS>SUBSTRUCTURE
     1 DP6         1 TEMP              0 ****  ****    0 ROOT
