@<TRIPOS>MOLECULE
DP6
   28    27     1     0     0
SMALL
bcc


@<TRIPOS>ATOM
      1 C3A         2.3320    1.1030   -1.3330 c3        1 DP6     -0.111100
      2 O1A         6.3080   -1.9660   -2.2830 o         1 DP6     -0.932500
      3 O2A         6.7530   -0.7480   -0.1070 o         1 DP6     -0.932500
      4 O3A         0.9350   -0.4880   -2.4750 oh        1 DP6     -0.658800
      5 O1B         7.5650   -5.8670   -0.3520 o         1 DP6     -0.969833
      6 O2B         8.0180   -4.6520    1.8110 o         1 DP6     -0.969833
      7 O3B         9.5230   -4.2820   -0.1830 o         1 DP6     -0.969833
      8 PB          8.1450   -4.6440    0.3090 p5        1 DP6      1.470900
      9 O6          7.1340   -3.2930   -0.2370 os        1 DP6     -0.811800
     10 PA          6.4040   -2.0260   -0.7960 p5        1 DP6      1.583800
     11 O5          4.7710   -2.2460   -0.3250 os        1 DP6     -0.579200
     12 C5          3.9750   -1.1200   -0.3970 c3        1 DP6      0.238400
     13 C4          2.7190   -1.3990   -1.2350 c3        1 DP6     -0.106400
     14 C3          1.6740   -0.2710   -1.2630 c3        1 DP6      0.176800
     15 C2          0.7230   -0.3340   -0.0620 c3        1 DP6     -0.199400
     16 C1         -0.4350    0.6630   -0.0390 c         1 DP6      0.902600
     17 O1         -0.9060    1.1600   -1.1140 o         1 DP6     -0.891300
     18 O2         -0.9560    0.9550    1.0840 o         1 DP6     -0.891300
     19 H3A1        2.9050    1.2970   -0.3960 hc        1 DP6      0.030033
     20 H3A2        1.5460    1.8880   -1.4540 hc        1 DP6      0.030033
     21 H3A3        3.0320    1.1420   -2.2000 hc        1 DP6      0.030033
     22 HO3A        0.1910    0.1310   -2.4550 ho        1 DP6      0.416000
     23 H51         3.6350   -0.8260    0.6420 h1        1 DP6     -0.009800
     24 H52         4.5480   -0.2570   -0.8390 h1        1 DP6     -0.009800
     25 H41         2.2310   -2.3310   -0.8510 hc        1 DP6      0.041200
     26 H42         3.0430   -1.6030   -2.2880 hc        1 DP6      0.041200
     27 H21         1.3280   -0.2020    0.8710 hc        1 DP6      0.040700
     28 H22         0.2650   -1.3570   -0.0310 hc        1 DP6      0.040700
@<TRIPOS>BOND
     1    1   14 1   
     2    1   19 1   
     3    1   20 1   
     4    1   21 1   
     5    2   10 1   
     6    3   10 1   
     7    4   14 1   
     8    4   22 1   
     9    5    8 1   
    10    6    8 1   
    11    7    8 1   
    12    8    9 1   
    13    9   10 1   
    14   10   11 1   
    15   11   12 1   
    16   12   13 1   
    17   12   23 1   
    18   12   24 1   
    19   13   14 1   
    20   13   25 1   
    21   13   26 1   
    22   14   15 1   
    23   15   16 1   
    24   15   27 1   
    25   15   28 1   
    26   16   17 1   
    27   16   18 1   
@<TRIPOS>SUBSTRUCTURE
     1 DP6         1 TEMP              0 ****  ****    0 ROOT
