@<TRIPOS>MOLECULE
DP6
   28    27     1     0     0
SMALL
bcc


@<TRIPOS>ATOM
      1 C3A         1.0750    0.1590    0.1160 c3        1 DP6     -0.111100
      2 O1A        -0.1350    3.7390   -3.3270 o         1 DP6     -0.932500
      3 O2A         1.1190    1.8870   -4.5190 o         1 DP6     -0.932500
      4 O3A        -0.9180    0.7610    1.3210 oh        1 DP6     -0.658800
      5 O1B        -3.2470    3.7460   -6.6210 o         1 DP6     -0.969833
      6 O2B        -1.9920    1.9110   -7.8120 o         1 DP6     -0.969833
      7 O3B        -1.0160    4.2370   -7.6960 o         1 DP6     -0.969833
      8 PB         -1.9070    3.2070   -7.0480 p5        1 DP6      1.470900
      9 O6         -1.0600    2.8070   -5.5420 os        1 DP6     -0.811800
     10 PA         -0.1800    2.5820   -4.2670 p5        1 DP6      1.583800
     11 O5         -1.0410    1.4040   -3.3690 os        1 DP6     -0.579200
     12 C5         -0.3260    0.7790   -2.3690 c3        1 DP6      0.238400
     13 C4         -1.0660    0.8850   -1.0270 c3        1 DP6     -0.106400
     14 C3         -0.4480    0.0950    0.1390 c3        1 DP6      0.176800
     15 C2         -0.9090   -1.3670    0.1530 c3        1 DP6     -0.199400
     16 C1         -0.4570   -2.2270    1.3340 c         1 DP6      0.902600
     17 O1         -0.1690   -1.7080    2.4620 o         1 DP6     -0.891300
     18 O2         -0.4200   -3.4890    1.1810 o         1 DP6     -0.891300
     19 H3A1        1.4080    1.2230    0.0930 hc        1 DP6      0.030033
     20 H3A2        1.4840   -0.3390    1.0290 hc        1 DP6      0.030033
     21 H3A3        1.4630   -0.3610   -0.7910 hc        1 DP6      0.030033
     22 HO3A       -0.6470    0.2100    2.0690 ho        1 DP6      0.416000
     23 H51         0.7030    1.2280   -2.2760 h1        1 DP6     -0.009800
     24 H52        -0.2130   -0.3220   -2.6100 h1        1 DP6     -0.009800
     25 H41        -1.1030    1.9680   -0.7360 hc        1 DP6      0.041200
     26 H42        -2.1220    0.5440   -1.1720 hc        1 DP6      0.041200
     27 H21        -2.0300   -1.3820    0.1590 hc        1 DP6      0.040700
     28 H22        -0.5650   -1.8530   -0.7950 hc        1 DP6      0.040700
@<TRIPOS>BOND
     1    1   14 1   
     2    1   19 1   
     3    1   20 1   
     4    1   21 1   
     5    2   10 1   
     6    3   10 1   
     7    4   14 1   
     8    4   22 1   
     9    5    8 1   
    10    6    8 1   
    11    7    8 1   
    12    8    9 1   
    13    9   10 1   
    14   10   11 1   
    15   11   12 1   
    16   12   13 1   
    17   12   23 1   
    18   12   24 1   
    19   13   14 1   
    20   13   25 1   
    21   13   26 1   
    22   14   15 1   
    23   15   16 1   
    24   15   27 1   
    25   15   28 1   
    26   16   17 1   
    27   16   18 1   
@<TRIPOS>SUBSTRUCTURE
     1 DP6         1 TEMP              0 ****  ****    0 ROOT
