@<TRIPOS>MOLECULE
DP8
   39    37     1     0     0
SMALL
bcc


@<TRIPOS>ATOM
      1 C           0.9750    1.5380   -0.4790 c2        1 DP8      0.384100
      2 N           1.2260    0.2810   -0.2980 nu        1 DP8     -0.170100
      3 O           3.6660    1.5310    0.4610 o         1 DP8     -0.692100
      4 C01        10.4570    7.3590    1.9590 cg        1 DP8     -0.184300
      5 C02         9.3850    7.5480    2.8400 ce        1 DP8     -0.019700
      6 C03         8.3450    6.7190    3.0400 cf        1 DP8     -0.102000
      7 C04         8.0770    5.4480    2.4160 cf        1 DP8     -0.221000
      8 C05         8.9670    4.7340    1.7060 c2        1 DP8      0.037100
      9 C06        11.3930    7.2440    1.2180 c1        1 DP8     -0.127500
     10 C07         7.4280    3.0380    1.0790 ce        1 DP8      0.051100
     11 C08         6.4350    3.8080    0.3540 ce        1 DP8     -0.013000
     12 C09         5.1950    3.3120    0.1620 cf        1 DP8     -0.283200
     13 C10         4.8080    1.9980    0.6660 c         1 DP8      0.619300
     14 C11         5.8150    1.2000    1.4460 c3        1 DP8     -0.161200
     15 C12         7.1440    1.8230    1.6030 c2        1 DP8     -0.132200
     16 C13         2.8810   -1.2200    2.0790 c2        1 DP8     -0.240500
     17 C14         2.5880   -2.2390    1.2800 c2        1 DP8     -0.240500
     18 C15         0.3830   -0.8040   -0.7540 c3        1 DP8     -0.066400
     19 H           2.0800   -0.0030    0.1930 hn        1 DP8      0.361700
     20 HA          0.0560    1.8740   -1.0040 h4        1 DP8      0.076800
     21 HB          1.6960    2.3060   -0.1070 h4        1 DP8      0.076800
     22 H03         7.0540    5.0590    2.5700 ha        1 DP8      0.125000
     23 H04         7.5730    7.0280    3.7710 ha        1 DP8      0.132000
     24 H06        10.0220    5.0040    1.5090 h4        1 DP8      0.196000
     25 H08         6.7410    4.7960   -0.0320 ha        1 DP8      0.171000
     26 H09         4.4280    3.8770   -0.3900 ha        1 DP8      0.152000
     27 H11         5.9360    0.1960    0.9450 hc        1 DP8      0.106200
     28 H12         7.9030    1.2430    2.1520 ha        1 DP8      0.170000
     29 H13         5.3850    0.9990    2.4700 hc        1 DP8      0.106200
     30 H13A        2.3960   -1.0730    3.0550 ha        1 DP8      0.123000
     31 H14         3.6490   -0.4690    1.8310 ha        1 DP8      0.123000
     32 H14A        1.8480   -3.0080    1.5460 ha        1 DP8      0.123000
     33 H15         3.1030   -2.4140    0.3250 ha        1 DP8      0.123000
     34 H15A       -0.6710   -0.4560   -0.9190 h1        1 DP8      0.105700
     35 H15B        0.7990   -1.2110   -1.7180 h1        1 DP8      0.105700
     36 H01        12.2250    7.1500    0.5660 ha        1 DP8      0.173500
     37 HN1         0.3970   -1.6200    0.0240 h1        1 DP8      0.105700
     38 O01         8.7390    3.5000    1.1230 os        1 DP8     -0.243200
     39 H02         9.4340    8.4970    3.4130 ha        1 DP8      0.148000
@<TRIPOS>BOND
     1    1    2 2   
     2    1   20 1   
     3    1   21 1   
     4    2   18 1   
     5    2   19 1   
     6    3   13 2   
     7    4    5 1   
     8    4    9 3   
     9    5    6 2   
    10    5   39 1   
    11    6    7 1   
    12    6   23 1   
    13    7    8 2   
    14    7   22 1   
    15    8   24 1   
    16    8   38 1   
    17    9   36 1   
    18   10   11 1   
    19   10   15 2   
    20   10   38 1   
    21   11   12 2   
    22   11   25 1   
    23   12   13 1   
    24   12   26 1   
    25   13   14 1   
    26   14   15 1   
    27   14   27 1   
    28   14   29 1   
    29   15   28 1   
    30   16   17 2   
    31   16   30 1   
    32   16   31 1   
    33   17   32 1   
    34   17   33 1   
    35   18   34 1   
    36   18   35 1   
    37   18   37 1   
@<TRIPOS>SUBSTRUCTURE
     1 DP8         1 TEMP              0 ****  ****    0 ROOT
