@<TRIPOS>MOLECULE
DP8
   39    39     1     0     0
SMALL
bcc


@<TRIPOS>ATOM
      1 C          -0.1270    0.8290   -0.1220 c2        1 DP8     -0.723000
      2 N           1.1330    0.2680   -0.2250 n4        1 DP8      0.217000
      3 O           3.6930    1.4260    0.8360 os        1 DP8     -0.142000
      4 C01        10.1980    7.3900    1.6050 c2        1 DP8     -0.492000
      5 C02         9.5700    7.3300    2.9030 c2        1 DP8     -0.038000
      6 C03         8.7680    6.3480    3.3480 c2        1 DP8     -0.159000
      7 C04         8.3940    5.1350    2.6610 c2        1 DP8     -0.177000
      8 C05         9.1870    4.4760    1.8020 c2        1 DP8     -0.050000
      9 C06        11.2670    8.0920    1.2720 c1        1 DP8      0.275000
     10 C07         7.5730    2.8290    1.2040 c2        1 DP8      0.006000
     11 C08         6.4980    3.6690    0.7500 c2        1 DP8      0.075000
     12 C09         5.2210    3.1750    0.6470 c2        1 DP8     -0.237000
     13 C10         4.9510    1.8230    0.9880 c2        1 DP8      0.262000
     14 C11         6.0170    0.9200    1.4780 c3        1 DP8     -0.209000
     15 C12         7.3560    1.5300    1.5620 c2        1 DP8     -0.082000
     16 C13         3.3310    0.0490    1.1560 c3        1 DP8     -0.040000
     17 C14         1.8150    0.0290    1.1480 c3        1 DP8     -0.293000
     18 C15         1.1270   -1.0100   -0.9770 c3        1 DP8     -0.164000
     19 H           1.7580    0.9280   -0.6940 hn        1 DP8      0.195000
     20 HA         -0.9910    0.1770   -0.0150 hx        1 DP8      0.139500
     21 HB         -0.1960    1.8840    0.1380 hx        1 DP8      0.139500
     22 H03         7.3960    4.7420    2.9220 ha        1 DP8      0.120000
     23 H04         8.3160    6.4490    4.3530 ha        1 DP8      0.146000
     24 H06        10.2230    4.7360    1.5160 h4        1 DP8      0.204000
     25 H08         6.7270    4.7180    0.4770 ha        1 DP8      0.200000
     26 H09         4.3860    3.8090    0.2950 ha        1 DP8      0.205000
     27 H11         6.0660    0.0030    0.8100 hc        1 DP8      0.195500
     28 H12         8.1830    0.8860    1.9100 ha        1 DP8      0.199000
     29 H13         5.7330    0.5360    2.5100 hc        1 DP8      0.195500
     30 H13A        3.7290   -0.2070    2.1720 h1        1 DP8      0.110500
     31 H14         3.7910   -0.6080    0.3720 h1        1 DP8      0.110500
     32 H14A        1.4210    0.8350    1.8270 hx        1 DP8      0.141500
     33 H15         1.4820   -0.9660    1.5460 hx        1 DP8      0.141500
     34 H15A        0.4410   -1.7380   -0.4710 hx        1 DP8      0.115000
     35 H15B        0.7470   -0.8160   -2.0140 hx        1 DP8      0.115000
     36 H01         9.7150    6.8000    0.7950 ha        1 DP8      0.185000
     37 HN1         2.1640   -1.4300   -1.0180 hx        1 DP8      0.115000
     38 O01         8.8800    3.2800    1.1590 os        1 DP8     -0.145000
     39 H02         9.7680    8.1950    3.5640 ha        1 DP8      0.146000
@<TRIPOS>BOND
     1    1    2 1   
     2    1   20 1   
     3    1   21 1   
     4    2   17 1   
     5    2   18 1   
     6    2   19 1   
     7    3   13 1   
     8    3   16 1   
     9    4    5 1   
    10    4    9 1   
    11    4   36 1   
    12    5    6 1   
    13    5   39 1   
    14    6    7 1   
    15    6   23 1   
    16    7    8 1   
    17    7   22 1   
    18    8   24 1   
    19    8   38 1   
    20   10   11 1   
    21   10   15 1   
    22   10   38 1   
    23   11   12 1   
    24   11   25 1   
    25   12   13 1   
    26   12   26 1   
    27   13   14 1   
    28   14   15 1   
    29   14   27 1   
    30   14   29 1   
    31   15   28 1   
    32   16   17 1   
    33   16   30 1   
    34   16   31 1   
    35   17   32 1   
    36   17   33 1   
    37   18   34 1   
    38   18   35 1   
    39   18   37 1   
@<TRIPOS>SUBSTRUCTURE
     1 DP8         1 TEMP              0 ****  ****    0 ROOT
