@<TRIPOS>MOLECULE
DP9
   45    45     1     0     0
SMALL
bcc


@<TRIPOS>ATOM
      1 NH2         0.1890   -1.2620   -0.2620 n2        1 DP9     -0.797100
      2 CZ          1.2640   -0.5540   -0.1360 c2        1 DP9      0.755100
      3 NH1         1.8210   -0.0710    1.1420 nh        1 DP9     -0.812500
      4 NO          1.0000    0.4770    2.1140 no        1 DP9      0.444500
      5 O2         -0.1440    0.1170    2.2020 o         1 DP9     -0.202000
      6 O3          1.5190    1.2420    2.8840 o         1 DP9     -0.202000
      7 NE          2.0830   -0.1570   -1.2520 nh        1 DP9     -0.795200
      8 CD          1.5000   -0.3330   -2.5710 c3        1 DP9      0.177800
      9 CG          2.4580    0.1090   -3.6790 c3        1 DP9     -0.083400
     10 CB          1.7530    0.0230   -5.0160 c3        1 DP9     -0.074400
     11 CA          2.7280    0.2320   -6.1840 c3        1 DP9      0.108500
     12 N           3.4230    1.4980   -6.1210 n3        1 DP9     -0.885800
     13 C           1.9250    0.0400   -7.4980 c         1 DP9      0.612100
     14 O           1.6230    1.0180   -8.2110 o         1 DP9     -0.611100
     15 N2'         1.5930   -1.2490   -7.8570 n         1 DP9     -0.565900
     16 CG'         0.7960   -1.5560   -9.0160 c3        1 DP9      0.070700
     17 CD'         1.5710   -2.3820  -10.0960 c3        1 DP9      0.130800
     18 N'          1.0580   -3.7430  -10.1220 n3        1 DP9     -0.811200
     19 CA'        -0.2480   -3.7580   -9.4570 c3        1 DP9      0.092500
     20 C'         -1.4270   -3.9980  -10.4190 c         1 DP9      0.658100
     21 O'         -2.5720   -3.6100  -10.1070 o         1 DP9     -0.626100
     22 N1'        -1.2330   -4.7180  -11.5670 n         1 DP9     -0.651000
     23 CB'        -0.4480   -2.4210   -8.7090 c3        1 DP9     -0.113400
     24 HH2        -0.3860   -1.4080    0.5390 hn        1 DP9      0.445400
     25 HH1         2.6900    0.4420    1.0750 hn        1 DP9      0.451800
     26 HNE         3.0000   -0.5610   -1.1930 hn        1 DP9      0.394800
     27 HD1         0.5640    0.2940   -2.6150 h1        1 DP9      0.055700
     28 HD2         1.2000   -1.4050   -2.7630 h1        1 DP9      0.055700
     29 HG1         3.3680   -0.5460   -3.6870 hc        1 DP9      0.059700
     30 HG2         2.8040    1.1610   -3.4970 hc        1 DP9      0.059700
     31 HB1         0.9330    0.7880   -5.0630 hc        1 DP9      0.053200
     32 HB2         1.2780   -0.9870   -5.1250 hc        1 DP9      0.053200
     33 HA          3.5240   -0.5710   -6.1360 h1        1 DP9      0.070700
     34 HN1         3.9680    1.6320   -6.9520 hn        1 DP9      0.363800
     35 HN2         2.7690    2.2550   -6.0440 hn        1 DP9      0.363800
     36 H2'         1.8030   -1.9910   -7.2350 hn        1 DP9      0.305500
     37 HG'         0.4730   -0.5770   -9.4780 h1        1 DP9      0.105700
     38 HD'1        2.6800   -2.3670   -9.9330 h1        1 DP9      0.063700
     39 HD'2        1.3610   -1.9210  -11.1010 h1        1 DP9      0.063700
     40 HN'         1.6850   -4.3700   -9.6550 hn        1 DP9      0.359800
     41 HA'        -0.3060   -4.6150   -8.7230 h1        1 DP9      0.069700
     42 H1'1       -1.9950   -4.8300  -12.1910 hn        1 DP9      0.315000
     43 H1'2       -0.3240   -4.9140  -11.9000 hn        1 DP9      0.315000
     44 HB'1       -0.5810   -2.6160   -7.6170 hc        1 DP9      0.077700
     45 HB'2       -1.3710   -1.9000   -9.0690 hc        1 DP9      0.077700
@<TRIPOS>BOND
     1    1    2 2   
     2    1   24 1   
     3    2    3 1   
     4    2    7 1   
     5    3    4 1   
     6    3   25 1   
     7    4    5 1   
     8    4    6 1   
     9    7    8 1   
    10    7   26 1   
    11    8    9 1   
    12    8   27 1   
    13    8   28 1   
    14    9   10 1   
    15    9   29 1   
    16    9   30 1   
    17   10   11 1   
    18   10   31 1   
    19   10   32 1   
    20   11   12 1   
    21   11   13 1   
    22   11   33 1   
    23   12   34 1   
    24   12   35 1   
    25   13   14 2   
    26   13   15 1   
    27   15   16 1   
    28   15   36 1   
    29   16   17 1   
    30   16   23 1   
    31   16   37 1   
    32   17   18 1   
    33   17   38 1   
    34   17   39 1   
    35   18   19 1   
    36   18   40 1   
    37   19   20 1   
    38   19   23 1   
    39   19   41 1   
    40   20   21 2   
    41   20   22 1   
    42   22   42 1   
    43   22   43 1   
    44   23   44 1   
    45   23   45 1   
@<TRIPOS>SUBSTRUCTURE
     1 DP9         1 TEMP              0 ****  ****    0 ROOT
