@<TRIPOS>MOLECULE
DP9
   45    45     1     0     0
SMALL
bcc


@<TRIPOS>ATOM
      1 NH2        -4.6270   -1.9190   -0.1400 n2        1 DP9     -0.797100
      2 CZ         -5.0380   -0.7560    0.2500 c2        1 DP9      0.755100
      3 NH1        -6.4470   -0.3840    0.4790 nh        1 DP9     -0.812500
      4 NO         -7.4360   -0.7530   -0.4190 no        1 DP9      0.445500
      5 O2         -7.3110   -1.7600   -1.0650 o         1 DP9     -0.202000
      6 O3         -8.4240   -0.0660   -0.4400 o         1 DP9     -0.202000
      7 NE         -4.1500    0.3410    0.5360 nh        1 DP9     -0.795200
      8 CD         -2.7760    0.1870    0.0890 c3        1 DP9      0.177800
      9 CG         -1.9210    1.4030    0.4550 c3        1 DP9     -0.083400
     10 CB         -0.5410    1.2430   -0.1440 c3        1 DP9     -0.074400
     11 CA          0.4290    2.3140    0.3770 c3        1 DP9      0.108500
     12 N          -0.0230    3.6620    0.1150 n3        1 DP9     -0.885800
     13 C           1.8260    2.0090   -0.2270 c         1 DP9      0.612100
     14 O           2.2960    2.7200   -1.1380 o         1 DP9     -0.611100
     15 N2'         2.5300    0.9510    0.3040 n         1 DP9     -0.565900
     16 CG'         3.8060    0.5250   -0.2110 c3        1 DP9      0.070700
     17 CD'         4.9730    0.6900    0.8180 c3        1 DP9      0.130800
     18 N'          5.3940   -0.6220    1.2850 n3        1 DP9     -0.811200
     19 CA'         4.8940   -1.6290    0.3450 c3        1 DP9      0.092500
     20 C'          6.0040   -2.2980   -0.4900 c         1 DP9      0.658100
     21 O'          5.7240   -2.8170   -1.5910 o         1 DP9     -0.626100
     22 N1'         7.2690   -2.4040    0.0210 n         1 DP9     -0.651000
     23 CB'         3.8590   -0.9730   -0.5940 c3        1 DP9     -0.113400
     24 HH2        -5.3020   -2.5960   -0.4240 hn        1 DP9      0.445400
     25 HH1        -6.6030    0.5560    0.8180 hn        1 DP9      0.451800
     26 HNE        -4.2000    0.6070    1.5030 hn        1 DP9      0.394800
     27 HD1        -2.7960    0.0680   -1.0310 h1        1 DP9      0.055700
     28 HD2        -2.2900   -0.7360    0.5210 h1        1 DP9      0.055700
     29 HG1        -1.8430    1.4980    1.5690 hc        1 DP9      0.059700
     30 HG2        -2.3980    2.3430    0.0710 hc        1 DP9      0.059700
     31 HB1        -0.6030    1.2980   -1.2630 hc        1 DP9      0.053200
     32 HB2        -0.1310    0.2330    0.1210 hc        1 DP9      0.053200
     33 HA          0.5030    2.2160    1.5030 h1        1 DP9      0.070700
     34 HN1         0.6860    4.3190    0.3810 hn        1 DP9      0.363800
     35 HN2        -0.2200    3.7840   -0.8600 hn        1 DP9      0.363800
     36 H2'         2.0970    0.3780    0.9870 hn        1 DP9      0.305500
     37 HG'         4.0370    1.1570   -1.1180 h1        1 DP9      0.105700
     38 HD'1        5.8450    1.1560    0.2820 h1        1 DP9      0.063700
     39 HD'2        4.6970    1.3570    1.6760 h1        1 DP9      0.063700
     40 HN'         5.0380   -0.8060    2.2030 hn        1 DP9      0.359800
     41 HA'         4.4100   -2.4840    0.9040 h1        1 DP9      0.069700
     42 H1'1        7.5440   -1.8880    0.8170 hn        1 DP9      0.315000
     43 H1'2        7.9770   -2.8050   -0.5460 hn        1 DP9      0.315000
     44 HB'1        2.8710   -1.4830   -0.4830 hc        1 DP9      0.077700
     45 HB'2        4.1700   -1.0790   -1.6640 hc        1 DP9      0.077700
@<TRIPOS>BOND
     1    1    2 2   
     2    1   24 1   
     3    2    3 1   
     4    2    7 1   
     5    3    4 1   
     6    3   25 1   
     7    4    5 1   
     8    4    6 1   
     9    7    8 1   
    10    7   26 1   
    11    8    9 1   
    12    8   27 1   
    13    8   28 1   
    14    9   10 1   
    15    9   29 1   
    16    9   30 1   
    17   10   11 1   
    18   10   31 1   
    19   10   32 1   
    20   11   12 1   
    21   11   13 1   
    22   11   33 1   
    23   12   34 1   
    24   12   35 1   
    25   13   14 2   
    26   13   15 1   
    27   15   16 1   
    28   15   36 1   
    29   16   17 1   
    30   16   23 1   
    31   16   37 1   
    32   17   18 1   
    33   17   38 1   
    34   17   39 1   
    35   18   19 1   
    36   18   40 1   
    37   19   20 1   
    38   19   23 1   
    39   19   41 1   
    40   20   21 2   
    41   20   22 1   
    42   22   42 1   
    43   22   43 1   
    44   23   44 1   
    45   23   45 1   
@<TRIPOS>SUBSTRUCTURE
     1 DP9         1 TEMP              0 ****  ****    0 ROOT
