@<TRIPOS>MOLECULE
DPA
   34    29     1     0     0
SMALL
bcc


@<TRIPOS>ATOM
      1 C1         -2.3390    0.5720    1.5700 c1        1 DPA      0.222000
      2 C2         -0.8390    0.4620    1.4460 c1        1 DPA     -0.222000
      3 C3         -0.0250    0.6060    2.5890 c2        1 DPA     -0.068000
      4 C4          1.3790    0.6120    2.4600 c1        1 DPA     -0.018000
      5 C5          1.9480    0.4790    1.2300 c1        1 DPA      0.043500
      6 C6          1.1350    0.3350    0.0880 c1        1 DPA     -0.205500
      7 C7         -0.2710    0.3290    0.2200 c1        1 DPA      0.129000
      8 C8         -1.2080   -0.0930   -2.0330 c1        1 DPA      0.360000
      9 C9         -2.1030   -0.8940   -2.9840 c1        1 DPA      0.043500
     10 C10        -3.3550   -0.4080   -3.3300 c1        1 DPA     -0.205500
     11 C11         2.1420   -0.1820    4.5520 c3        1 DPA     -0.073000
     12 C12         3.8670    1.7990    0.9330 c3        1 DPA     -0.073500
     13 C13        -1.7710   -2.2220   -4.9620 c3        1 DPA     -0.073500
     14 N7         -1.1480   -0.4260   -0.6750 n3        1 DPA     -0.316000
     15 O1         -2.8460    0.7860    2.6560 o         1 DPA     -0.289000
     16 O4          2.2070    0.8290    3.6140 os        1 DPA     -0.224000
     17 O5          3.3280    0.5040    1.1020 os        1 DPA     -0.227500
     18 O8         -0.5060    0.8560   -2.4810 o         1 DPA     -0.335000
     19 O9         -1.6550   -2.1180   -3.5060 os        1 DPA     -0.227500
     20 H1         -2.8500    0.5500    0.8350 ha        1 DPA      0.091000
     21 H3         -0.4180    0.6980    3.4360 ha        1 DPA      0.163000
     22 H6          1.5330    0.2420   -0.7730 ha        1 DPA      0.159500
     23 H101       -3.6600    0.4290   -2.9730 DU        1 DPA      0.157000
     24 H102       -3.9550   -0.9430   -3.9690 ha        1 DPA      0.159500
     25 H111        1.2260   -0.2050    4.9520 h1        1 DPA      0.082667
     26 H112        2.8130   -0.0120    5.2640 h1        1 DPA      0.082667
     27 H113        2.3180   -0.9770    4.1570 h1        1 DPA      0.082667
     28 H121        4.4710    1.7940    0.2210 h1        1 DPA      0.088667
     29 H122        3.1920    2.3930    0.7550 h1        1 DPA      0.088667
     30 H123        4.3690    2.0900    1.8200 h1        1 DPA      0.088667
     31 H131       -1.3630   -1.4380   -5.3800 h1        1 DPA      0.088667
     32 H132       -1.3210   -3.0170   -5.2610 h1        1 DPA      0.088667
     33 H133       -2.7010   -2.2680   -5.2080 h1        1 DPA      0.088667
     34 HN7        -1.5950   -1.1630   -0.3640 hn        1 DPA      0.250000
@<TRIPOS>BOND
     1    1   15 1   
     2    1   20 1   
     3    2    3 1   
     4    2    7 1   
     5    3    4 1   
     6    3   21 1   
     7    4   16 1   
     8    5    6 1   
     9    5   17 1   
    10    6   22 1   
    11    7   14 1   
    12    8   14 1   
    13    8   18 1   
    14    9   10 1   
    15    9   19 1   
    16   10   24 1   
    17   11   16 1   
    18   11   25 1   
    19   11   26 1   
    20   11   27 1   
    21   12   17 1   
    22   12   28 1   
    23   12   29 1   
    24   12   30 1   
    25   13   19 1   
    26   13   31 1   
    27   13   32 1   
    28   13   33 1   
    29   14   34 1   
@<TRIPOS>SUBSTRUCTURE
     1 DPA         1 TEMP              0 ****  ****    0 ROOT
