@<TRIPOS>MOLECULE
DPA
   34    34     1     0     0
SMALL
bcc


@<TRIPOS>ATOM
      1 C1          0.0940    0.8940   -0.3190 c         1 DPA      0.577500
      2 C2          1.5220    0.5520   -0.2590 ca        1 DPA     -0.245600
      3 C3          2.1240    0.5390    1.0110 ca        1 DPA     -0.109000
      4 C4          3.4480    0.1600    1.1750 ca        1 DPA      0.066100
      5 C5          4.2090   -0.2130    0.0320 ca        1 DPA      0.161100
      6 C6          3.6360   -0.1720   -1.2350 ca        1 DPA     -0.227000
      7 C7          2.2860    0.2170   -1.4030 ca        1 DPA      0.124600
      8 C8          2.1290   -0.3420   -3.8290 c         1 DPA      0.687300
      9 C9          1.3330   -0.1140   -5.0870 ce        1 DPA      0.007900
     10 C10         1.8410   -0.4230   -6.2870 c2        1 DPA     -0.238000
     11 C11         3.3700    0.5050    3.5230 c3        1 DPA      0.108700
     12 C12         6.2730   -1.0240   -0.8330 c3        1 DPA      0.106700
     13 C13        -0.7330    0.6330   -6.0010 c3        1 DPA      0.116700
     14 N7          1.7190    0.3230   -2.6830 n         1 DPA     -0.459100
     15 O1         -0.4970    1.4930    0.5850 o         1 DPA     -0.535100
     16 O4          4.1190    0.1040    2.3810 os        1 DPA     -0.302900
     17 O5          5.5080   -0.5850    0.2870 os        1 DPA     -0.299900
     18 O8          3.1280   -1.0850   -3.8710 o         1 DPA     -0.585100
     19 O9          0.0760    0.4170   -4.8500 os        1 DPA     -0.349900
     20 H1         -0.4680    0.5530   -1.2190 h4        1 DPA     -0.006800
     21 H3          1.5080    0.8380    1.8760 ha        1 DPA      0.163000
     22 H6          4.2390   -0.4510   -2.1150 ha        1 DPA      0.179000
     23 H101        2.8490   -0.8540   -6.3720 ha        1 DPA      0.143000
     24 H102        1.2970   -0.2770   -7.2270 ha        1 DPA      0.143000
     25 H111        4.1030    0.3970    4.3620 h1        1 DPA      0.046033
     26 H112        2.4920   -0.1690    3.6770 h1        1 DPA      0.046033
     27 H113        3.0360    1.5670    3.4260 h1        1 DPA      0.046033
     28 H121        7.2530   -1.3100   -0.3740 h1        1 DPA      0.050367
     29 H122        5.7910   -1.9050   -1.3220 h1        1 DPA      0.050367
     30 H123        6.4080   -0.1910   -1.5660 h1        1 DPA      0.050367
     31 H131       -0.9220   -0.3310   -6.5330 h1        1 DPA      0.048700
     32 H132       -0.2490    1.3710   -6.6860 h1        1 DPA      0.048700
     33 H133       -1.6830    1.0470   -5.5770 h1        1 DPA      0.048700
     34 HN7         0.8740    0.8490   -2.7530 hn        1 DPA      0.336500
@<TRIPOS>BOND
     1    1    2 1   
     2    1   15 2   
     3    1   20 1   
     4    2    3 ar  
     5    2    7 ar  
     6    3    4 ar  
     7    3   21 1   
     8    4    5 ar  
     9    4   16 1   
    10    5    6 ar  
    11    5   17 1   
    12    6    7 ar  
    13    6   22 1   
    14    7   14 1   
    15    8    9 1   
    16    8   14 1   
    17    8   18 2   
    18    9   10 2   
    19    9   19 1   
    20   10   23 1   
    21   10   24 1   
    22   11   16 1   
    23   11   25 1   
    24   11   26 1   
    25   11   27 1   
    26   12   17 1   
    27   12   28 1   
    28   12   29 1   
    29   12   30 1   
    30   13   19 1   
    31   13   31 1   
    32   13   32 1   
    33   13   33 1   
    34   14   34 1   
@<TRIPOS>SUBSTRUCTURE
     1 DPA         1 TEMP              0 ****  ****    0 ROOT
