@<TRIPOS>MOLECULE
DPA
   34    34     1     0     0
SMALL
bcc


@<TRIPOS>ATOM
      1 C1          0.1150    0.9540   -0.3190 c         1 DPA      0.577500
      2 C2          1.5350    0.5750   -0.2590 ca        1 DPA     -0.245600
      3 C3          2.1370    0.5490    1.0110 ca        1 DPA     -0.109000
      4 C4          3.4510    0.1360    1.1750 ca        1 DPA      0.066100
      5 C5          4.2020   -0.2570    0.0320 ca        1 DPA      0.161100
      6 C6          3.6290   -0.2030   -1.2350 ca        1 DPA     -0.227000
      7 C7          2.2890    0.2200   -1.4030 ca        1 DPA      0.125600
      8 C8          2.1180   -0.3370   -3.8290 c         1 DPA      0.687300
      9 C9          1.3270   -0.0890   -5.0870 ce        1 DPA      0.007900
     10 C10         1.8270   -0.4100   -6.2870 c2        1 DPA     -0.238000
     11 C11         3.3820    0.4860    3.5220 c3        1 DPA      0.108700
     12 C12         6.2440   -1.1200   -0.8340 c3        1 DPA      0.106700
     13 C13        -0.7210    0.7070   -6.0000 c3        1 DPA      0.116700
     14 N7          1.7240    0.3390   -2.6830 ns        1 DPA     -0.459100
     15 O1         -0.4590    1.5680    0.5850 o         1 DPA     -0.535100
     16 O4          4.1200    0.0640    2.3810 os        1 DPA     -0.302900
     17 O5          5.4910   -0.6610    0.2860 os        1 DPA     -0.299900
     18 O8          3.0980   -1.1040   -3.8700 o         1 DPA     -0.585100
     19 O9          0.0840    0.4720   -4.8490 os        1 DPA     -0.349900
     20 H1         -0.4550    0.6270   -1.2190 h4        1 DPA     -0.006800
     21 H3          1.5290    0.8630    1.8750 ha        1 DPA      0.163000
     22 H6          4.2240   -0.4970   -2.1150 ha        1 DPA      0.179000
     23 H101        2.8240   -0.8650   -6.3720 ha        1 DPA      0.143000
     24 H102        1.2860   -0.2510   -7.2270 ha        1 DPA      0.143000
     25 H111        4.1130    0.3590    4.3610 h1        1 DPA      0.046033
     26 H112        3.0750    1.5550    3.4240 h1        1 DPA      0.046033
     27 H113        2.4880   -0.1660    3.6770 h1        1 DPA      0.046033
     28 H121        5.7400   -1.9890   -1.3220 h1        1 DPA      0.050367
     29 H122        7.2170   -1.4310   -0.3750 h1        1 DPA      0.050367
     30 H123        6.4000   -0.2920   -1.5670 h1        1 DPA      0.050367
     31 H131       -0.2200    1.4330   -6.6860 h1        1 DPA      0.048700
     32 H132       -1.6610    1.1430   -5.5760 h1        1 DPA      0.048700
     33 H133       -0.9330   -0.2530   -6.5320 h1        1 DPA      0.048700
     34 HN7         0.8930    0.8870   -2.7530 hn        1 DPA      0.336500
@<TRIPOS>BOND
     1    1    2 1   
     2    1   15 2   
     3    1   20 1   
     4    2    3 ar  
     5    2    7 ar  
     6    3    4 ar  
     7    3   21 1   
     8    4    5 ar  
     9    4   16 1   
    10    5    6 ar  
    11    5   17 1   
    12    6    7 ar  
    13    6   22 1   
    14    7   14 1   
    15    8    9 1   
    16    8   14 1   
    17    8   18 2   
    18    9   10 2   
    19    9   19 1   
    20   10   23 1   
    21   10   24 1   
    22   11   16 1   
    23   11   25 1   
    24   11   26 1   
    25   11   27 1   
    26   12   17 1   
    27   12   28 1   
    28   12   29 1   
    29   12   30 1   
    30   13   19 1   
    31   13   31 1   
    32   13   32 1   
    33   13   33 1   
    34   14   34 1   
@<TRIPOS>SUBSTRUCTURE
     1 DPA         1 TEMP              0 ****  ****    0 ROOT
