@<TRIPOS>MOLECULE
DPA
   34    34     1     0     0
SMALL
bcc


@<TRIPOS>ATOM
      1 C1         -2.5450   -0.9400   -0.3630 c         1 DPA      0.577500
      2 C2         -1.2150   -0.5310   -0.8350 ca        1 DPA     -0.245600
      3 C3         -0.9810   -0.5860   -2.2200 ca        1 DPA     -0.109000
      4 C4          0.2190   -0.1530   -2.7640 ca        1 DPA      0.066100
      5 C5          1.2330    0.3450   -1.8990 ca        1 DPA      0.161100
      6 C6          1.0280    0.3740   -0.5230 ca        1 DPA     -0.227000
      7 C7         -0.1950   -0.0690    0.0330 ca        1 DPA      0.125600
      8 C8          0.2720    0.6670    2.3690 c         1 DPA      0.687300
      9 C9         -0.1360    0.4970    3.8090 ce        1 DPA      0.007900
     10 C10         0.6560    0.9210    4.8030 c2        1 DPA     -0.238000
     11 C11        -0.4670   -0.6840   -4.9750 c3        1 DPA      0.108700
     12 C12         3.3920    1.3250   -1.6850 c3        1 DPA      0.106700
     13 C13        -1.8230   -0.2770    5.2990 c3        1 DPA      0.116700
     14 N7         -0.3860   -0.1040    1.4240 n         1 DPA     -0.459100
     15 O1         -3.3150   -1.6360   -1.0320 o         1 DPA     -0.535100
     16 O4          0.5330   -0.1570   -4.1090 os        1 DPA     -0.302900
     17 O5          2.3850    0.7620   -2.5230 os        1 DPA     -0.299900
     18 O8          1.1900    1.4600    2.0900 o         1 DPA     -0.585100
     19 O9         -1.3710   -0.1110    3.9590 os        1 DPA     -0.349900
     20 H1         -2.8650   -0.5590    0.6340 h4        1 DPA     -0.006800
     21 H3         -1.7860   -0.9820   -2.8620 ha        1 DPA      0.163000
     22 H6          1.8260    0.7500    0.1390 ha        1 DPA      0.179000
     23 H101        1.6170    1.4050    4.5820 ha        1 DPA      0.143000
     24 H102        0.3980    0.8210    5.8630 ha        1 DPA      0.143000
     25 H111        0.0030   -0.6040   -5.9880 h1        1 DPA      0.046033
     26 H112       -0.6860   -1.7510   -4.7240 h1        1 DPA      0.046033
     27 H113       -1.3990   -0.0700   -4.9220 h1        1 DPA      0.046033
     28 H121        4.1890    1.6240   -2.4120 h1        1 DPA      0.050367
     29 H122        3.0000    2.2150   -1.1370 h1        1 DPA      0.050367
     30 H123        3.7780    0.5600   -0.9690 h1        1 DPA      0.050367
     31 H131       -2.8220   -0.7660    5.1780 h1        1 DPA      0.048700
     32 H132       -1.1230   -0.9360    5.8690 h1        1 DPA      0.048700
     33 H133       -1.9250    0.7150    5.8030 h1        1 DPA      0.048700
     34 HN7        -1.1410   -0.6660    1.7550 hn        1 DPA      0.336500
@<TRIPOS>BOND
     1    1    2 1   
     2    1   15 2   
     3    1   20 1   
     4    2    3 ar  
     5    2    7 ar  
     6    3    4 ar  
     7    3   21 1   
     8    4    5 ar  
     9    4   16 1   
    10    5    6 ar  
    11    5   17 1   
    12    6    7 ar  
    13    6   22 1   
    14    7   14 1   
    15    8    9 1   
    16    8   14 1   
    17    8   18 2   
    18    9   10 2   
    19    9   19 1   
    20   10   23 1   
    21   10   24 1   
    22   11   16 1   
    23   11   25 1   
    24   11   26 1   
    25   11   27 1   
    26   12   17 1   
    27   12   28 1   
    28   12   29 1   
    29   12   30 1   
    30   13   19 1   
    31   13   31 1   
    32   13   32 1   
    33   13   33 1   
    34   14   34 1   
@<TRIPOS>SUBSTRUCTURE
     1 DPA         1 TEMP              0 ****  ****    0 ROOT
