@<TRIPOS>MOLECULE
DPA
   35    35     1     0     0
SMALL
bcc


@<TRIPOS>ATOM
      1 C1         -0.2090   -0.7530    0.3350 c         1 DPA      0.538500
      2 C2          1.2150   -0.5060   -0.0040 ca        1 DPA     -0.132600
      3 C3          2.0730   -0.1040    1.0280 ca        1 DPA     -0.150000
      4 C4          3.4110    0.1930    0.7740 ca        1 DPA      0.169100
      5 C5          3.9170    0.0790   -0.5610 ca        1 DPA      0.144100
      6 C6          3.0780   -0.3380   -1.5880 ca        1 DPA     -0.180000
      7 C7          1.7270   -0.6360   -1.3030 ca        1 DPA     -0.040400
      8 C8          0.2150    0.0120   -3.1460 c         1 DPA      0.570300
      9 C9          0.8930    0.5300   -4.3500 ce        1 DPA     -0.028100
     10 C10         0.4480    1.6400   -4.9620 c2        1 DPA     -0.128000
     11 C11         3.8600    0.6940    3.0580 c3        1 DPA      0.098700
     12 C12         5.8010    0.2570   -2.0100 c3        1 DPA      0.101700
     13 C13         2.4970    0.0140   -6.0370 c3        1 DPA      0.115700
     14 N7          0.8840   -1.1250   -2.3990 n4        1 DPA     -0.526200
     15 O1         -0.5520   -1.2700    1.3950 o         1 DPA     -0.449100
     16 O4          4.3210    0.5960    1.7060 os        1 DPA     -0.276900
     17 O5          5.2390    0.4040   -0.7070 os        1 DPA     -0.276900
     18 O8         -0.8530    0.3970   -2.6870 o         1 DPA     -0.425100
     19 O9          1.9880   -0.2350   -4.7220 os        1 DPA     -0.375900
     20 H1         -0.9510   -0.4040   -0.4200 h4        1 DPA      0.022200
     21 H3          1.6640   -0.0370    2.0520 ha        1 DPA      0.187000
     22 H6          3.4650   -0.4300   -2.6180 ha        1 DPA      0.168000
     23 H101       -0.4290    2.1920   -4.5870 ha        1 DPA      0.171000
     24 H102        0.9290    2.0500   -5.8630 ha        1 DPA      0.171000
     25 H111        4.7800    1.0230    3.6070 h1        1 DPA      0.067033
     26 H112        3.5100   -0.3010    3.4250 h1        1 DPA      0.067033
     27 H113        3.0520    1.4610    3.1390 h1        1 DPA      0.067033
     28 H121        6.8700    0.5590   -1.8550 h1        1 DPA      0.059700
     29 H122        5.7360   -0.8050   -2.3500 h1        1 DPA      0.059700
     30 H123        5.2970    0.9420   -2.7340 h1        1 DPA      0.059700
     31 H131        1.6840   -0.0790   -6.7970 h1        1 DPA      0.068367
     32 H132        3.2650   -0.7900   -6.1680 h1        1 DPA      0.068367
     33 H133        2.9680    1.0260   -6.0750 h1        1 DPA      0.068367
     34 HN7         1.4730   -1.6550   -3.0580 hn        1 DPA      0.472300
     35 H72         0.1610   -1.7460   -2.0130 hn        1 DPA      0.472300
@<TRIPOS>BOND
     1    1    2 1   
     2    1   15 2   
     3    1   20 1   
     4    2    3 ar  
     5    2    7 ar  
     6    3    4 ar  
     7    3   21 1   
     8    4    5 ar  
     9    4   16 1   
    10    5    6 ar  
    11    5   17 1   
    12    6    7 ar  
    13    6   22 1   
    14    7   14 1   
    15    8    9 1   
    16    8   14 1   
    17    8   18 2   
    18    9   10 2   
    19    9   19 1   
    20   10   23 1   
    21   10   24 1   
    22   11   16 1   
    23   11   25 1   
    24   11   26 1   
    25   11   27 1   
    26   12   17 1   
    27   12   28 1   
    28   12   29 1   
    29   12   30 1   
    30   13   19 1   
    31   13   31 1   
    32   13   32 1   
    33   13   33 1   
    34   14   34 1   
    35   14   35 1   
@<TRIPOS>SUBSTRUCTURE
     1 DPA         1 TEMP              0 ****  ****    0 ROOT
