@<TRIPOS>MOLECULE
DPB
   45    47     1     0     0
SMALL
bcc


@<TRIPOS>ATOM
      1 C11         0.2020   -3.3110   -1.1810 ca        1 DPB     -0.090500
      2 C12        -0.4040   -2.0740   -1.2900 ca        1 DPB     -0.247000
      3 C7         -0.8970   -1.3950   -0.1370 ca        1 DPB      0.094000
      4 C8         -0.7280   -2.0470    1.1210 ca        1 DPB     -0.247000
      5 C9         -0.1120   -3.2810    1.2050 ca        1 DPB     -0.090500
      6 C10         0.3710   -3.9280    0.0620 ca        1 DPB     -0.300000
      7 C2          3.7090    2.0350    0.8250 c2        1 DPB      0.393000
      8 N1          2.4320    1.4520    0.6460 n         1 DPB     -0.254000
      9 C6          2.3030    0.3340   -0.1610 c2        1 DPB      0.071000
     10 C5          3.3710   -0.2680   -0.7700 c2        1 DPB     -0.265000
     11 C4          4.7150    0.2910   -0.6110 c2        1 DPB      0.359000
     12 N3          4.8180    1.4300    0.2070 n         1 DPB     -0.375000
     13 O4          5.7640   -0.1480   -1.1260 o         1 DPB     -0.394000
     14 C5M         3.2270   -1.4790   -1.6000 c3        1 DPB     -0.155000
     15 C1'         1.2540    2.2080    1.1090 c3        1 DPB      0.146000
     16 O4'         0.6520    2.9080    0.0180 os        1 DPB     -0.303000
     17 C4'        -0.6930    2.4330   -0.2190 c3        1 DPB     -0.018000
     18 C3'        -1.1330    1.7010    1.0630 c3        1 DPB      0.013000
     19 C2'         0.1710    1.3440    1.7860 c3        1 DPB     -0.231000
     20 C5'        -0.7220    1.5760   -1.4830 c3        1 DPB     -0.039000
     21 O5'        -1.7120    0.5450   -1.4010 os        1 DPB     -0.187000
     22 C6'        -1.6170   -0.2020   -0.2480 c2        1 DPB     -0.277000
     23 O3'        -1.9820    0.5800    0.8270 os        1 DPB     -0.174000
     24 P          -4.0750    0.8020   -0.5830 p3        1 DPB      2.474000
     25 OP2        -3.5700    2.1930   -0.4350 o         1 DPB     -1.163667
     26 OP1        -4.7480    0.1650    0.5710 o         1 DPB     -1.163667
     27 OP3        -4.4060    0.3040   -1.9360 o         1 DPB     -1.163667
     28 H11         0.5610   -3.8220   -2.0880 ha        1 DPB      0.079500
     29 H12        -0.5610   -1.6020   -2.2690 ha        1 DPB      0.125000
     30 H8         -1.1420   -1.5590    2.0130 ha        1 DPB      0.125000
     31 H9          0.0010   -3.7660    2.1850 ha        1 DPB      0.079500
     32 H10         0.8590   -4.9040    0.1390 ha        1 DPB      0.083000
     33 H6          1.2650   -0.0690   -0.2710 h4        1 DPB      0.226000
     34 H3          5.7040    1.8600    0.3500 hn        1 DPB      0.242000
     35 H71         3.4640   -1.2420   -2.6680 hc        1 DPB      0.089333
     36 H72         3.9420   -2.2670   -1.2560 hc        1 DPB      0.089333
     37 H73         2.1830   -1.8860   -1.5420 hc        1 DPB      0.089333
     38 H1'         1.6460    3.0090    1.8050 h2        1 DPB      0.129000
     39 H4'        -1.3250    3.3500   -0.3690 h1        1 DPB      0.156000
     40 H3'        -1.7780    2.3760    1.6890 h1        1 DPB      0.129000
     41 H2'         0.3570    0.2430    1.7030 hc        1 DPB      0.108000
     42 H2''        0.1160    1.6070    2.8680 hc        1 DPB      0.108000
     43 H5'         0.2850    1.1240   -1.6790 h1        1 DPB      0.067500
     44 H5''       -1.0440    2.1900   -2.3630 h1        1 DPB      0.067500
     45 O2          3.9030    3.0430    1.5480 o         1 DPB     -0.408000
@<TRIPOS>BOND
     1    1    2 1   
     2    1    6 1   
     3    1   28 1   
     4    2    3 1   
     5    2   29 1   
     6    3    4 1   
     7    3   22 1   
     8    4    5 1   
     9    4   30 1   
    10    5    6 1   
    11    5   31 1   
    12    6   32 1   
    13    7    8 1   
    14    7   12 1   
    15    7   45 1   
    16    8    9 1   
    17    8   15 1   
    18    9   10 1   
    19    9   33 1   
    20   10   11 1   
    21   10   14 1   
    22   11   12 1   
    23   11   13 1   
    24   12   34 1   
    25   14   35 1   
    26   14   36 1   
    27   14   37 1   
    28   15   16 1   
    29   15   19 1   
    30   15   38 1   
    31   16   17 1   
    32   17   18 1   
    33   17   20 1   
    34   17   39 1   
    35   18   19 1   
    36   18   23 1   
    37   18   40 1   
    38   19   41 1   
    39   19   42 1   
    40   20   21 1   
    41   20   43 1   
    42   20   44 1   
    43   21   22 1   
    44   22   23 1   
    45   24   25 1   
    46   24   26 1   
    47   24   27 1   
@<TRIPOS>SUBSTRUCTURE
     1 DPB         1 TEMP              0 ****  ****    0 ROOT
