@<TRIPOS>MOLECULE
DPB
   45    43     1     0     0
SMALL
bcc


@<TRIPOS>ATOM
      1 C11        -2.1840    2.0650   -0.6520 c1        1 DPB     -0.181000
      2 C12        -0.7880    2.0540   -0.6380 c1        1 DPB     -0.251000
      3 C7         -0.0990    1.9630    0.5780 c1        1 DPB      0.094000
      4 C8         -0.8050    1.8830    1.7650 c1        1 DPB     -0.181000
      5 C9         -2.2040    1.8940    1.7480 c1        1 DPB     -0.181000
      6 C10        -2.8880    1.9850    0.5330 c1        1 DPB     -0.181000
      7 C2         -1.3250   -1.9390    0.6720 c1        1 DPB      0.376000
      8 N1          0.0640   -1.9750    0.1600 n2        1 DPB     -0.254000
      9 C6          0.3100   -2.3010   -1.1960 c2        1 DPB      0.071000
     10 C5         -0.8200   -2.7090   -2.0760 c1        1 DPB     -0.265000
     11 C4         -2.2020   -2.7150   -1.5430 c1        1 DPB      0.376000
     12 N3         -2.4390   -2.3840   -0.1810 n3        1 DPB     -0.375000
     13 O2         -1.5390   -1.5810    1.8030 o         1 DPB     -0.401000
     14 O4         -3.1270   -3.0530   -2.2550 o         1 DPB     -0.401000
     15 C5M        -0.5440   -3.2580   -3.4330 c3        1 DPB     -0.155000
     16 C1'         1.0690   -1.8000    0.9890 c3        1 DPB      0.146000
     17 O4'         2.4070   -1.6470    0.2100 os        1 DPB     -0.303000
     18 C4'         2.6910   -0.4000    0.3080 c3        1 DPB     -0.018000
     19 C3'         2.0420    0.0780    1.6670 c3        1 DPB      0.013000
     20 C2'         0.8950   -0.5040    1.7560 c3        1 DPB     -0.231000
     21 C5'         2.0830    0.2350   -0.8580 c3        1 DPB     -0.039000
     22 O5'         2.0110    1.6930   -0.7470 os        1 DPB     -0.187000
     23 C6'         1.3020    2.1980    0.6060 c3        1 DPB     -0.277000
     24 O3'         1.9540    1.5460    1.7780 os        1 DPB     -0.174000
     25 P           1.3500    3.9680    0.7460 p5        1 DPB      1.515500
     26 OP2         2.6570    4.4810    0.1930 o         1 DPB     -0.844167
     27 OP1         1.2270    4.3630    2.2100 o         1 DPB     -0.844167
     28 OP3         0.2150    4.5620   -0.0270 o         1 DPB     -0.844167
     29 H11        -2.6700    2.1160   -1.5150 ha        1 DPB      0.091500
     30 H12        -0.2890    2.1110   -1.4820 ha        1 DPB      0.126000
     31 H8         -0.3290    1.8190    2.6120 ha        1 DPB      0.091500
     32 H9         -2.7000    1.8840    2.5860 ha        1 DPB      0.091500
     33 H10        -3.8730    1.9930    0.5210 ha        1 DPB      0.091500
     34 H6          1.2210   -2.3250   -1.5320 h4        1 DPB      0.226000
     35 H3         -3.2880   -2.3610    0.1380 hn        1 DPB      0.242000
     36 H71        -1.3340   -3.1210   -4.0100 hc        1 DPB      0.089333
     37 H72         0.2210   -2.8010   -3.8170 hc        1 DPB      0.089333
     38 H73        -0.3530   -4.2100   -3.3660 hc        1 DPB      0.089333
     39 H1'         1.1270   -2.5470    1.6050 h2        1 DPB      0.129000
     40 H4'         3.6730   -0.2610    0.3170 h1        1 DPB      0.156000
     41 H3'         2.6070   -0.2480    2.4050 h1        1 DPB      0.129000
     42 H2'         0.6770   -0.6880    2.6910 hc        1 DPB      0.108000
     43 H2''        0.2020    0.0450    1.3460 hc        1 DPB      0.108000
     44 H5'         2.6080    0.0060   -1.6480 h1        1 DPB      0.067500
     45 H5''        1.1870   -0.1120   -0.9680 h1        1 DPB      0.067500
@<TRIPOS>BOND
     1    1    6 1   
     2    1   29 1   
     3    2    3 1   
     4    2   30 1   
     5    3   23 1   
     6    4    5 1   
     7    4   31 1   
     8    5   32 1   
     9    6   33 1   
    10    7   12 1   
    11    7   13 1   
    12    8    9 1   
    13    8   16 1   
    14    9   10 1   
    15    9   34 1   
    16   10   15 1   
    17   11   12 1   
    18   11   14 1   
    19   12   35 1   
    20   15   36 1   
    21   15   37 1   
    22   15   38 1   
    23   16   17 1   
    24   16   20 1   
    25   16   39 1   
    26   17   18 1   
    27   18   19 1   
    28   18   21 1   
    29   18   40 1   
    30   19   20 1   
    31   19   24 1   
    32   19   41 1   
    33   20   42 1   
    34   20   43 1   
    35   21   22 1   
    36   21   44 1   
    37   21   45 1   
    38   22   23 1   
    39   23   24 1   
    40   23   25 1   
    41   25   26 1   
    42   25   27 1   
    43   25   28 1   
@<TRIPOS>SUBSTRUCTURE
     1 DPB         1 TEMP              0 ****  ****    0 ROOT
