@<TRIPOS>MOLECULE
DPC
   54    55     1     0     0
SMALL
bcc


@<TRIPOS>ATOM
      1 C1         -2.6170    1.0750   -3.1480 c         1 DPC      0.931800
      2 O1A        -3.2750    0.8450   -4.1920 o         1 DPC     -0.810800
      3 O1B        -2.9890    1.8010   -2.1840 o         1 DPC     -0.810800
      4 C2         -1.2100    0.4800   -3.0430 ce        1 DPC      0.019900
      5 C3         -0.3040    0.3760   -4.0270 c2        1 DPC     -0.272200
      6 C4          1.1330   -0.0010   -3.8060 c3        1 DPC      0.230700
      7 C5          1.3910   -0.4340   -2.3150 c3        1 DPC      0.067700
      8 N5          2.7920   -0.2930   -1.9540 n         1 DPC     -0.530900
      9 C10         3.6760   -1.3620   -2.0290 c         1 DPC      0.649100
     10 O10         3.4900   -2.3400   -2.7800 o         1 DPC     -0.609100
     11 C11         4.9450   -1.2520   -1.2130 c3        1 DPC     -0.180100
     12 C6          0.4710    0.4390   -1.4210 c3        1 DPC      0.064100
     13 O6         -0.8860    0.1260   -1.7360 os        1 DPC     -0.310900
     14 C7          0.6380    0.2150    0.0860 c         1 DPC      0.671100
     15 O7          1.5000   -0.5810    0.5270 o         1 DPC     -0.660100
     16 N8         -0.1120    0.9700    0.9680 n         1 DPC     -0.451800
     17 C81         0.0770    0.7860    2.3890 c3        1 DPC      0.099000
     18 C82        -0.8430   -0.2700    3.0190 c3        1 DPC     -0.067100
     19 CG         -0.5460   -0.4170    4.4690 ca        1 DPC     -0.065300
     20 CD1        -1.4280    0.0830    5.4330 ca        1 DPC     -0.128000
     21 CD2         0.6210   -1.0730    4.8830 ca        1 DPC     -0.128000
     22 CE1        -1.1470   -0.0690    6.7900 ca        1 DPC     -0.133500
     23 CE2         0.8990   -1.2230    6.2400 ca        1 DPC     -0.133500
     24 CZ          0.0170   -0.7220    7.1960 ca        1 DPC     -0.143000
     25 C9         -1.1700    1.8730    0.5650 c3        1 DPC      0.053000
     26 C91        -0.7290    3.3320    0.4180 c3        1 DPC     -0.083400
     27 C92        -1.8960    4.1560   -0.0640 c3        1 DPC     -0.108100
     28 NE          1.5540   -1.0440   -4.7260 n3        1 DPC     -0.915800
     29 H3         -0.6060    0.5870   -5.0620 ha        1 DPC      0.151000
     30 H4          1.7320    0.9550   -3.9760 h1        1 DPC     -0.002300
     31 H5          1.0740   -1.5130   -2.1950 h1        1 DPC      0.102700
     32 HN5         2.9460    0.3170   -1.1780 hn        1 DPC      0.294500
     33 H111        5.6110   -2.1120   -1.4630 hc        1 DPC      0.059367
     34 H112        5.4810   -0.2990   -1.4340 hc        1 DPC      0.059367
     35 H113        4.6950   -1.2880   -0.1250 hc        1 DPC      0.059367
     36 H6          0.6660    1.5300   -1.6360 h1        1 DPC      0.063700
     37 H811        1.1460    0.4800    2.5800 h1        1 DPC      0.052700
     38 H812       -0.1050    1.7760    2.8960 h1        1 DPC      0.052700
     39 H821       -1.9160    0.0210    2.8670 hc        1 DPC      0.065200
     40 H822       -0.6830   -1.2540    2.5010 hc        1 DPC      0.065200
     41 HD1        -2.3480    0.5970    5.1170 ha        1 DPC      0.138500
     42 HD2         1.3150   -1.4700    4.1260 ha        1 DPC      0.138500
     43 HE1        -1.8460    0.3260    7.5410 ha        1 DPC      0.123500
     44 HE2         1.8170   -1.7400    6.5560 ha        1 DPC      0.123500
     45 HZ          0.2370   -0.8410    8.2660 ha        1 DPC      0.121000
     46 H91        -1.9820    1.8250    1.3470 h1        1 DPC      0.097700
     47 H92        -1.6470    1.5450   -0.4150 h1        1 DPC      0.097700
     48 H911        0.1100    3.4020   -0.3230 hc        1 DPC      0.022700
     49 H912       -0.3470    3.7270    1.3940 hc        1 DPC      0.022700
     50 H921       -1.5620    5.1910   -0.3120 hc        1 DPC      0.046700
     51 H922       -2.3520    3.6870   -0.9770 hc        1 DPC      0.046700
     52 H923       -2.6840    4.2190    0.7250 hc        1 DPC      0.046700
     53 HNE1        1.5750   -0.6860   -5.6590 hn        1 DPC      0.354300
     54 HNE2        2.4500   -1.4120   -4.4760 hn        1 DPC      0.354300
@<TRIPOS>BOND
     1    1    2 1   
     2    1    3 1   
     3    1    4 1   
     4    4    5 2   
     5    4   13 1   
     6    5    6 1   
     7    5   29 1   
     8    6    7 1   
     9    6   28 1   
    10    6   30 1   
    11    7    8 1   
    12    7   12 1   
    13    7   31 1   
    14    8    9 1   
    15    8   32 1   
    16    9   10 2   
    17    9   11 1   
    18   11   33 1   
    19   11   34 1   
    20   11   35 1   
    21   12   13 1   
    22   12   14 1   
    23   12   36 1   
    24   14   15 2   
    25   14   16 1   
    26   16   17 1   
    27   16   25 1   
    28   17   18 1   
    29   17   37 1   
    30   17   38 1   
    31   18   19 1   
    32   18   39 1   
    33   18   40 1   
    34   19   20 ar  
    35   19   21 ar  
    36   20   22 ar  
    37   20   41 1   
    38   21   23 ar  
    39   21   42 1   
    40   22   24 ar  
    41   22   43 1   
    42   23   24 ar  
    43   23   44 1   
    44   24   45 1   
    45   25   26 1   
    46   25   46 1   
    47   25   47 1   
    48   26   27 1   
    49   26   48 1   
    50   26   49 1   
    51   27   50 1   
    52   27   51 1   
    53   27   52 1   
    54   28   53 1   
    55   28   54 1   
@<TRIPOS>SUBSTRUCTURE
     1 DPC         1 TEMP              0 ****  ****    0 ROOT
