@<TRIPOS>MOLECULE
DPC
   54    51     1     0     0
SMALL
bcc


@<TRIPOS>ATOM
      1 C1          2.4740   -4.5880   -1.0270 c1        1 DPC      0.384000
      2 O1A         2.5790   -5.2740   -2.0780 o         1 DPC     -0.529000
      3 O1B         3.4310   -4.5370   -0.2100 os        1 DPC     -0.560000
      4 C2          1.1660   -3.8310   -0.7290 c2        1 DPC      0.013000
      5 C3         -0.2490   -4.6720   -0.4700 c1        1 DPC     -0.341000
      6 C4         -1.3810   -3.8770   -0.0710 c2        1 DPC     -0.005000
      7 C5         -1.3340   -2.3770   -0.7130 c3        1 DPC      0.021000
      8 N5         -2.4520   -1.5640   -0.0890 n         1 DPC     -0.336000
      9 C10        -2.7070   -1.6620    1.3010 c2        1 DPC      0.298000
     10 O10        -2.0210   -2.4060    1.9970 o         1 DPC     -0.385000
     11 C11        -3.9230   -0.9690    1.9010 c3        1 DPC     -0.244000
     12 C6         -0.2030   -1.7160   -0.5440 c3        1 DPC     -0.018000
     13 O6          1.0200   -2.5250   -1.1230 os        1 DPC     -0.198000
     14 C7         -0.2810   -0.2240   -1.1600 c2        1 DPC      0.326000
     15 O7         -1.2610    0.1290   -1.7510 o         1 DPC     -0.424000
     16 N8          0.8600    0.7060   -0.9950 n         1 DPC     -0.311000
     17 C81         1.1590    1.2600    0.3060 c3        1 DPC     -0.046000
     18 C82         0.6250    2.6990    0.3830 c3        1 DPC     -0.141000
     19 CG          0.8080    3.2370    1.8090 c2        1 DPC     -0.078000
     20 CD1        -0.1000    2.8890    2.8020 c2        1 DPC     -0.111000
     21 CD2         1.8120    4.1630    2.0780 c1        1 DPC     -0.140000
     22 CE1        -0.0050    3.4620    4.0570 c1        1 DPC     -0.126000
     23 CE2         1.9070    4.7370    3.3370 c1        1 DPC     -0.148000
     24 CZ          1.0020    4.3890    4.3260 c1        1 DPC     -0.148000
     25 C9          1.7280    1.0120   -2.1370 c3        1 DPC     -0.027000
     26 C91         0.8890    1.5940   -3.2760 c3        1 DPC     -0.181000
     27 C92         1.8180    1.9960   -4.4520 c3        1 DPC     -0.208000
     28 NE         -2.6540   -4.5550   -0.3770 n3        1 DPC     -0.321000
     29 H3         -0.3920   -5.5600   -0.9100 ha        1 DPC      0.148000
     30 H4         -1.4290   -3.8250    0.9050 h4        1 DPC      0.129000
     31 H5         -1.5040   -2.4490   -1.6630 h1        1 DPC      0.113000
     32 HN5        -2.9890   -1.0390   -0.6190 hn        1 DPC      0.229000
     33 H111       -3.8460    0.0050    1.7650 hc        1 DPC      0.096333
     34 H112       -3.9680   -1.1610    2.8630 hc        1 DPC      0.096333
     35 H113       -4.7410   -1.3000    1.4610 hc        1 DPC      0.096333
     36 H6         -0.0620   -1.5190    0.4040 h1        1 DPC      0.122000
     37 H811        2.1360    1.2630    0.4450 h1        1 DPC      0.129500
     38 H812        0.7340    0.7180    0.9960 h1        1 DPC      0.129500
     39 H821        1.1240    3.2700   -0.2520 hc        1 DPC      0.087500
     40 H822       -0.3290    2.7060    0.1510 hc        1 DPC      0.087500
     41 HD1        -0.8150    2.2310    2.6120 ha        1 DPC      0.211000
     42 HD2         2.4560    4.4100    1.3740 ha        1 DPC      0.116000
     43 HE1        -0.6430    3.2170    4.7550 ha        1 DPC      0.139000
     44 HE2         2.6110    5.3860    3.5250 ha        1 DPC      0.113500
     45 HZ          1.0700    4.7970    5.2190 ha        1 DPC      0.113500
     46 H91         2.4050    1.6640   -1.8660 h1        1 DPC      0.095000
     47 H92         2.1660    0.1960   -2.4400 h1        1 DPC      0.095000
     48 H911        0.2570    0.9360   -3.5770 hc        1 DPC      0.085500
     49 H912        0.4080    2.3870   -2.9550 hc        1 DPC      0.085500
     50 H921        2.3660    2.7670   -4.1870 hc        1 DPC      0.068667
     51 H922        1.2640    2.2390   -5.2460 hc        1 DPC      0.068667
     52 H923        2.4100    1.2320   -4.6820 hc        1 DPC      0.068667
     53 HNE1       -2.7020   -4.7190   -1.2610 hn        1 DPC      0.130500
     54 HNE2       -2.6960   -5.3530    0.0880 hn        1 DPC      0.130500
@<TRIPOS>BOND
     1    1    2 1   
     2    1    4 1   
     3    4    5 1   
     4    4   13 1   
     5    5   29 1   
     6    6    7 1   
     7    6   28 1   
     8    6   30 1   
     9    7    8 1   
    10    7   12 1   
    11    7   31 1   
    12    8    9 1   
    13    8   32 1   
    14    9   10 1   
    15    9   11 1   
    16   11   33 1   
    17   11   34 1   
    18   11   35 1   
    19   12   13 1   
    20   12   14 1   
    21   12   36 1   
    22   14   15 1   
    23   14   16 1   
    24   16   17 1   
    25   16   25 1   
    26   17   18 1   
    27   17   37 1   
    28   17   38 1   
    29   18   19 1   
    30   18   39 1   
    31   18   40 1   
    32   19   20 1   
    33   19   21 1   
    34   20   22 1   
    35   20   41 1   
    36   21   42 1   
    37   22   43 1   
    38   23   24 1   
    39   23   44 1   
    40   24   45 1   
    41   25   26 1   
    42   25   46 1   
    43   25   47 1   
    44   26   27 1   
    45   26   48 1   
    46   26   49 1   
    47   27   50 1   
    48   27   51 1   
    49   27   52 1   
    50   28   53 1   
    51   28   54 1   
@<TRIPOS>SUBSTRUCTURE
     1 DPC         1 TEMP              0 ****  ****    0 ROOT
