@<TRIPOS>MOLECULE
DPC
   57    56     1     0     0
SMALL
bcc


@<TRIPOS>ATOM
      1 C1          2.2050    0.6760   -4.1780 c1        1 DPC      0.925000
      2 O1A         1.0480    0.6920   -3.8360 o         1 DPC     -0.459000
      3 O1B         3.3330    0.6570   -4.5100 o         1 DPC     -0.459000
      4 C2         -3.1860   -0.6290   -0.4770 c1        1 DPC      0.682600
      5 C3         -1.9520   -0.2090   -0.7300 c2        1 DPC     -0.559300
      6 C4         -1.4580    0.2200   -2.0500 c3        1 DPC      0.252700
      7 C5         -2.5220    0.0360   -3.1690 c3        1 DPC      0.258700
      8 N5         -1.9090    0.2250   -4.5780 n4        1 DPC     -0.729800
      9 C10        -2.1890    1.5890   -5.1550 c         1 DPC      0.587100
     10 O10        -1.7260    2.5290   -4.5140 o         1 DPC     -0.503100
     11 C11        -3.0080    1.6350   -6.3940 c3        1 DPC     -0.198100
     12 C6         -3.1570   -1.2780   -3.0750 c2        1 DPC     -0.608200
     13 O6         -4.2560   -1.0240   -0.1800 o         1 DPC     -0.294500
     14 C7         -4.3000   -1.4840   -3.8610 c2        1 DPC      0.571300
     15 O7         -4.6820   -0.7380   -4.7940 o         1 DPC     -0.676300
     16 N8         -5.1900   -2.6950   -3.6590 n4        1 DPC     -0.564200
     17 C81        -6.5880   -2.2470   -3.3250 c3        1 DPC      0.112800
     18 C82        -6.7330   -1.5800   -1.9600 c3        1 DPC     -0.031100
     19 CG         -8.1460   -1.1490   -1.7750 ca        1 DPC     -0.132300
     20 CD1        -8.9750   -1.8220   -0.8710 ca        1 DPC     -0.120000
     21 CD2        -8.6450   -0.0530   -2.4890 ca        1 DPC     -0.120000
     22 CE1       -10.2920   -1.4030   -0.6860 ca        1 DPC     -0.115000
     23 CE2        -9.9620    0.3620   -2.3030 ca        1 DPC     -0.115000
     24 CZ        -10.7870   -0.3130   -1.4020 ca        1 DPC     -0.096000
     25 C9         -4.6960   -3.7020   -2.6750 c3        1 DPC      0.107800
     26 C91        -3.5910   -4.6010   -3.2210 c3        1 DPC     -0.102400
     27 C92        -3.1690   -5.5830   -2.1570 c3        1 DPC     -0.102100
     28 NE         -1.0050    1.6680   -1.9530 n4        1 DPC     -0.860600
     29 H3         -1.2200   -0.2750    0.0970 ha        1 DPC      0.218000
     30 H4         -0.5160   -0.3650   -2.3050 hx        1 DPC      0.126700
     31 H5         -3.3050    0.8560   -3.1080 hx        1 DPC      0.096700
     32 HN5        -0.8980    0.0550   -4.5550 hn        1 DPC      0.466300
     33 H111       -3.9750    1.0790   -6.2490 hc        1 DPC      0.130367
     34 H112       -3.2340    2.7060   -6.6450 hc        1 DPC      0.130367
     35 H113       -2.4510    1.1760   -7.2520 hc        1 DPC      0.130367
     36 H6         -2.6880   -2.0650   -2.4810 ha        1 DPC      0.174000
     37 H811       -6.9040   -1.5210   -4.1320 hx        1 DPC      0.113200
     38 H812       -7.2540   -3.1570   -3.3750 hx        1 DPC      0.113200
     39 H821       -6.4320   -2.2890   -1.1420 hc        1 DPC      0.055200
     40 H822       -6.0520   -0.6890   -1.8980 hc        1 DPC      0.055200
     41 HD1        -8.5900   -2.6800   -0.2980 ha        1 DPC      0.127500
     42 HD2        -7.9970    0.4850   -3.1960 ha        1 DPC      0.127500
     43 HE1       -10.9410   -1.9350    0.0280 ha        1 DPC      0.153000
     44 HE2       -10.3520    1.2240   -2.8660 ha        1 DPC      0.153000
     45 HZ        -11.8290    0.0160   -1.2550 ha        1 DPC      0.158000
     46 H91        -4.3500   -3.1550   -1.7530 hx        1 DPC      0.100200
     47 H92        -5.5740   -4.3490   -2.3800 hx        1 DPC      0.100200
     48 H911       -2.7100   -3.9870   -3.5440 hc        1 DPC      0.059700
     49 H912       -3.9600   -5.1630   -4.1210 hc        1 DPC      0.059700
     50 H921       -4.0280   -6.2240   -1.8410 hc        1 DPC      0.060367
     51 H922       -2.7720   -5.0530   -1.2580 hc        1 DPC      0.060367
     52 H923       -2.3650   -6.2490   -2.5580 hc        1 DPC      0.060367
     53 HNE1       -0.4580    1.9360   -2.7830 hn        1 DPC      0.466800
     54 HNE2       -0.4240    1.7790   -1.1140 hn        1 DPC      0.466800
     55 H52        -2.3440   -0.4840   -5.1880 hn        1 DPC      0.466300
     56 H81        -5.2490   -3.1560   -4.5800 hn        1 DPC      0.451800
     57 HE3        -1.8110    2.2960   -1.8760 hn        1 DPC      0.466800
@<TRIPOS>BOND
     1    1    2 2   
     2    1    3 2   
     3    4    5 2   
     4    4   13 2   
     5    5    6 1   
     6    5   29 1   
     7    6    7 1   
     8    6   28 1   
     9    6   30 1   
    10    7    8 1   
    11    7   12 1   
    12    7   31 1   
    13    8    9 1   
    14    8   32 1   
    15    8   55 1   
    16    9   10 2   
    17    9   11 1   
    18   11   33 1   
    19   11   34 1   
    20   11   35 1   
    21   12   14 2   
    22   12   36 1   
    23   14   15 1   
    24   14   16 1   
    25   16   17 1   
    26   16   25 1   
    27   16   56 1   
    28   17   18 1   
    29   17   37 1   
    30   17   38 1   
    31   18   19 1   
    32   18   39 1   
    33   18   40 1   
    34   19   20 ar  
    35   19   21 ar  
    36   20   22 ar  
    37   20   41 1   
    38   21   23 ar  
    39   21   42 1   
    40   22   24 ar  
    41   22   43 1   
    42   23   24 ar  
    43   23   44 1   
    44   24   45 1   
    45   25   26 1   
    46   25   46 1   
    47   25   47 1   
    48   26   27 1   
    49   26   48 1   
    50   26   49 1   
    51   27   50 1   
    52   27   51 1   
    53   27   52 1   
    54   28   53 1   
    55   28   54 1   
    56   28   57 1   
@<TRIPOS>SUBSTRUCTURE
     1 DPC         1 TEMP              0 ****  ****    0 ROOT
