@<TRIPOS>MOLECULE
DPC
   57    56     1     0     0
SMALL
bcc


@<TRIPOS>ATOM
      1 C1          2.8900    2.6670   -2.2410 c1        1 DPC      0.925000
      2 O1A         1.8080    2.1460   -2.3050 o         1 DPC     -0.461000
      3 O1B         3.9510    3.1740   -2.1820 o         1 DPC     -0.461000
      4 C2         -2.9860   -1.0480   -0.7280 c1        1 DPC      0.682600
      5 C3         -1.7560   -0.6850   -1.0700 c2        1 DPC     -0.558300
      6 C4         -1.3560   -0.1670   -2.3910 c3        1 DPC      0.251700
      7 C5         -2.5180   -0.2180   -3.4250 c3        1 DPC      0.257700
      8 N5         -2.0090   -0.0150   -4.8780 n4        1 DPC     -0.731800
      9 C10        -2.1870    1.3990   -5.3710 c         1 DPC      0.586100
     10 O10        -1.5530    2.2480   -4.7500 o         1 DPC     -0.499100
     11 C11        -3.1190    1.5940   -6.5130 c3        1 DPC     -0.198100
     12 C6         -3.2470   -1.4810   -3.3380 c2        1 DPC     -0.608200
     13 O6         -4.0470   -1.3990   -0.3530 o         1 DPC     -0.296500
     14 C7         -4.4730   -1.5480   -4.0190 c2        1 DPC      0.572300
     15 O7         -4.8750   -0.7150   -4.8650 o         1 DPC     -0.672300
     16 N8         -5.4370   -2.6970   -3.8000 n4        1 DPC     -0.564200
     17 C81        -6.7560   -2.1660   -3.3040 c3        1 DPC      0.112800
     18 C82        -6.7160   -1.5800   -1.8960 c3        1 DPC     -0.030100
     19 CG         -8.0640   -1.0550   -1.5470 ca        1 DPC     -0.133300
     20 CD1        -8.8560   -1.7190   -0.6040 ca        1 DPC     -0.119500
     21 CD2        -8.5370    0.1190   -2.1450 ca        1 DPC     -0.119500
     22 CE1       -10.1110   -1.2140   -0.2660 ca        1 DPC     -0.115000
     23 CE2        -9.7920    0.6200   -1.8060 ca        1 DPC     -0.115000
     24 CZ        -10.5810   -0.0460   -0.8660 ca        1 DPC     -0.096000
     25 C9         -4.9370   -3.8020   -2.9310 c3        1 DPC      0.107800
     26 C91        -3.9670   -4.7450   -3.6360 c3        1 DPC     -0.102400
     27 C92        -3.5300   -5.8250   -2.6780 c3        1 DPC     -0.102100
     28 NE         -0.8300    1.2450   -2.2090 n4        1 DPC     -0.860600
     29 H3         -0.9550   -0.8650   -0.3280 ha        1 DPC      0.220000
     30 H4         -0.4700   -0.7730   -2.7640 hx        1 DPC      0.117700
     31 H5         -3.2230    0.6580   -3.2720 hx        1 DPC      0.098700
     32 HN5        -1.0300   -0.2950   -4.9580 hn        1 DPC      0.459800
     33 H111       -2.6920    1.1440   -7.4470 hc        1 DPC      0.131367
     34 H112       -4.1150    1.1180   -6.3000 hc        1 DPC      0.131367
     35 H113       -3.2650    2.6950   -6.6800 hc        1 DPC      0.131367
     36 H6         -2.7890   -2.3410   -2.8450 ha        1 DPC      0.175000
     37 H811       -7.0860   -1.3680   -4.0330 hx        1 DPC      0.113700
     38 H812       -7.4960   -3.0170   -3.3390 hx        1 DPC      0.113700
     39 H821       -6.3980   -2.3610   -1.1530 hc        1 DPC      0.054700
     40 H822       -5.9600   -0.7490   -1.8510 hc        1 DPC      0.054700
     41 HD1        -8.4910   -2.6380   -0.1210 ha        1 DPC      0.127500
     42 HD2        -7.9170    0.6500   -2.8820 ha        1 DPC      0.127500
     43 HE1       -10.7310   -1.7390    0.4780 ha        1 DPC      0.153000
     44 HE2       -10.1620    1.5430   -2.2790 ha        1 DPC      0.153000
     45 HZ        -11.5730    0.3510   -0.5990 ha        1 DPC      0.158000
     46 H91        -5.8350   -4.3980   -2.5880 hx        1 DPC      0.100700
     47 H92        -4.4620   -3.3450   -2.0170 hx        1 DPC      0.100700
     48 H911       -4.4650   -5.2160   -4.5260 hc        1 DPC      0.059200
     49 H912       -3.0720   -4.1810   -4.0090 hc        1 DPC      0.059200
     50 H921       -4.4050   -6.4180   -2.3170 hc        1 DPC      0.060700
     51 H922       -2.8250   -6.5230   -3.1950 hc        1 DPC      0.060700
     52 H923       -3.0080   -5.3880   -1.7930 hc        1 DPC      0.060700
     53 HNE1       -0.3760    1.5990   -3.0620 hn        1 DPC      0.470133
     54 HNE2       -0.1280    1.2480   -1.4550 hn        1 DPC      0.470133
     55 H52        -2.5710   -0.6420   -5.4740 hn        1 DPC      0.459800
     56 H81        -5.6200   -3.0910   -4.7360 hn        1 DPC      0.452800
     57 HE3        -1.5860    1.8830   -1.9490 hn        1 DPC      0.470133
@<TRIPOS>BOND
     1    1    2 2   
     2    1    3 2   
     3    4    5 2   
     4    4   13 2   
     5    5    6 1   
     6    5   29 1   
     7    6    7 1   
     8    6   28 1   
     9    6   30 1   
    10    7    8 1   
    11    7   12 1   
    12    7   31 1   
    13    8    9 1   
    14    8   32 1   
    15    8   55 1   
    16    9   10 2   
    17    9   11 1   
    18   11   33 1   
    19   11   34 1   
    20   11   35 1   
    21   12   14 2   
    22   12   36 1   
    23   14   15 1   
    24   14   16 1   
    25   16   17 1   
    26   16   25 1   
    27   16   56 1   
    28   17   18 1   
    29   17   37 1   
    30   17   38 1   
    31   18   19 1   
    32   18   39 1   
    33   18   40 1   
    34   19   20 ar  
    35   19   21 ar  
    36   20   22 ar  
    37   20   41 1   
    38   21   23 ar  
    39   21   42 1   
    40   22   24 ar  
    41   22   43 1   
    42   23   24 ar  
    43   23   44 1   
    44   24   45 1   
    45   25   26 1   
    46   25   46 1   
    47   25   47 1   
    48   26   27 1   
    49   26   48 1   
    50   26   49 1   
    51   27   50 1   
    52   27   51 1   
    53   27   52 1   
    54   28   53 1   
    55   28   54 1   
    56   28   57 1   
@<TRIPOS>SUBSTRUCTURE
     1 DPC         1 TEMP              0 ****  ****    0 ROOT
