@<TRIPOS>MOLECULE
DPC
   57    56     1     0     0
SMALL
bcc


@<TRIPOS>ATOM
      1 C1          2.2010    0.6310   -4.2510 c1        1 DPC      0.925000
      2 O1A         1.0460    0.6580   -3.9050 o         1 DPC     -0.459000
      3 O1B         3.3280    0.6020   -4.5880 o         1 DPC     -0.459000
      4 C2         -3.1750   -0.5670   -0.4920 c1        1 DPC      0.682600
      5 C3         -1.9410   -0.1560   -0.7620 c2        1 DPC     -0.559300
      6 C4         -1.4520    0.2370   -2.0950 c3        1 DPC      0.252700
      7 C5         -2.5220    0.0240   -3.2040 c3        1 DPC      0.258700
      8 N5         -1.9150    0.1740   -4.6210 ny        1 DPC     -0.729800
      9 C10        -2.1960    1.5240   -5.2320 c         1 DPC      0.587100
     10 O10        -1.7290    2.4800   -4.6190 o         1 DPC     -0.503100
     11 C11        -3.0200    1.5370   -6.4690 c3        1 DPC     -0.198100
     12 C6         -3.1580   -1.2860   -3.0720 c2        1 DPC     -0.608200
     13 O6         -4.2440   -0.9530   -0.1800 o         1 DPC     -0.294500
     14 C7         -4.3050   -1.5100   -3.8470 c2        1 DPC      0.571300
     15 O7         -4.6900   -0.7890   -4.7980 o         1 DPC     -0.676300
     16 N8         -5.1960   -2.7140   -3.6090 nx        1 DPC     -0.564200
     17 C81        -6.5920   -2.2560   -3.2810 c3        1 DPC      0.112800
     18 C82        -6.7300   -1.5520   -1.9340 c3        1 DPC     -0.031100
     19 CG         -8.1410   -1.1130   -1.7540 ca        1 DPC     -0.132300
     20 CD1        -8.9670   -1.7600   -0.8290 ca        1 DPC     -0.120000
     21 CD2        -8.6410   -0.0350   -2.4950 ca        1 DPC     -0.120000
     22 CE1       -10.2830   -1.3340   -0.6500 ca        1 DPC     -0.115000
     23 CE2        -9.9570    0.3870   -2.3150 ca        1 DPC     -0.115000
     24 CZ        -10.7800   -0.2630   -1.3920 ca        1 DPC     -0.096000
     25 C9         -4.6990   -3.6950   -2.6010 c3        1 DPC      0.107800
     26 C91        -3.5980   -4.6100   -3.1270 c3        1 DPC     -0.102400
     27 C92        -3.1730   -5.5640   -2.0380 c3        1 DPC     -0.102100
     28 NE         -0.9970    1.6870   -2.0390 nz        1 DPC     -0.860600
     29 H3         -1.2060   -0.2000    0.0630 ha        1 DPC      0.218000
     30 H4         -0.5130   -0.3560   -2.3390 hx        1 DPC      0.126700
     31 H5         -3.3030    0.8480   -3.1610 hx        1 DPC      0.096700
     32 HN5        -2.3540   -0.5500   -5.2090 hn        1 DPC      0.466300
     33 H111       -3.2450    2.6010   -6.7470 hc        1 DPC      0.130367
     34 H112       -3.9870    0.9860   -6.3050 hc        1 DPC      0.130367
     35 H113       -2.4670    1.0540   -7.3170 hc        1 DPC      0.130367
     36 H6         -2.6880   -2.0570   -2.4590 ha        1 DPC      0.174000
     37 H811       -6.9110   -1.5510   -4.1060 hx        1 DPC      0.113200
     38 H812       -7.2600   -3.1650   -3.3030 hx        1 DPC      0.113200
     39 H821       -6.0470   -0.6600   -1.8990 hc        1 DPC      0.055200
     40 H822       -6.4270   -2.2390   -1.0980 hc        1 DPC      0.055200
     41 HD1        -8.5820   -2.6030   -0.2350 ha        1 DPC      0.127500
     42 HD2        -7.9950    0.4820   -3.2190 ha        1 DPC      0.127500
     43 HE1       -10.9300   -1.8450    0.0810 ha        1 DPC      0.153000
     44 HE2       -10.3480    1.2340   -2.8990 ha        1 DPC      0.153000
     45 HZ        -11.8200    0.0720   -1.2500 ha        1 DPC      0.158000
     46 H91        -4.3480   -3.1240   -1.6950 hx        1 DPC      0.100200
     47 H92        -5.5770   -4.3330   -2.2830 hx        1 DPC      0.100200
     48 H911       -3.9720   -5.1960   -4.0100 hc        1 DPC      0.059700
     49 H912       -2.7170   -4.0070   -3.4700 hc        1 DPC      0.059700
     50 H921       -4.0320   -6.1950   -1.7020 hc        1 DPC      0.060367
     51 H922       -2.3720   -6.2420   -2.4240 hc        1 DPC      0.060367
     52 H923       -2.7720   -5.0110   -1.1550 hc        1 DPC      0.060367
     53 HNE1       -1.8020    2.3170   -1.9750 hn        1 DPC      0.466800
     54 HNE2       -0.4130    1.8190   -1.2060 hn        1 DPC      0.466800
     55 H52        -0.9040    0.0040   -4.5980 hn        1 DPC      0.466300
     56 H81        -5.2600   -3.2000   -4.5160 hn        1 DPC      0.451800
     57 HE3        -0.4540    1.9310   -2.8780 hn        1 DPC      0.466800
@<TRIPOS>BOND
     1    1    2 2   
     2    1    3 2   
     3    4    5 2   
     4    4   13 2   
     5    5    6 1   
     6    5   29 1   
     7    6    7 1   
     8    6   28 1   
     9    6   30 1   
    10    7    8 1   
    11    7   12 1   
    12    7   31 1   
    13    8    9 1   
    14    8   32 1   
    15    8   55 1   
    16    9   10 2   
    17    9   11 1   
    18   11   33 1   
    19   11   34 1   
    20   11   35 1   
    21   12   14 2   
    22   12   36 1   
    23   14   15 1   
    24   14   16 1   
    25   16   17 1   
    26   16   25 1   
    27   16   56 1   
    28   17   18 1   
    29   17   37 1   
    30   17   38 1   
    31   18   19 1   
    32   18   39 1   
    33   18   40 1   
    34   19   20 ar  
    35   19   21 ar  
    36   20   22 ar  
    37   20   41 1   
    38   21   23 ar  
    39   21   42 1   
    40   22   24 ar  
    41   22   43 1   
    42   23   24 ar  
    43   23   44 1   
    44   24   45 1   
    45   25   26 1   
    46   25   46 1   
    47   25   47 1   
    48   26   27 1   
    49   26   48 1   
    50   26   49 1   
    51   27   50 1   
    52   27   51 1   
    53   27   52 1   
    54   28   53 1   
    55   28   54 1   
    56   28   57 1   
@<TRIPOS>SUBSTRUCTURE
     1 DPC         1 TEMP              0 ****  ****    0 ROOT
