@<TRIPOS>MOLECULE
DPD
   88    90     1     0     0
SMALL
bcc


@<TRIPOS>ATOM
      1 C11         0.1900    0.5150    0.0560 ca        1 DPD     -0.116800
      2 C12         1.2660    1.3970   -0.0950 ca        1 DPD     -0.128500
      3 C13         2.0940    1.6870    0.9880 ca        1 DPD     -0.118250
      4 C14         1.8540    1.0980    2.2300 ca        1 DPD     -0.106000
      5 C15         0.7810    0.2210    2.3870 ca        1 DPD     -0.118250
      6 C16        -0.0490   -0.0710    1.3050 ca        1 DPD     -0.128500
      7 C21        -1.2600    1.4160   -1.7610 ca        1 DPD     -0.116800
      8 C22        -2.5020    1.9110   -1.3400 ca        1 DPD     -0.128500
      9 C23        -3.0320    3.0670   -1.9120 ca        1 DPD     -0.118250
     10 C24        -2.3290    3.7410   -2.9100 ca        1 DPD     -0.106000
     11 C25        -1.0910    3.2560   -3.3310 ca        1 DPD     -0.118250
     12 C26        -0.5590    2.1010   -2.7600 ca        1 DPD     -0.128500
     13 C1         -0.7170    0.1890   -1.0930 c3        1 DPD      0.052900
     14 C2          0.0320   -0.7350   -2.0610 c3        1 DPD     -0.108400
     15 C3         -0.8980   -1.1320   -3.1990 c3        1 DPD      0.100800
     16 N4         -0.2100   -2.0110   -4.2070 ny        1 DPD     -0.763000
     17 C5         -1.1250   -2.3920   -5.3190 c3        1 DPD      0.104800
     18 C6         -0.4590   -3.2840   -6.3660 c3        1 DPD     -0.137400
     19 C7         -1.4900   -3.6100   -7.4480 c3        1 DPD      0.101800
     20 N8         -0.9550   -4.4720   -8.5290 ny        1 DPD     -0.783000
     21 C9         -2.0090   -4.8200   -9.6000 c3        1 DPD      0.230800
     22 C19        -3.0110   -5.8330   -9.0760 c3        1 DPD     -0.132100
     23 C31        -1.2710   -5.2840  -10.8070 ca        1 DPD     -0.235300
     24 C32        -1.0690   -4.3720  -11.8640 ca        1 DPD     -0.171000
     25 C33        -0.4120   -4.7790  -13.0170 ca        1 DPD      0.121100
     26 C34         0.0700   -6.1280  -13.1250 ca        1 DPD      0.194100
     27 C35        -0.1320   -7.0140  -12.0630 ca        1 DPD     -0.206000
     28 C36        -0.8010   -6.5920  -10.9150 ca        1 DPD     -0.075000
     29 O3         -0.1330   -3.9800  -14.0930 os        1 DPD     -0.289900
     30 C41        -0.8770   -2.7510  -14.1860 c3        1 DPD      0.126400
     31 C42        -0.5620   -2.1900  -15.5610 c3        1 DPD     -0.088400
     32 C43        -1.2770   -0.8710  -15.7630 c3        1 DPD     -0.076400
     33 C44        -0.9780   -0.2960  -17.1240 c3        1 DPD     -0.096100
     34 O4          0.7060   -6.4180  -14.2900 os        1 DPD     -0.279900
     35 C51         1.1510   -7.7820  -14.4670 c3        1 DPD      0.121400
     36 C52         1.7690   -7.8220  -15.8530 c3        1 DPD     -0.088400
     37 C53         2.2790   -9.2160  -16.1530 c3        1 DPD     -0.077400
     38 C54         2.8980   -9.2810  -17.5250 c3        1 DPD     -0.096100
     39 H12         1.4460    1.8830   -1.0660 ha        1 DPD      0.129250
     40 H13         2.9330    2.3890    0.8640 ha        1 DPD      0.149500
     41 H14         2.5050    1.3330    3.0870 ha        1 DPD      0.154500
     42 H15         0.5830   -0.2370    3.3680 ha        1 DPD      0.149500
     43 H16        -0.9000   -0.7550    1.4440 ha        1 DPD      0.129250
     44 H22        -3.0550    1.3990   -0.5370 ha        1 DPD      0.129250
     45 H23        -4.0020    3.4550   -1.5620 ha        1 DPD      0.149500
     46 H24        -2.7410    4.6620   -3.3510 ha        1 DPD      0.154500
     47 H25        -0.5210    3.8000   -4.1010 ha        1 DPD      0.149500
     48 H26         0.4360    1.7580   -3.0780 ha        1 DPD      0.129250
     49 H1         -1.5970   -0.3980   -0.6880 hc        1 DPD      0.063700
     50 H22A        0.3720   -1.6410   -1.4920 hc        1 DPD      0.074700
     51 H21         0.9420   -0.2060   -2.4480 hc        1 DPD      0.074700
     52 H32A       -1.7870   -1.6970   -2.7990 hx        1 DPD      0.117700
     53 H31        -1.2600   -0.2020   -3.7320 hx        1 DPD      0.117700
     54 H4          0.6050   -1.5090   -4.5810 hn        1 DPD      0.454800
     55 H52        -2.0120   -2.9250   -4.8670 hx        1 DPD      0.118700
     56 H51        -1.4940   -1.4390   -5.8010 hx        1 DPD      0.118700
     57 H62         0.4240   -2.7570   -6.8200 hc        1 DPD      0.086200
     58 H61        -0.0870   -4.2310   -5.8890 hc        1 DPD      0.086200
     59 H72        -1.8620   -2.6530   -7.9200 hx        1 DPD      0.113700
     60 H71        -2.3740   -4.1410   -6.9870 hx        1 DPD      0.113700
     61 H8         -0.1750   -4.0010   -9.0050 hn        1 DPD      0.450800
     62 H9         -2.5440   -3.8460   -9.8200 hx        1 DPD      0.101700
     63 H193       -3.6440   -5.4020   -8.2640 hc        1 DPD      0.080700
     64 H192       -3.6830   -6.1170   -9.9300 hc        1 DPD      0.080700
     65 H191       -2.5220   -6.7670   -8.7040 hc        1 DPD      0.080700
     66 H32        -1.4600   -3.3460  -11.7880 ha        1 DPD      0.141000
     67 H35         0.2210   -8.0550  -12.1320 ha        1 DPD      0.169000
     68 H36        -0.9680   -7.3190  -10.1050 ha        1 DPD      0.133000
     69 H412       -0.5330   -2.0580  -13.3740 h1        1 DPD      0.035200
     70 H411       -1.9720   -2.9620  -14.0700 h1        1 DPD      0.035200
     71 H422       -0.8790   -2.9270  -16.3450 hc        1 DPD      0.070200
     72 H421        0.5460   -2.0520  -15.6640 hc        1 DPD      0.070200
     73 H432       -0.9580   -0.1440  -14.9690 hc        1 DPD      0.037200
     74 H431       -2.3830   -1.0210  -15.6520 hc        1 DPD      0.037200
     75 H443       -1.5110    0.6760  -17.2570 hc        1 DPD      0.045367
     76 H442       -1.3110   -0.9950  -17.9290 hc        1 DPD      0.045367
     77 H441        0.1180   -0.1170  -17.2460 hc        1 DPD      0.045367
     78 H512        0.2690   -8.4700  -14.3900 h1        1 DPD      0.049700
     79 H511        1.9030   -8.0250  -13.6740 h1        1 DPD      0.049700
     80 H522        2.6080   -7.0800  -15.9110 hc        1 DPD      0.068200
     81 H521        1.0030   -7.5170  -16.6130 hc        1 DPD      0.068200
     82 H532        3.0390   -9.5130  -15.3820 hc        1 DPD      0.042200
     83 H531        1.4320   -9.9490  -16.0860 hc        1 DPD      0.042200
     84 H543        3.2690  -10.3150  -17.7300 hc        1 DPD      0.044367
     85 H542        3.7600   -8.5750  -17.6050 hc        1 DPD      0.044367
     86 H541        2.1500   -9.0120  -18.3100 hc        1 DPD      0.044367
     87 H42         0.1340   -2.8550   -3.7320 hn        1 DPD      0.454800
     88 H82        -0.5990   -5.3500   -8.1360 hn        1 DPD      0.450800
@<TRIPOS>BOND
     1    1    2 ar  
     2    1    6 ar  
     3    1   13 1   
     4    2    3 ar  
     5    2   39 1   
     6    3    4 ar  
     7    3   40 1   
     8    4    5 ar  
     9    4   41 1   
    10    5    6 ar  
    11    5   42 1   
    12    6   43 1   
    13    7    8 ar  
    14    7   12 ar  
    15    7   13 1   
    16    8    9 ar  
    17    8   44 1   
    18    9   10 ar  
    19    9   45 1   
    20   10   11 ar  
    21   10   46 1   
    22   11   12 ar  
    23   11   47 1   
    24   12   48 1   
    25   13   14 1   
    26   13   49 1   
    27   14   15 1   
    28   14   50 1   
    29   14   51 1   
    30   15   16 1   
    31   15   52 1   
    32   15   53 1   
    33   16   17 1   
    34   16   54 1   
    35   16   87 1   
    36   17   18 1   
    37   17   55 1   
    38   17   56 1   
    39   18   19 1   
    40   18   57 1   
    41   18   58 1   
    42   19   20 1   
    43   19   59 1   
    44   19   60 1   
    45   20   21 1   
    46   20   61 1   
    47   20   88 1   
    48   21   22 1   
    49   21   23 1   
    50   21   62 1   
    51   22   63 1   
    52   22   64 1   
    53   22   65 1   
    54   23   24 ar  
    55   23   28 ar  
    56   24   25 ar  
    57   24   66 1   
    58   25   26 ar  
    59   25   29 1   
    60   26   27 ar  
    61   26   34 1   
    62   27   28 ar  
    63   27   67 1   
    64   28   68 1   
    65   29   30 1   
    66   30   31 1   
    67   30   69 1   
    68   30   70 1   
    69   31   32 1   
    70   31   71 1   
    71   31   72 1   
    72   32   33 1   
    73   32   73 1   
    74   32   74 1   
    75   33   75 1   
    76   33   76 1   
    77   33   77 1   
    78   34   35 1   
    79   35   36 1   
    80   35   78 1   
    81   35   79 1   
    82   36   37 1   
    83   36   80 1   
    84   36   81 1   
    85   37   38 1   
    86   37   82 1   
    87   37   83 1   
    88   38   84 1   
    89   38   85 1   
    90   38   86 1   
@<TRIPOS>SUBSTRUCTURE
     1 DPD         1 TEMP              0 ****  ****    0 ROOT
