@<TRIPOS>MOLECULE
DPD
   88    90     1     0     0
SMALL
bcc


@<TRIPOS>ATOM
      1 C11         0.1730    0.5060    0.0620 ca        1 DPD     -0.116800
      2 C12         1.2620    1.3720   -0.0800 ca        1 DPD     -0.128500
      3 C13         2.0840    1.6510    1.0100 ca        1 DPD     -0.118250
      4 C14         1.8240    1.0690    2.2510 ca        1 DPD     -0.106000
      5 C15         0.7360    0.2070    2.3990 ca        1 DPD     -0.118250
      6 C16        -0.0870   -0.0740    1.3100 ca        1 DPD     -0.128500
      7 C21        -1.2470    1.4250   -1.7700 ca        1 DPD     -0.116800
      8 C22        -2.4860    1.9380   -1.3620 ca        1 DPD     -0.128500
      9 C23        -2.9940    3.1010   -1.9400 ca        1 DPD     -0.118250
     10 C24        -2.2710    3.7640   -2.9320 ca        1 DPD     -0.106000
     11 C25        -1.0360    3.2600   -3.3410 ca        1 DPD     -0.118250
     12 C26        -0.5270    2.0980   -2.7640 ca        1 DPD     -0.128500
     13 C1         -0.7280    0.1920   -1.0950 c3        1 DPD      0.052900
     14 C2          0.0170   -0.7450   -2.0540 c3        1 DPD     -0.108400
     15 C3         -0.9080   -1.1300   -3.2000 c3        1 DPD      0.100800
     16 N4         -0.2230   -2.0200   -4.2020 n4        1 DPD     -0.763000
     17 C5         -1.1330   -2.3920   -5.3200 c3        1 DPD      0.104800
     18 C6         -0.4700   -3.2900   -6.3620 c3        1 DPD     -0.137400
     19 C7         -1.4970   -3.6080   -7.4500 c3        1 DPD      0.101800
     20 N8         -0.9620   -4.4740   -8.5280 n4        1 DPD     -0.783000
     21 C9         -2.0140   -4.8170   -9.6040 c3        1 DPD      0.230800
     22 C19        -3.0210   -5.8280   -9.0850 c3        1 DPD     -0.132100
     23 C31        -1.2740   -5.2810  -10.8090 ca        1 DPD     -0.235300
     24 C32        -1.0700   -4.3690  -11.8660 ca        1 DPD     -0.171000
     25 C33        -0.4110   -4.7760  -13.0170 ca        1 DPD      0.121100
     26 C34         0.0720   -6.1250  -13.1250 ca        1 DPD      0.194100
     27 C35        -0.1330   -7.0120  -12.0630 ca        1 DPD     -0.206000
     28 C36        -0.8050   -6.5890  -10.9160 ca        1 DPD     -0.075000
     29 O3         -0.1290   -3.9770  -14.0930 os        1 DPD     -0.289900
     30 C41        -0.8730   -2.7490  -14.1870 c3        1 DPD      0.126400
     31 C42        -0.5560   -2.1880  -15.5620 c3        1 DPD     -0.088400
     32 C43        -1.2710   -0.8690  -15.7660 c3        1 DPD     -0.076400
     33 C44        -0.9700   -0.2950  -17.1270 c3        1 DPD     -0.096100
     34 O4          0.7090   -6.4160  -14.2880 os        1 DPD     -0.279900
     35 C51         1.1540   -7.7800  -14.4640 c3        1 DPD      0.121400
     36 C52         1.7750   -7.8200  -15.8490 c3        1 DPD     -0.088400
     37 C53         2.2850   -9.2140  -16.1470 c3        1 DPD     -0.077400
     38 C54         2.9080   -9.2800  -17.5190 c3        1 DPD     -0.096100
     39 H12         1.4590    1.8540   -1.0500 ha        1 DPD      0.129000
     40 H13         2.9350    2.3410    0.8940 ha        1 DPD      0.149250
     41 H14         2.4700    1.2950    3.1140 ha        1 DPD      0.154500
     42 H15         0.5220   -0.2460    3.3790 ha        1 DPD      0.149250
     43 H16        -0.9490   -0.7450    1.4410 ha        1 DPD      0.129000
     44 H22        -3.0540    1.4350   -0.5630 ha        1 DPD      0.129000
     45 H23        -3.9610    3.5040   -1.6000 ha        1 DPD      0.149250
     46 H24        -2.6660    4.6900   -3.3780 ha        1 DPD      0.154500
     47 H25        -0.4520    3.7940   -4.1060 ha        1 DPD      0.149250
     48 H26         0.4670    1.7400   -3.0710 ha        1 DPD      0.129000
     49 H1         -1.6200   -0.3820   -0.6980 hc        1 DPD      0.063700
     50 H22A        0.9380   -0.2300   -2.4340 hc        1 DPD      0.074700
     51 H21         0.3390   -1.6550   -1.4810 hc        1 DPD      0.074700
     52 H32A       -1.2530   -0.1970   -3.7380 hx        1 DPD      0.117700
     53 H31        -1.8080   -1.6840   -2.8080 hx        1 DPD      0.117700
     54 H4          0.1070   -2.8660   -3.7230 hn        1 DPD      0.454800
     55 H52        -2.0300   -2.9160   -4.8740 hx        1 DPD      0.118700
     56 H51        -1.4900   -1.4350   -5.8050 hx        1 DPD      0.118700
     57 H62        -0.1090   -4.2400   -5.8830 hc        1 DPD      0.086200
     58 H61         0.4200   -2.7710   -6.8110 hc        1 DPD      0.086200
     59 H72        -1.8590   -2.6490   -7.9240 hx        1 DPD      0.113700
     60 H71        -2.3870   -4.1330   -6.9940 hx        1 DPD      0.113700
     61 H8         -0.6130   -5.3540   -8.1330 hn        1 DPD      0.450800
     62 H9         -2.5450   -3.8410   -9.8230 hx        1 DPD      0.101700
     63 H193       -3.6920   -6.1060   -9.9400 hc        1 DPD      0.080700
     64 H192       -2.5370   -6.7640   -8.7150 hc        1 DPD      0.080700
     65 H191       -3.6540   -5.3960   -8.2730 hc        1 DPD      0.080700
     66 H32        -1.4610   -3.3430  -11.7900 ha        1 DPD      0.141000
     67 H35         0.2200   -8.0530  -12.1310 ha        1 DPD      0.169000
     68 H36        -0.9730   -7.3150  -10.1060 ha        1 DPD      0.133000
     69 H412       -1.9680   -2.9580  -14.0730 h1        1 DPD      0.035200
     70 H411       -0.5300   -2.0550  -13.3760 h1        1 DPD      0.035200
     71 H422        0.5520   -2.0500  -15.6630 hc        1 DPD      0.070200
     72 H421       -0.8710   -2.9250  -16.3470 hc        1 DPD      0.070200
     73 H432       -0.9530   -0.1420  -14.9720 hc        1 DPD      0.037200
     74 H431       -2.3770   -1.0190  -15.6570 hc        1 DPD      0.037200
     75 H443       -1.5040    0.6770  -17.2610 hc        1 DPD      0.045367
     76 H442       -1.3020   -0.9940  -17.9320 hc        1 DPD      0.045367
     77 H441        0.1260   -0.1160  -17.2470 hc        1 DPD      0.045367
     78 H512        1.9060   -8.0230  -13.6690 h1        1 DPD      0.049700
     79 H511        0.2720   -8.4670  -14.3890 h1        1 DPD      0.049700
     80 H522        1.0110   -7.5150  -16.6110 hc        1 DPD      0.068200
     81 H521        2.6150   -7.0790  -15.9050 hc        1 DPD      0.068200
     82 H532        3.0430   -9.5120  -15.3750 hc        1 DPD      0.042200
     83 H531        1.4380   -9.9470  -16.0830 hc        1 DPD      0.042200
     84 H543        3.7700   -8.5740  -17.5960 hc        1 DPD      0.044367
     85 H542        3.2780  -10.3130  -17.7230 hc        1 DPD      0.044367
     86 H541        2.1620   -9.0110  -18.3050 hc        1 DPD      0.044367
     87 H42         0.6000   -1.5280   -4.5700 hn        1 DPD      0.454800
     88 H82        -0.1780   -4.0080   -9.0020 hn        1 DPD      0.450800
@<TRIPOS>BOND
     1    1    2 ar  
     2    1    6 ar  
     3    1   13 1   
     4    2    3 ar  
     5    2   39 1   
     6    3    4 ar  
     7    3   40 1   
     8    4    5 ar  
     9    4   41 1   
    10    5    6 ar  
    11    5   42 1   
    12    6   43 1   
    13    7    8 ar  
    14    7   12 ar  
    15    7   13 1   
    16    8    9 ar  
    17    8   44 1   
    18    9   10 ar  
    19    9   45 1   
    20   10   11 ar  
    21   10   46 1   
    22   11   12 ar  
    23   11   47 1   
    24   12   48 1   
    25   13   14 1   
    26   13   49 1   
    27   14   15 1   
    28   14   50 1   
    29   14   51 1   
    30   15   16 1   
    31   15   52 1   
    32   15   53 1   
    33   16   17 1   
    34   16   54 1   
    35   16   87 1   
    36   17   18 1   
    37   17   55 1   
    38   17   56 1   
    39   18   19 1   
    40   18   57 1   
    41   18   58 1   
    42   19   20 1   
    43   19   59 1   
    44   19   60 1   
    45   20   21 1   
    46   20   61 1   
    47   20   88 1   
    48   21   22 1   
    49   21   23 1   
    50   21   62 1   
    51   22   63 1   
    52   22   64 1   
    53   22   65 1   
    54   23   24 ar  
    55   23   28 ar  
    56   24   25 ar  
    57   24   66 1   
    58   25   26 ar  
    59   25   29 1   
    60   26   27 ar  
    61   26   34 1   
    62   27   28 ar  
    63   27   67 1   
    64   28   68 1   
    65   29   30 1   
    66   30   31 1   
    67   30   69 1   
    68   30   70 1   
    69   31   32 1   
    70   31   71 1   
    71   31   72 1   
    72   32   33 1   
    73   32   73 1   
    74   32   74 1   
    75   33   75 1   
    76   33   76 1   
    77   33   77 1   
    78   34   35 1   
    79   35   36 1   
    80   35   78 1   
    81   35   79 1   
    82   36   37 1   
    83   36   80 1   
    84   36   81 1   
    85   37   38 1   
    86   37   82 1   
    87   37   83 1   
    88   38   84 1   
    89   38   85 1   
    90   38   86 1   
@<TRIPOS>SUBSTRUCTURE
     1 DPD         1 TEMP              0 ****  ****    0 ROOT
