@<TRIPOS>MOLECULE
DPD
   86    80     1     0     0
SMALL
bcc


@<TRIPOS>ATOM
      1 C11        -3.2090   -0.1260    6.4040 c1        1 DPD     -0.065500
      2 C12        -4.4120   -0.3490    5.7070 c1        1 DPD     -0.129250
      3 C13        -4.8180   -1.6490    5.4130 c1        1 DPD     -0.129250
      4 C14        -4.0330   -2.7320    5.8090 c1        1 DPD     -0.129250
      5 C15        -2.8340   -2.5140    6.5030 c1        1 DPD     -0.129250
      6 C16        -2.4240   -1.2070    6.7990 c1        1 DPD     -0.121000
      7 C21        -3.0670    1.6680    8.1660 c1        1 DPD     -0.065500
      8 C22        -4.0120    2.6500    8.4600 c1        1 DPD     -0.121000
      9 C23        -4.3020    2.9580    9.7670 c1        1 DPD     -0.129250
     10 C24        -3.6470    2.2840   10.8090 c1        1 DPD     -0.129250
     11 C25        -2.7170    1.3170   10.5220 c1        1 DPD     -0.129250
     12 C26        -2.4220    1.0040    9.1860 c1        1 DPD     -0.129250
     13 C1         -2.7510    1.3360    6.7180 c3        1 DPD     -0.030000
     14 C2         -1.2540    1.4670    6.4770 c3        1 DPD     -0.155000
     15 C3         -1.0110    2.4410    5.3010 c3        1 DPD     -0.080000
     16 N4          0.1710    2.0380    4.5820 n3        1 DPD     -0.297000
     17 C5          0.1880    2.6790    3.2660 c3        1 DPD     -0.072000
     18 C6          1.1140    1.8740    2.3070 c3        1 DPD     -0.237000
     19 C7          0.7520    2.2200    0.8170 c3        1 DPD     -0.069000
     20 N8          1.2370    1.1890   -0.0450 n3        1 DPD     -0.296000
     21 C9          0.5210    1.2190   -1.2450 c3        1 DPD      0.019000
     22 C19        -0.7210    0.3400   -1.1190 c3        1 DPD     -0.245000
     23 C31         1.4130    0.6970   -2.3970 c2        1 DPD     -0.087000
     24 C32         1.0440    0.9360   -3.7290 c2        1 DPD     -0.100000
     25 C33         1.7920    0.3730   -4.7790 c1        1 DPD      0.032000
     26 C34         2.8970   -0.4200   -4.4970 c1        1 DPD      0.058000
     27 C35         3.2690   -0.6600   -3.1630 c1        1 DPD     -0.191000
     28 C36         2.5230   -0.0990   -2.1140 c1        1 DPD     -0.104000
     29 O3          1.4970    0.7180   -6.1180 os        1 DPD     -0.217000
     30 C41         0.4020   -0.0090   -6.6720 c3        1 DPD     -0.021000
     31 C42         0.2350    0.3680   -8.1840 c3        1 DPD     -0.164000
     32 C43        -0.7160   -0.6770   -8.8810 c3        1 DPD     -0.157000
     33 C44        -0.7340   -0.4270  -10.3940 c3        1 DPD     -0.210000
     34 O4          3.7270   -0.8900   -5.5660 os        1 DPD     -0.211000
     35 C51         4.0450   -2.3010   -5.4840 c3        1 DPD     -0.022000
     36 C52         4.8340   -2.7350   -6.7600 c3        1 DPD     -0.165000
     37 C53         5.0410   -4.2240   -6.7340 c3        1 DPD     -0.157000
     38 C54         5.4260   -4.7170   -8.1210 c3        1 DPD     -0.210000
     39 H12        -4.9620    0.4080    5.4290 ha        1 DPD      0.130875
     40 H13        -5.6750   -1.8050    4.9160 ha        1 DPD      0.130875
     41 H14        -4.3160   -3.6360    5.6040 ha        1 DPD      0.130875
     42 H15        -2.2720   -3.2920    6.7860 ha        1 DPD      0.130875
     43 H16        -1.5700   -1.0510    7.2940 ha        1 DPD      0.134000
     44 H22        -4.4790    3.1320    7.7180 ha        1 DPD      0.134000
     45 H23        -4.9540    3.6350    9.9680 ha        1 DPD      0.130875
     46 H24        -3.8580    2.5070   11.7600 ha        1 DPD      0.130875
     47 H25        -2.2620    0.8480   11.2450 ha        1 DPD      0.130875
     48 H26        -1.7420    0.2980    8.9740 ha        1 DPD      0.130875
     49 H1         -3.2510    1.9870    6.1050 hc        1 DPD      0.100000
     50 H22A       -0.8890    0.6120    6.2630 hc        1 DPD      0.092500
     51 H21        -0.8210    1.8150    7.2840 hc        1 DPD      0.092500
     52 H32A       -0.8900    3.3390    5.6440 h1        1 DPD      0.071500
     53 H31        -1.7700    2.4230    4.7070 h1        1 DPD      0.071500
     54 H4          0.1710    1.1430    4.4810 hn        1 DPD      0.152000
     55 H52        -0.7060    2.7020    2.9060 h1        1 DPD      0.091500
     56 H51         0.5260    3.5920    3.3530 h1        1 DPD      0.091500
     57 H62         2.0680    2.1170    2.4840 hc        1 DPD      0.083000
     58 H61         0.9840    0.8890    2.4640 hc        1 DPD      0.083000
     59 H72        -0.2380    2.2920    0.7240 h1        1 DPD      0.089500
     60 H71         1.1750    3.0930    0.5650 h1        1 DPD      0.089500
     61 H8          1.1230    0.3680    0.3620 hn        1 DPD      0.156000
     62 H9          0.2520    2.1250   -1.4350 h1        1 DPD      0.101000
     63 H193       -1.4790    0.7790   -1.5640 hc        1 DPD      0.079000
     64 H192       -0.9330    0.2050   -0.1610 hc        1 DPD      0.079000
     65 H191       -0.5550   -0.5080   -1.5320 hc        1 DPD      0.079000
     66 H32         0.2560    1.5020   -3.9300 ha        1 DPD      0.151000
     67 H35         4.0420   -1.2150   -2.9670 ha        1 DPD      0.138000
     68 H36         2.7840   -0.2690   -1.1780 ha        1 DPD      0.130000
     69 H412       -0.4170    0.2160   -6.1880 h1        1 DPD      0.081000
     70 H411        0.5760   -0.9760   -6.5920 h1        1 DPD      0.081000
     71 H422       -0.1650    1.2850   -8.2570 hc        1 DPD      0.094500
     72 H421        1.1190    0.3580   -8.6270 hc        1 DPD      0.094500
     73 H432       -0.3830   -1.6060   -8.6990 hc        1 DPD      0.078000
     74 H431       -1.6410   -0.5780   -8.5170 hc        1 DPD      0.078000
     75 H443       -1.0710    0.4740  -10.5720 hc        1 DPD      0.073333
     76 H442       -1.3200   -1.0870  -10.8270 hc        1 DPD      0.073333
     77 H441        0.1740   -0.5130  -10.7500 hc        1 DPD      0.073333
     78 H512        4.6000   -2.4690   -4.6810 h1        1 DPD      0.079000
     79 H511        3.1990   -2.8300   -5.4200 h1        1 DPD      0.079000
     80 H522        5.6930   -2.2900   -6.7740 hc        1 DPD      0.097500
     81 H521        4.3270   -2.4900   -7.5550 hc        1 DPD      0.097500
     82 H532        5.7450   -4.4380   -6.1120 hc        1 DPD      0.079000
     83 H531        4.2290   -4.6540   -6.4570 hc        1 DPD      0.079000
     84 H543        5.4470   -5.7030   -8.1240 hc        1 DPD      0.075000
     85 H542        6.3170   -4.3690   -8.3580 hc        1 DPD      0.075000
     86 H541        4.7700   -4.4030   -8.7730 hc        1 DPD      0.075000
@<TRIPOS>BOND
     1    1    6 1   
     2    1   13 1   
     3    2    3 1   
     4    2   39 1   
     5    3   40 1   
     6    4    5 1   
     7    4   41 1   
     8    5   42 1   
     9    6   43 1   
    10    7    8 1   
    11    7   13 1   
    12    8   44 1   
    13    9   10 1   
    14    9   45 1   
    15   10   46 1   
    16   11   12 1   
    17   11   47 1   
    18   12   48 1   
    19   13   14 1   
    20   13   49 1   
    21   14   15 1   
    22   14   50 1   
    23   14   51 1   
    24   15   16 1   
    25   15   52 1   
    26   15   53 1   
    27   16   17 1   
    28   16   54 1   
    29   17   18 1   
    30   17   55 1   
    31   17   56 1   
    32   18   19 1   
    33   18   57 1   
    34   18   58 1   
    35   19   20 1   
    36   19   59 1   
    37   19   60 1   
    38   20   21 1   
    39   20   61 1   
    40   21   22 1   
    41   21   23 1   
    42   21   62 1   
    43   22   63 1   
    44   22   64 1   
    45   22   65 1   
    46   23   24 1   
    47   23   28 1   
    48   24   25 1   
    49   24   66 1   
    50   25   29 1   
    51   26   27 1   
    52   26   34 1   
    53   27   67 1   
    54   28   68 1   
    55   29   30 1   
    56   30   31 1   
    57   30   69 1   
    58   30   70 1   
    59   31   32 1   
    60   31   71 1   
    61   31   72 1   
    62   32   33 1   
    63   32   73 1   
    64   32   74 1   
    65   33   75 1   
    66   33   76 1   
    67   33   77 1   
    68   34   35 1   
    69   35   36 1   
    70   35   78 1   
    71   35   79 1   
    72   36   37 1   
    73   36   80 1   
    74   36   81 1   
    75   37   38 1   
    76   37   82 1   
    77   37   83 1   
    78   38   84 1   
    79   38   85 1   
    80   38   86 1   
@<TRIPOS>SUBSTRUCTURE
     1 DPD         1 TEMP              0 ****  ****    0 ROOT
