@<TRIPOS>MOLECULE
DPD
   86    88     1     0     0
SMALL
bcc


@<TRIPOS>ATOM
      1 C11         1.0340    0.0650    8.4650 ca        1 DPD     -0.072800
      2 C12         1.6720    1.3100    8.4690 ca        1 DPD     -0.124000
      3 C13         2.5150    1.6670    9.5210 ca        1 DPD     -0.128500
      4 C14         2.7300    0.7850   10.5790 ca        1 DPD     -0.130500
      5 C15         2.0980   -0.4580   10.5820 ca        1 DPD     -0.128500
      6 C16         1.2550   -0.8170    9.5320 ca        1 DPD     -0.124000
      7 C21        -1.2950    0.0520    7.6270 ca        1 DPD     -0.072800
      8 C22        -2.3060   -0.9160    7.6460 ca        1 DPD     -0.124000
      9 C23        -3.6280   -0.5490    7.8960 ca        1 DPD     -0.128500
     10 C24        -3.9520    0.7870    8.1290 ca        1 DPD     -0.130500
     11 C25        -2.9490    1.7560    8.1130 ca        1 DPD     -0.128500
     12 C26        -1.6270    1.3910    7.8630 ca        1 DPD     -0.124000
     13 C1          0.1230   -0.3540    7.3490 c3        1 DPD      0.025900
     14 C2          0.5970    0.1910    6.0030 c3        1 DPD     -0.077400
     15 C3         -0.0130   -0.6130    4.8570 c3        1 DPD      0.162800
     16 N4          0.3280   -0.0810    3.5520 n3        1 DPD     -0.822200
     17 C5         -0.1470   -0.9100    2.4630 c3        1 DPD      0.165800
     18 C6          0.3980   -0.4790    1.1030 c3        1 DPD     -0.087400
     19 C7         -0.2110   -1.3680    0.0190 c3        1 DPD      0.166800
     20 N8          0.2330   -1.0050   -1.3100 n3        1 DPD     -0.818200
     21 C9         -0.3410   -1.8150   -2.3780 c3        1 DPD      0.225800
     22 C19        -0.1000   -3.3260   -2.2770 c3        1 DPD     -0.128100
     23 C31         0.1460   -1.3390   -3.7270 ca        1 DPD     -0.074300
     24 C32        -0.7680   -0.7750   -4.6260 ca        1 DPD     -0.164000
     25 C33        -0.3380   -0.3430   -5.8800 ca        1 DPD      0.104100
     26 C34         1.0320   -0.4690   -6.2420 ca        1 DPD      0.107100
     27 C35         1.9330   -1.0280   -5.3350 ca        1 DPD     -0.181000
     28 C36         1.4880   -1.4560   -4.0830 ca        1 DPD     -0.123000
     29 O3         -1.1570    0.1940   -6.8520 os        1 DPD     -0.309900
     30 C41        -2.4670    0.5770   -6.4130 c3        1 DPD      0.126400
     31 C42        -3.0920    1.3190   -7.5820 c3        1 DPD     -0.085400
     32 C43        -4.5010    1.7490   -7.2380 c3        1 DPD     -0.079400
     33 C44        -5.1410    2.4910   -8.3830 c3        1 DPD     -0.092100
     34 O4          1.3520   -0.0100   -7.5020 os        1 DPD     -0.307900
     35 C51         2.7260   -0.1560   -7.8830 c3        1 DPD      0.126400
     36 C52         2.8200    0.3970   -9.2950 c3        1 DPD     -0.085400
     37 C53         4.2410    0.2950   -9.8060 c3        1 DPD     -0.078400
     38 C54         4.3580    0.8380  -11.2070 c3        1 DPD     -0.092100
     39 H12         1.5110    2.0150    7.6390 ha        1 DPD      0.131750
     40 H13         3.0120    2.6490    9.5130 ha        1 DPD      0.130750
     41 H14         3.3950    1.0680   11.4070 ha        1 DPD      0.131000
     42 H15         2.2630   -1.1570   11.4150 ha        1 DPD      0.130750
     43 H16         0.7570   -1.7980    9.5420 ha        1 DPD      0.131750
     44 H22        -2.0590   -1.9730    7.4630 ha        1 DPD      0.131750
     45 H23        -4.4150   -1.3170    7.9090 ha        1 DPD      0.130750
     46 H24        -4.9940    1.0750    8.3260 ha        1 DPD      0.131000
     47 H25        -3.2000    2.8110    8.2970 ha        1 DPD      0.130750
     48 H26        -0.8350    2.1550    7.8580 ha        1 DPD      0.131750
     49 H1          0.1610   -1.4840    7.2900 hc        1 DPD      0.057700
     50 H22A        1.7160    0.1320    5.9580 hc        1 DPD      0.053200
     51 H21         0.3070    1.2700    5.9080 hc        1 DPD      0.053200
     52 H32A       -1.1370   -0.5860    4.9520 h1        1 DPD      0.031200
     53 H31         0.3030   -1.6940    4.9700 h1        1 DPD      0.031200
     54 H4          1.3170    0.0690    3.4790 hn        1 DPD      0.354800
     55 H52        -1.2720   -0.8310    2.4510 h1        1 DPD      0.028700
     56 H51         0.1050   -2.0030    2.6180 h1        1 DPD      0.028700
     57 H62         1.5160   -0.5660    1.0900 hc        1 DPD      0.054200
     58 H61         0.1400    0.5950    0.9070 hc        1 DPD      0.054200
     59 H72        -1.3330   -1.2600    0.0450 h1        1 DPD      0.028200
     60 H71         0.0250   -2.4460    0.2730 h1        1 DPD      0.028200
     61 H8          1.2350   -1.0080   -1.3650 hn        1 DPD      0.358800
     62 H9         -1.4620   -1.6510   -2.3220 h1        1 DPD      0.059700
     63 H193        0.9910   -3.5550   -2.2250 hc        1 DPD      0.040367
     64 H192       -0.5990   -3.7440   -1.3710 hc        1 DPD      0.040367
     65 H191       -0.5240   -3.8290   -3.1790 hc        1 DPD      0.040367
     66 H32        -1.8230   -0.6740   -4.3340 ha        1 DPD      0.141000
     67 H35         2.9970   -1.1310   -5.5930 ha        1 DPD      0.138000
     68 H36         2.2100   -1.8930   -3.3780 ha        1 DPD      0.129000
     69 H412       -3.0550   -0.3450   -6.1610 h1        1 DPD      0.037700
     70 H411       -2.3920    1.2350   -5.5080 h1        1 DPD      0.037700
     71 H422       -2.4630    2.2130   -7.8320 hc        1 DPD      0.058700
     72 H421       -3.0980    0.6550   -8.4840 hc        1 DPD      0.058700
     73 H432       -5.1170    0.8470   -6.9820 hc        1 DPD      0.039200
     74 H431       -4.4820    2.4060   -6.3270 hc        1 DPD      0.039200
     75 H443       -6.1790    2.8000   -8.1120 hc        1 DPD      0.034700
     76 H442       -4.5540    3.4070   -8.6360 hc        1 DPD      0.034700
     77 H441       -5.1900    1.8450   -9.2920 hc        1 DPD      0.034700
     78 H512        3.0130   -1.2400   -7.8540 h1        1 DPD      0.036700
     79 H511        3.3760    0.4250   -7.1780 h1        1 DPD      0.036700
     80 H522        2.4810    1.4660   -9.2990 hc        1 DPD      0.059700
     81 H521        2.1240   -0.1730   -9.9640 hc        1 DPD      0.059700
     82 H532        4.5700   -0.7780   -9.7890 hc        1 DPD      0.038700
     83 H531        4.9270    0.8630   -9.1230 hc        1 DPD      0.038700
     84 H543        5.4120    0.7550  -11.5670 hc        1 DPD      0.035033
     85 H542        3.6990    0.2690  -11.9060 hc        1 DPD      0.035033
     86 H541        4.0570    1.9130  -11.2390 hc        1 DPD      0.035033
@<TRIPOS>BOND
     1    1    2 ar  
     2    1    6 ar  
     3    1   13 1   
     4    2    3 ar  
     5    2   39 1   
     6    3    4 ar  
     7    3   40 1   
     8    4    5 ar  
     9    4   41 1   
    10    5    6 ar  
    11    5   42 1   
    12    6   43 1   
    13    7    8 ar  
    14    7   12 ar  
    15    7   13 1   
    16    8    9 ar  
    17    8   44 1   
    18    9   10 ar  
    19    9   45 1   
    20   10   11 ar  
    21   10   46 1   
    22   11   12 ar  
    23   11   47 1   
    24   12   48 1   
    25   13   14 1   
    26   13   49 1   
    27   14   15 1   
    28   14   50 1   
    29   14   51 1   
    30   15   16 1   
    31   15   52 1   
    32   15   53 1   
    33   16   17 1   
    34   16   54 1   
    35   17   18 1   
    36   17   55 1   
    37   17   56 1   
    38   18   19 1   
    39   18   57 1   
    40   18   58 1   
    41   19   20 1   
    42   19   59 1   
    43   19   60 1   
    44   20   21 1   
    45   20   61 1   
    46   21   22 1   
    47   21   23 1   
    48   21   62 1   
    49   22   63 1   
    50   22   64 1   
    51   22   65 1   
    52   23   24 ar  
    53   23   28 ar  
    54   24   25 ar  
    55   24   66 1   
    56   25   26 ar  
    57   25   29 1   
    58   26   27 ar  
    59   26   34 1   
    60   27   28 ar  
    61   27   67 1   
    62   28   68 1   
    63   29   30 1   
    64   30   31 1   
    65   30   69 1   
    66   30   70 1   
    67   31   32 1   
    68   31   71 1   
    69   31   72 1   
    70   32   33 1   
    71   32   73 1   
    72   32   74 1   
    73   33   75 1   
    74   33   76 1   
    75   33   77 1   
    76   34   35 1   
    77   35   36 1   
    78   35   78 1   
    79   35   79 1   
    80   36   37 1   
    81   36   80 1   
    82   36   81 1   
    83   37   38 1   
    84   37   82 1   
    85   37   83 1   
    86   38   84 1   
    87   38   85 1   
    88   38   86 1   
@<TRIPOS>SUBSTRUCTURE
     1 DPD         1 TEMP              0 ****  ****    0 ROOT
