@<TRIPOS>MOLECULE
DPD
   88    90     1     0     0
SMALL
bcc


@<TRIPOS>ATOM
      1 C11         0.1810    0.5190    0.0550 ca        1 DPD     -0.116800
      2 C12         1.2500    1.4080   -0.0980 ca        1 DPD     -0.128500
      3 C13         2.0790    1.7020    0.9830 ca        1 DPD     -0.118250
      4 C14         1.8460    1.1120    2.2250 ca        1 DPD     -0.106000
      5 C15         0.7780    0.2270    2.3840 ca        1 DPD     -0.118250
      6 C16        -0.0520   -0.0690    1.3040 ca        1 DPD     -0.128500
      7 C21        -1.2800    1.4130   -1.7570 ca        1 DPD     -0.116800
      8 C22        -2.5240    1.8990   -1.3330 ca        1 DPD     -0.128500
      9 C23        -3.0630    3.0520   -1.9020 ca        1 DPD     -0.118250
     10 C24        -2.3660    3.7320   -2.9010 ca        1 DPD     -0.106000
     11 C25        -1.1260    3.2560   -3.3260 ca        1 DPD     -0.118250
     12 C26        -0.5860    2.1030   -2.7580 ca        1 DPD     -0.128500
     13 C1         -0.7270    0.1890   -1.0920 c3        1 DPD      0.052900
     14 C2          0.0250   -0.7300   -2.0620 c3        1 DPD     -0.108400
     15 C3         -0.9050   -1.1300   -3.1990 c3        1 DPD      0.100800
     16 N4         -0.2150   -2.0060   -4.2090 n4        1 DPD     -0.763000
     17 C5         -1.1290   -2.3890   -5.3210 c3        1 DPD      0.104800
     18 C6         -0.4610   -3.2780   -6.3690 c3        1 DPD     -0.137400
     19 C7         -1.4910   -3.6040   -7.4510 c3        1 DPD      0.101800
     20 N8         -0.9550   -4.4670   -8.5320 n4        1 DPD     -0.783000
     21 C9         -2.0070   -4.8130   -9.6050 c3        1 DPD      0.230800
     22 C19        -3.0130   -5.8230   -9.0830 c3        1 DPD     -0.132100
     23 C31        -1.2670   -5.2800  -10.8100 ca        1 DPD     -0.235300
     24 C32        -1.0600   -4.3700  -11.8670 ca        1 DPD     -0.171000
     25 C33        -0.4010   -4.7800  -13.0170 ca        1 DPD      0.121100
     26 C34         0.0770   -6.1300  -13.1240 ca        1 DPD      0.194100
     27 C35        -0.1310   -7.0160  -12.0620 ca        1 DPD     -0.206000
     28 C36        -0.8020   -6.5900  -10.9160 ca        1 DPD     -0.075000
     29 O3         -0.1150   -3.9820  -14.0940 os        1 DPD     -0.289900
     30 C41        -0.8550   -2.7520  -14.1890 c3        1 DPD      0.126400
     31 C42        -0.5350   -2.1920  -15.5640 c3        1 DPD     -0.088400
     32 C43        -1.2430   -0.8710  -15.7690 c3        1 DPD     -0.076400
     33 C44        -0.9390   -0.2980  -17.1290 c3        1 DPD     -0.096100
     34 O4          0.7140   -6.4250  -14.2870 os        1 DPD     -0.279900
     35 C51         1.1550   -7.7900  -14.4620 c3        1 DPD      0.121400
     36 C52         1.7760   -7.8330  -15.8460 c3        1 DPD     -0.088400
     37 C53         2.2810   -9.2290  -16.1430 c3        1 DPD     -0.077400
     38 C54         2.9030   -9.2980  -17.5140 c3        1 DPD     -0.096100
     39 H12         1.4250    1.8960   -1.0690 ha        1 DPD      0.129000
     40 H13         2.9140    2.4090    0.8580 ha        1 DPD      0.149500
     41 H14         2.4980    1.3490    3.0810 ha        1 DPD      0.154500
     42 H15         0.5860   -0.2330    3.3660 ha        1 DPD      0.149500
     43 H16        -0.8980   -0.7580    1.4440 ha        1 DPD      0.129000
     44 H22        -3.0720    1.3830   -0.5290 ha        1 DPD      0.129000
     45 H23        -4.0350    3.4340   -1.5500 ha        1 DPD      0.149500
     46 H24        -2.7850    4.6510   -3.3410 ha        1 DPD      0.154500
     47 H25        -0.5620    3.8030   -4.0970 ha        1 DPD      0.149500
     48 H26         0.4110    1.7660   -3.0780 ha        1 DPD      0.129000
     49 H1         -1.6020   -0.4040   -0.6860 hc        1 DPD      0.063700
     50 H22A        0.9310   -0.1950   -2.4510 hc        1 DPD      0.074700
     51 H21         0.3720   -1.6340   -1.4960 hc        1 DPD      0.074700
     52 H32A       -1.7910   -1.7010   -2.7980 hx        1 DPD      0.117700
     53 H31        -1.2730   -0.2030   -3.7320 hx        1 DPD      0.117700
     54 H4          0.1330   -2.8490   -3.7360 hn        1 DPD      0.454800
     55 H52        -2.0150   -2.9240   -4.8680 hx        1 DPD      0.118700
     56 H51        -1.5000   -1.4360   -5.8020 hx        1 DPD      0.118700
     57 H62         0.4210   -2.7490   -6.8220 hc        1 DPD      0.086200
     58 H61        -0.0870   -4.2250   -5.8930 hc        1 DPD      0.086200
     59 H72        -2.3750   -4.1360   -6.9910 hx        1 DPD      0.113700
     60 H71        -1.8630   -2.6480   -7.9240 hx        1 DPD      0.113700
     61 H8         -0.1740   -3.9960   -9.0070 hn        1 DPD      0.450800
     62 H9         -2.5390   -3.8380   -9.8270 hx        1 DPD      0.101700
     63 H193       -2.5280   -6.7570   -8.7080 hc        1 DPD      0.080700
     64 H192       -3.6830   -6.1060   -9.9380 hc        1 DPD      0.080700
     65 H191       -3.6480   -5.3880   -8.2740 hc        1 DPD      0.080700
     66 H32        -1.4470   -3.3430  -11.7930 ha        1 DPD      0.141000
     67 H35         0.2180   -8.0580  -12.1290 ha        1 DPD      0.169000
     68 H36        -0.9730   -7.3150  -10.1050 ha        1 DPD      0.133000
     69 H412       -0.5110   -2.0580  -13.3770 h1        1 DPD      0.035200
     70 H411       -1.9510   -2.9580  -14.0760 h1        1 DPD      0.035200
     71 H422        0.5740   -2.0590  -15.6640 hc        1 DPD      0.070200
     72 H421       -0.8520   -2.9290  -16.3490 hc        1 DPD      0.070200
     73 H432       -2.3510   -1.0160  -15.6610 hc        1 DPD      0.037200
     74 H431       -0.9240   -0.1450  -14.9750 hc        1 DPD      0.037200
     75 H443        0.1580   -0.1240  -17.2490 hc        1 DPD      0.045367
     76 H442       -1.2730   -0.9960  -17.9350 hc        1 DPD      0.045367
     77 H441       -1.4690    0.6760  -17.2640 hc        1 DPD      0.045367
     78 H512        0.2700   -8.4740  -14.3860 h1        1 DPD      0.049700
     79 H511        1.9050   -8.0360  -13.6660 h1        1 DPD      0.049700
     80 H522        1.0140   -7.5260  -16.6080 hc        1 DPD      0.068200
     81 H521        2.6190   -7.0960  -15.9020 hc        1 DPD      0.068200
     82 H532        1.4310   -9.9590  -16.0790 hc        1 DPD      0.042200
     83 H531        3.0370   -9.5300  -15.3700 hc        1 DPD      0.042200
     84 H543        3.2700  -10.3340  -17.7180 hc        1 DPD      0.044367
     85 H542        3.7680   -8.5960  -17.5920 hc        1 DPD      0.044367
     86 H541        2.1590   -9.0270  -18.3010 hc        1 DPD      0.044367
     87 H42         0.5980   -1.5000   -4.5830 hn        1 DPD      0.454800
     88 H82        -0.6010   -5.3450   -8.1380 hn        1 DPD      0.450800
@<TRIPOS>BOND
     1    1    2 ar  
     2    1    6 ar  
     3    1   13 1   
     4    2    3 ar  
     5    2   39 1   
     6    3    4 ar  
     7    3   40 1   
     8    4    5 ar  
     9    4   41 1   
    10    5    6 ar  
    11    5   42 1   
    12    6   43 1   
    13    7    8 ar  
    14    7   12 ar  
    15    7   13 1   
    16    8    9 ar  
    17    8   44 1   
    18    9   10 ar  
    19    9   45 1   
    20   10   11 ar  
    21   10   46 1   
    22   11   12 ar  
    23   11   47 1   
    24   12   48 1   
    25   13   14 1   
    26   13   49 1   
    27   14   15 1   
    28   14   50 1   
    29   14   51 1   
    30   15   16 1   
    31   15   52 1   
    32   15   53 1   
    33   16   17 1   
    34   16   54 1   
    35   16   87 1   
    36   17   18 1   
    37   17   55 1   
    38   17   56 1   
    39   18   19 1   
    40   18   57 1   
    41   18   58 1   
    42   19   20 1   
    43   19   59 1   
    44   19   60 1   
    45   20   21 1   
    46   20   61 1   
    47   20   88 1   
    48   21   22 1   
    49   21   23 1   
    50   21   62 1   
    51   22   63 1   
    52   22   64 1   
    53   22   65 1   
    54   23   24 ar  
    55   23   28 ar  
    56   24   25 ar  
    57   24   66 1   
    58   25   26 ar  
    59   25   29 1   
    60   26   27 ar  
    61   26   34 1   
    62   27   28 ar  
    63   27   67 1   
    64   28   68 1   
    65   29   30 1   
    66   30   31 1   
    67   30   69 1   
    68   30   70 1   
    69   31   32 1   
    70   31   71 1   
    71   31   72 1   
    72   32   33 1   
    73   32   73 1   
    74   32   74 1   
    75   33   75 1   
    76   33   76 1   
    77   33   77 1   
    78   34   35 1   
    79   35   36 1   
    80   35   78 1   
    81   35   79 1   
    82   36   37 1   
    83   36   80 1   
    84   36   81 1   
    85   37   38 1   
    86   37   82 1   
    87   37   83 1   
    88   38   84 1   
    89   38   85 1   
    90   38   86 1   
@<TRIPOS>SUBSTRUCTURE
     1 DPD         1 TEMP              0 ****  ****    0 ROOT
