@<TRIPOS>MOLECULE
DPE
   42    41     1     0     0
SMALL
bcc


@<TRIPOS>ATOM
      1 C1          3.1680    8.0880    7.5690 c3        1 DPE     -0.421600
      2 C2          2.8980    6.7540    6.9120 c3        1 DPE     -0.061400
      3 C3          3.1740    6.7590    5.4210 c3        1 DPE     -0.080400
      4 C4          2.8950    5.4000    4.8160 c3        1 DPE     -0.080400
      5 C5          3.1680    5.3980    3.3270 c3        1 DPE     -0.078400
      6 C6          2.8920    4.0390    2.7210 c3        1 DPE     -0.079400
      7 C7          3.1640    4.0360    1.2320 c3        1 DPE     -0.078400
      8 C8          2.8890    2.6770    0.6250 c3        1 DPE     -0.079400
      9 C9          3.1610    2.6740   -0.8630 c3        1 DPE     -0.079400
     10 C10         2.8850    1.3150   -1.4710 c3        1 DPE     -0.080400
     11 C11         3.1550    1.3070   -2.9540 c3        1 DPE     -0.092100
     12 P           1.7640    8.7730    8.0850 p5        1 DPE      1.467300
     13 O1P         0.9520    8.0410    9.0410 o         1 DPE     -0.815300
     14 O2P         2.2020   10.2140    8.6860 os        1 DPE     -0.586200
     15 CM          2.4980   11.2610    7.8070 c3        1 DPE      0.165700
     16 H11         3.8660    7.9260    8.4350 hc        1 DPE      0.106200
     17 H12         3.7420    8.7450    6.8660 hc        1 DPE      0.106200
     18 H21         1.8300    6.4510    7.0990 hc        1 DPE      0.056200
     19 H22         3.5390    5.9570    7.3810 hc        1 DPE      0.056200
     20 H31         2.5410    7.5310    4.9090 hc        1 DPE      0.041200
     21 H32         4.2460    7.0380    5.2420 hc        1 DPE      0.041200
     22 H41         3.5350    4.6260    5.3160 hc        1 DPE      0.044200
     23 H42         1.8260    5.1160    5.0030 hc        1 DPE      0.044200
     24 H51         4.2370    5.6840    3.1390 hc        1 DPE      0.039700
     25 H52         2.5260    6.1700    2.8250 hc        1 DPE      0.039700
     26 H61         1.8240    3.7530    2.9090 hc        1 DPE      0.041200
     27 H62         3.5340    3.2670    3.2210 hc        1 DPE      0.041200
     28 H71         2.5220    4.8080    0.7310 hc        1 DPE      0.039700
     29 H72         4.2330    4.3220    1.0440 hc        1 DPE      0.039700
     30 H81         3.5300    1.9050    1.1270 hc        1 DPE      0.040200
     31 H82         1.8200    2.3910    0.8130 hc        1 DPE      0.040200
     32 H91         4.2290    2.9600   -1.0520 hc        1 DPE      0.039700
     33 H92         2.5190    3.4460   -1.3650 hc        1 DPE      0.039700
     34 H101        3.5260    0.5440   -0.9670 hc        1 DPE      0.038700
     35 H102        1.8170    1.0300   -1.2810 hc        1 DPE      0.038700
     36 H111        2.5070    2.0520   -3.4760 hc        1 DPE      0.032700
     37 H112        4.2220    1.5640   -3.1620 hc        1 DPE      0.032700
     38 H113        2.9460    0.2970   -3.3810 hc        1 DPE      0.032700
     39 HM1         2.4240   10.9190    6.7420 h1        1 DPE      0.032367
     40 HM2         3.5380   11.6240    8.0230 h1        1 DPE      0.032367
     41 HM3         1.7780   12.1010    7.9940 h1        1 DPE      0.032367
     42 HP1         1.1860    9.1070    6.9810 hp        1 DPE     -0.188400
@<TRIPOS>BOND
     1    1    2 1   
     2    1   12 1   
     3    1   16 1   
     4    1   17 1   
     5    2    3 1   
     6    2   18 1   
     7    2   19 1   
     8    3    4 1   
     9    3   20 1   
    10    3   21 1   
    11    4    5 1   
    12    4   22 1   
    13    4   23 1   
    14    5    6 1   
    15    5   24 1   
    16    5   25 1   
    17    6    7 1   
    18    6   26 1   
    19    6   27 1   
    20    7    8 1   
    21    7   28 1   
    22    7   29 1   
    23    8    9 1   
    24    8   30 1   
    25    8   31 1   
    26    9   10 1   
    27    9   32 1   
    28    9   33 1   
    29   10   11 1   
    30   10   34 1   
    31   10   35 1   
    32   11   36 1   
    33   11   37 1   
    34   11   38 1   
    35   12   13 2   
    36   12   14 1   
    37   12   42 1   
    38   14   15 1   
    39   15   39 1   
    40   15   40 1   
    41   15   41 1   
@<TRIPOS>SUBSTRUCTURE
     1 DPE         1 TEMP              0 ****  ****    0 ROOT
