@<TRIPOS>MOLECULE
DPE
   42    41     1     0     0
SMALL
bcc


@<TRIPOS>ATOM
      1 C1         -4.0420   -0.0350   -2.2710 c3        1 DPE     -0.413600
      2 C2         -2.5340   -0.0080   -2.3010 c3        1 DPE     -0.074400
      3 C3         -2.0010    0.2570   -0.8820 c3        1 DPE     -0.070400
      4 C4         -0.5060    0.0250   -0.8520 c3        1 DPE     -0.080400
      5 C5          0.0230    0.2770    0.5540 c3        1 DPE     -0.078400
      6 C6          1.5030   -0.0730    0.6030 c3        1 DPE     -0.079400
      7 C7          2.0780    0.3100    1.9770 c3        1 DPE     -0.078400
      8 C8          3.5510   -0.1500    2.0680 c3        1 DPE     -0.079400
      9 C9          4.1030    0.2090    3.4310 c3        1 DPE     -0.079400
     10 C10         5.4800   -0.3420    3.5800 c3        1 DPE     -0.080400
     11 C11         6.0980    0.1980    4.8800 c3        1 DPE     -0.092100
     12 P          -4.6800   -0.4280   -3.9310 p5        1 DPE      1.458300
     13 O1P        -4.1770   -1.7440   -4.3510 o         1 DPE     -0.848300
     14 O2P        -6.2370   -0.4560   -3.8940 os        1 DPE     -0.611200
     15 CM         -6.9580   -0.1220   -5.0880 c3        1 DPE      0.153700
     16 H11        -4.3790    0.8440   -1.9910 hc        1 DPE      0.113200
     17 H12        -4.3460   -0.7270   -1.6290 hc        1 DPE      0.113200
     18 H21        -2.1930   -0.8790   -2.6250 hc        1 DPE      0.054700
     19 H22        -2.2310    0.7050   -2.9010 hc        1 DPE      0.054700
     20 H31        -2.4370   -0.3460   -0.2540 hc        1 DPE      0.044200
     21 H32        -2.1940    1.1880   -0.6290 hc        1 DPE      0.044200
     22 H41        -0.0610    0.6470   -1.4910 hc        1 DPE      0.042700
     23 H42        -0.3120   -0.9130   -1.1130 hc        1 DPE      0.042700
     24 H51        -0.4760   -0.2900    1.2050 hc        1 DPE      0.040200
     25 H52        -0.0990    1.2370    0.7880 hc        1 DPE      0.040200
     26 H61         1.6170   -1.0530    0.4550 hc        1 DPE      0.040700
     27 H62         1.9810    0.4240   -0.1060 hc        1 DPE      0.040700
     28 H71         2.0320    1.2860    2.0900 hc        1 DPE      0.039700
     29 H72         1.5570   -0.1250    2.6830 hc        1 DPE      0.039700
     30 H81         4.0760    0.2960    1.3740 hc        1 DPE      0.039700
     31 H82         3.5980   -1.1240    1.9420 hc        1 DPE      0.039700
     32 H91         3.5280   -0.1660    4.1220 hc        1 DPE      0.039700
     33 H92         4.1320    1.1720    3.5220 hc        1 DPE      0.039700
     34 H101        5.4400   -1.3090    3.6170 hc        1 DPE      0.038700
     35 H102        6.0250   -0.0680    2.8230 hc        1 DPE      0.038700
     36 H111        5.5460   -0.0910    5.6520 hc        1 DPE      0.032700
     37 H112        6.1250    1.1800    4.8460 hc        1 DPE      0.032700
     38 H113        7.0130   -0.1530    4.9820 hc        1 DPE      0.032700
     39 HM1        -7.9210   -0.0850   -4.8890 h1        1 DPE      0.045033
     40 HM2        -6.7870   -0.8220   -5.7910 h1        1 DPE      0.045033
     41 HM3        -6.6530    0.7660   -5.4220 h1        1 DPE      0.045033
     42 HP1        -4.2790    0.4880   -4.7840 hp        1 DPE     -0.164400
@<TRIPOS>BOND
     1    1    2 1   
     2    1   12 1   
     3    1   16 1   
     4    1   17 1   
     5    2    3 1   
     6    2   18 1   
     7    2   19 1   
     8    3    4 1   
     9    3   20 1   
    10    3   21 1   
    11    4    5 1   
    12    4   22 1   
    13    4   23 1   
    14    5    6 1   
    15    5   24 1   
    16    5   25 1   
    17    6    7 1   
    18    6   26 1   
    19    6   27 1   
    20    7    8 1   
    21    7   28 1   
    22    7   29 1   
    23    8    9 1   
    24    8   30 1   
    25    8   31 1   
    26    9   10 1   
    27    9   32 1   
    28    9   33 1   
    29   10   11 1   
    30   10   34 1   
    31   10   35 1   
    32   11   36 1   
    33   11   37 1   
    34   11   38 1   
    35   12   13 2   
    36   12   14 1   
    37   12   42 1   
    38   14   15 1   
    39   15   39 1   
    40   15   40 1   
    41   15   41 1   
@<TRIPOS>SUBSTRUCTURE
     1 DPE         1 TEMP              0 ****  ****    0 ROOT
