@<TRIPOS>MOLECULE
DPE
   42    41     1     0     0
SMALL
bcc


@<TRIPOS>ATOM
      1 C1          0.0600   -0.2230    0.2470 c3        1 DPE     -0.421600
      2 C2          1.5500    0.0320    0.2960 c3        1 DPE     -0.061400
      3 C3          2.1650   -0.3030    1.6400 c3        1 DPE     -0.080400
      4 C4          3.6560   -0.0370    1.6330 c3        1 DPE     -0.080400
      5 C5          4.2780   -0.3680    2.9730 c3        1 DPE     -0.078400
      6 C6          5.7680   -0.1050    2.9650 c3        1 DPE     -0.079400
      7 C7          6.3910   -0.4360    4.3050 c3        1 DPE     -0.078400
      8 C8          7.8810   -0.1730    4.2970 c3        1 DPE     -0.079400
      9 C9          8.5040   -0.5040    5.6360 c3        1 DPE     -0.079400
     10 C10         9.9950   -0.2420    5.6300 c3        1 DPE     -0.080400
     11 C11        10.6200   -0.5690    6.9620 c3        1 DPE     -0.092100
     12 P          -0.7650    1.1940    0.1200 p5        1 DPE      1.467300
     13 O1P        -0.4920    2.0490   -1.0210 o         1 DPE     -0.815300
     14 O2P        -2.3290    0.7680    0.1600 os        1 DPE     -0.586200
     15 CM         -2.9150    0.4290    1.3830 c3        1 DPE      0.165700
     16 H11        -0.2480   -0.8300    1.1370 hc        1 DPE      0.106200
     17 H12        -0.1610   -0.8860   -0.6340 hc        1 DPE      0.106200
     18 H21         1.7560    1.1080    0.0410 hc        1 DPE      0.056200
     19 H22         2.0720   -0.5840   -0.4880 hc        1 DPE      0.056200
     20 H31         1.9780   -1.3830    1.8780 hc        1 DPE      0.041200
     21 H32         1.6850    0.3030    2.4530 hc        1 DPE      0.041200
     22 H41         4.1440   -0.6510    0.8300 hc        1 DPE      0.044200
     23 H42         3.8450    1.0410    1.3860 hc        1 DPE      0.044200
     24 H51         3.7920    0.2470    3.7750 hc        1 DPE      0.039700
     25 H52         4.0870   -1.4450    3.2200 hc        1 DPE      0.039700
     26 H61         5.9590    0.9720    2.7170 hc        1 DPE      0.041200
     27 H62         6.2550   -0.7200    2.1620 hc        1 DPE      0.041200
     28 H71         5.9050    0.1800    5.1070 hc        1 DPE      0.039700
     29 H72         6.2000   -1.5130    4.5530 hc        1 DPE      0.039700
     30 H81         8.0720    0.9040    4.0490 hc        1 DPE      0.040200
     31 H82         8.3670   -0.7880    3.4940 hc        1 DPE      0.040200
     32 H91         8.0190    0.1120    6.4390 hc        1 DPE      0.039700
     33 H92         8.3130   -1.5810    5.8850 hc        1 DPE      0.039700
     34 H101       10.1840    0.8360    5.3800 hc        1 DPE      0.038700
     35 H102       10.4790   -0.8570    4.8260 hc        1 DPE      0.038700
     36 H111       11.7180   -0.3690    6.9350 hc        1 DPE      0.032700
     37 H112       10.4630   -1.6450    7.2170 hc        1 DPE      0.032700
     38 H113       10.1680    0.0510    7.7730 hc        1 DPE      0.032700
     39 HM1        -3.7500    1.1480    1.5940 h1        1 DPE      0.032367
     40 HM2        -3.3440   -0.6050    1.2990 h1        1 DPE      0.032367
     41 HM3        -2.1590    0.4640    2.2100 h1        1 DPE      0.032367
     42 HP1        -0.6020    1.7250    1.2850 hp        1 DPE     -0.188400
@<TRIPOS>BOND
     1    1    2 1   
     2    1   12 1   
     3    1   16 1   
     4    1   17 1   
     5    2    3 1   
     6    2   18 1   
     7    2   19 1   
     8    3    4 1   
     9    3   20 1   
    10    3   21 1   
    11    4    5 1   
    12    4   22 1   
    13    4   23 1   
    14    5    6 1   
    15    5   24 1   
    16    5   25 1   
    17    6    7 1   
    18    6   26 1   
    19    6   27 1   
    20    7    8 1   
    21    7   28 1   
    22    7   29 1   
    23    8    9 1   
    24    8   30 1   
    25    8   31 1   
    26    9   10 1   
    27    9   32 1   
    28    9   33 1   
    29   10   11 1   
    30   10   34 1   
    31   10   35 1   
    32   11   36 1   
    33   11   37 1   
    34   11   38 1   
    35   12   13 2   
    36   12   14 1   
    37   12   42 1   
    38   14   15 1   
    39   15   39 1   
    40   15   40 1   
    41   15   41 1   
@<TRIPOS>SUBSTRUCTURE
     1 DPE         1 TEMP              0 ****  ****    0 ROOT
