@<TRIPOS>MOLECULE
DPE
   42    41     1     0     0
SMALL
bcc


@<TRIPOS>ATOM
      1 C1          0.0560   -0.2220    0.2550 c3        1 DPE     -0.421600
      2 C2          1.5460    0.0290    0.3000 c3        1 DPE     -0.061400
      3 C3          2.1630   -0.3020    1.6450 c3        1 DPE     -0.080400
      4 C4          3.6550   -0.0410    1.6340 c3        1 DPE     -0.080400
      5 C5          4.2770   -0.3660    2.9750 c3        1 DPE     -0.078400
      6 C6          5.7690   -0.1100    2.9630 c3        1 DPE     -0.079400
      7 C7          6.3920   -0.4340    4.3040 c3        1 DPE     -0.078400
      8 C8          7.8840   -0.1790    4.2920 c3        1 DPE     -0.079400
      9 C9          8.5070   -0.5030    5.6330 c3        1 DPE     -0.079400
     10 C10        10.0000   -0.2490    5.6220 c3        1 DPE     -0.080400
     11 C11        10.6250   -0.5690    6.9550 c3        1 DPE     -0.092100
     12 P          -0.7660    1.1970    0.1230 p5        1 DPE      1.467300
     13 O1P        -0.4880    2.0480   -1.0200 o         1 DPE     -0.815300
     14 O2P        -2.3300    0.7740    0.1610 os        1 DPE     -0.586200
     15 CM         -2.9200    0.4400    1.3850 c3        1 DPE      0.165700
     16 H11        -0.2520   -0.8250    1.1480 hc        1 DPE      0.106200
     17 H12        -0.1680   -0.8880   -0.6230 hc        1 DPE      0.106200
     18 H21         1.7560    1.1030    0.0410 hc        1 DPE      0.056200
     19 H22         2.0660   -0.5920   -0.4810 hc        1 DPE      0.056200
     20 H31         1.9720   -1.3800    1.8890 hc        1 DPE      0.041200
     21 H32         1.6850    0.3090    2.4560 hc        1 DPE      0.041200
     22 H41         4.1390   -0.6600    0.8340 hc        1 DPE      0.044200
     23 H42         3.8470    1.0360    1.3810 hc        1 DPE      0.044200
     24 H51         3.7950    0.2550    3.7750 hc        1 DPE      0.039700
     25 H52         4.0820   -1.4420    3.2290 hc        1 DPE      0.039700
     26 H61         5.9640    0.9650    2.7080 hc        1 DPE      0.041200
     27 H62         6.2510   -0.7320    2.1640 hc        1 DPE      0.041200
     28 H71         5.9100    0.1890    5.1040 hc        1 DPE      0.039700
     29 H72         6.1960   -1.5090    4.5600 hc        1 DPE      0.039700
     30 H81         8.0800    0.8950    4.0360 hc        1 DPE      0.040200
     31 H82         8.3660   -0.8020    3.4930 hc        1 DPE      0.040200
     32 H91         8.0270    0.1210    6.4320 hc        1 DPE      0.039700
     33 H92         8.3120   -1.5770    5.8900 hc        1 DPE      0.039700
     34 H101       10.1940    0.8260    5.3630 hc        1 DPE      0.038700
     35 H102       10.4790   -0.8720    4.8220 hc        1 DPE      0.038700
     36 H111       11.7240   -0.3750    6.9250 hc        1 DPE      0.032700
     37 H112       10.4630   -1.6420    7.2190 hc        1 DPE      0.032700
     38 H113       10.1780    0.0600    7.7620 hc        1 DPE      0.032700
     39 HM1        -3.7530    1.1620    1.5930 h1        1 DPE      0.032367
     40 HM2        -3.3520   -0.5930    1.3020 h1        1 DPE      0.032367
     41 HM3        -2.1640    0.4740    2.2120 h1        1 DPE      0.032367
     42 HP1        -0.6030    1.7300    1.2870 hp        1 DPE     -0.188400
@<TRIPOS>BOND
     1    1    2 1   
     2    1   12 1   
     3    1   16 1   
     4    1   17 1   
     5    2    3 1   
     6    2   18 1   
     7    2   19 1   
     8    3    4 1   
     9    3   20 1   
    10    3   21 1   
    11    4    5 1   
    12    4   22 1   
    13    4   23 1   
    14    5    6 1   
    15    5   24 1   
    16    5   25 1   
    17    6    7 1   
    18    6   26 1   
    19    6   27 1   
    20    7    8 1   
    21    7   28 1   
    22    7   29 1   
    23    8    9 1   
    24    8   30 1   
    25    8   31 1   
    26    9   10 1   
    27    9   32 1   
    28    9   33 1   
    29   10   11 1   
    30   10   34 1   
    31   10   35 1   
    32   11   36 1   
    33   11   37 1   
    34   11   38 1   
    35   12   13 2   
    36   12   14 1   
    37   12   42 1   
    38   14   15 1   
    39   15   39 1   
    40   15   40 1   
    41   15   41 1   
@<TRIPOS>SUBSTRUCTURE
     1 DPE         1 TEMP              0 ****  ****    0 ROOT
