@<TRIPOS>MOLECULE
DPF
   19    18     1     0     0
SMALL
bcc


@<TRIPOS>ATOM
      1 O4          0.0000   -1.2660    1.0240 o         1 DPF     -0.839500
      2 P1         -0.0000   -0.3480   -0.1330 p5        1 DPF      1.413800
      3 O2         -0.0000   -0.8000   -1.5390 o         1 DPF     -0.839500
      4 O3         -1.2400    0.7280    0.0620 os        1 DPF     -0.555200
      5 C1         -2.4730    0.0780   -0.0560 c3        1 DPF      0.162400
      6 C4         -3.5950    1.0750    0.1250 c3        1 DPF     -0.089100
      7 O1          1.2400    0.7280    0.0620 os        1 DPF     -0.555200
      8 C2          2.4730    0.0780   -0.0560 c3        1 DPF      0.162400
      9 C3          3.5950    1.0750    0.1260 c3        1 DPF     -0.089100
     10 H41        -3.5260    1.5540    1.1310 hc        1 DPF      0.022367
     11 H42        -3.5260    1.8770   -0.6480 hc        1 DPF      0.022367
     12 H43        -4.5800    0.5600    0.0320 hc        1 DPF      0.022367
     13 H11        -2.5290   -0.4040   -1.0730 h1        1 DPF      0.023700
     14 H12        -2.5290   -0.7310    0.7270 h1        1 DPF      0.023700
     15 H21         2.5290   -0.7310    0.7270 h1        1 DPF      0.023700
     16 H22         2.5290   -0.4040   -1.0730 h1        1 DPF      0.023700
     17 H31         3.5260    1.8770   -0.6470 hc        1 DPF      0.022367
     18 H32         3.5260    1.5540    1.1310 hc        1 DPF      0.022367
     19 H33         4.5800    0.5600    0.0320 hc        1 DPF      0.022367
@<TRIPOS>BOND
     1    1    2 1   
     2    2    3 1   
     3    2    4 1   
     4    2    7 1   
     5    4    5 1   
     6    5    6 1   
     7    5   13 1   
     8    5   14 1   
     9    6   10 1   
    10    6   11 1   
    11    6   12 1   
    12    7    8 1   
    13    8    9 1   
    14    8   15 1   
    15    8   16 1   
    16    9   17 1   
    17    9   18 1   
    18    9   19 1   
@<TRIPOS>SUBSTRUCTURE
     1 DPF         1 TEMP              0 ****  ****    0 ROOT
