@<TRIPOS>MOLECULE
DPF
   19    18     1     0     0
SMALL
bcc


@<TRIPOS>ATOM
      1 O4         -1.8710    0.0000    0.4990 o         1 DPF     -0.827500
      2 P1         -0.3610    0.0000    0.4990 p5        1 DPF      1.414800
      3 O2          0.1420    0.0000    1.9220 o         1 DPF     -0.827500
      4 O3          0.1660   -1.2900   -0.2460 os        1 DPF     -0.575200
      5 C1         -0.2030   -2.5530    0.2570 c3        1 DPF      0.172400
      6 C4          0.3990   -3.6370   -0.6110 c3        1 DPF     -0.091100
      7 O1          0.1660    1.2910   -0.2460 os        1 DPF     -0.575200
      8 C2         -0.2070    2.5540    0.2530 c3        1 DPF      0.172400
      9 C3          0.4760    3.6370   -0.5520 c3        1 DPF     -0.091100
     10 H41         0.1440   -4.5120   -0.2620 hc        1 DPF      0.020367
     11 H42         1.3720   -3.5560   -0.6050 hc        1 DPF      0.020367
     12 H43         0.0700   -3.5420   -1.5250 hc        1 DPF      0.020367
     13 H11         0.1270   -2.6480    1.1710 h1        1 DPF      0.026700
     14 H12        -1.1750   -2.6350    0.2510 h1        1 DPF      0.026700
     15 H21         0.0620    2.6260    1.1890 h1        1 DPF      0.026700
     16 H22        -1.1750    2.6580    0.1840 h1        1 DPF      0.026700
     17 H31         0.2000    4.5120   -0.2210 hc        1 DPF      0.020367
     18 H32         1.4440    3.5460   -0.4650 hc        1 DPF      0.020367
     19 H33         0.2250    3.5510   -1.4920 hc        1 DPF      0.020367
@<TRIPOS>BOND
     1    1    2 1   
     2    2    3 1   
     3    2    4 1   
     4    2    7 1   
     5    4    5 1   
     6    5    6 1   
     7    5   13 1   
     8    5   14 1   
     9    6   10 1   
    10    6   11 1   
    11    6   12 1   
    12    7    8 1   
    13    8    9 1   
    14    8   15 1   
    15    8   16 1   
    16    9   17 1   
    17    9   18 1   
    18    9   19 1   
@<TRIPOS>SUBSTRUCTURE
     1 DPF         1 TEMP              0 ****  ****    0 ROOT
