@<TRIPOS>MOLECULE
DPF
   19    18     1     0     0
SMALL
bcc


@<TRIPOS>ATOM
      1 O4          0.2190   -0.0000   -0.0980 o         1 DPF     -0.839500
      2 P1          1.6890   -0.0000    0.0400 p5        1 DPF      1.413800
      3 O2          2.3920    0.0000    1.3390 o         1 DPF     -0.839500
      4 O3          2.2930   -1.2400   -0.8720 os        1 DPF     -0.555200
      5 C1          1.9280   -2.4730   -0.3210 c3        1 DPF      0.162400
      6 C4          2.4880   -3.5950   -1.1670 c3        1 DPF     -0.089100
      7 O1          2.2930    1.2400   -0.8720 os        1 DPF     -0.555200
      8 C2          1.9280    2.4730   -0.3210 c3        1 DPF      0.162400
      9 C3          2.4880    3.5950   -1.1660 c3        1 DPF     -0.089100
     10 H41         2.1990   -4.5800   -0.7300 hc        1 DPF      0.022367
     11 H42         2.0930   -3.5260   -2.2080 hc        1 DPF      0.022367
     12 H43         3.6010   -3.5260   -1.2100 hc        1 DPF      0.022367
     13 H11         2.3290   -2.5290    0.7310 h1        1 DPF      0.023700
     14 H12         0.8030   -2.5290   -0.2790 h1        1 DPF      0.023700
     15 H21         2.3290    2.5290    0.7310 h1        1 DPF      0.023700
     16 H22         0.8040    2.5290   -0.2780 h1        1 DPF      0.023700
     17 H31         2.0930    3.5260   -2.2070 hc        1 DPF      0.022367
     18 H32         3.6000    3.5260   -1.2100 hc        1 DPF      0.022367
     19 H33         2.1990    4.5800   -0.7290 hc        1 DPF      0.022367
@<TRIPOS>BOND
     1    1    2 1   
     2    2    3 1   
     3    2    4 1   
     4    2    7 1   
     5    4    5 1   
     6    5    6 1   
     7    5   13 1   
     8    5   14 1   
     9    6   10 1   
    10    6   11 1   
    11    6   12 1   
    12    7    8 1   
    13    8    9 1   
    14    8   15 1   
    15    8   16 1   
    16    9   17 1   
    17    9   18 1   
    18    9   19 1   
@<TRIPOS>SUBSTRUCTURE
     1 DPF         1 TEMP              0 ****  ****    0 ROOT
