@<TRIPOS>MOLECULE
DPF
   19    18     1     0     0
SMALL
bcc


@<TRIPOS>ATOM
      1 O4         -0.1960    0.7230    0.7260 o         1 DPF     -0.827500
      2 P1          1.0740   -0.0220    0.8210 p5        1 DPF      1.414800
      3 O2          1.5600   -0.7830    1.9880 o         1 DPF     -0.827500
      4 O3          1.1540   -1.0160   -0.4970 os        1 DPF     -0.575200
      5 C1          2.2100   -1.9280   -0.4210 c3        1 DPF      0.172400
      6 C4          2.2200   -2.7970   -1.6600 c3        1 DPF     -0.091100
      7 O1          2.2920    1.0000    0.3680 os        1 DPF     -0.575200
      8 C2          1.8870    1.9270   -0.5960 c3        1 DPF      0.172400
      9 C3          3.0520    2.8200   -0.9640 c3        1 DPF     -0.091100
     10 H41         3.0610   -3.5290   -1.6030 hc        1 DPF      0.020367
     11 H42         1.2570   -3.3530   -1.7480 hc        1 DPF      0.020367
     12 H43         2.3440   -2.1700   -2.5740 hc        1 DPF      0.020367
     13 H11         3.1730   -1.3520   -0.3300 h1        1 DPF      0.026700
     14 H12         2.0860   -2.5510    0.5080 h1        1 DPF      0.026700
     15 H21         1.0310    2.5300   -0.1830 h1        1 DPF      0.026700
     16 H22         1.5160    1.3640   -1.4980 h1        1 DPF      0.026700
     17 H31         3.8930    2.2120   -1.3720 hc        1 DPF      0.020367
     18 H32         3.4210    3.3620   -0.0610 hc        1 DPF      0.020367
     19 H33         2.7320    3.5630   -1.7320 hc        1 DPF      0.020367
@<TRIPOS>BOND
     1    1    2 1   
     2    2    3 1   
     3    2    4 1   
     4    2    7 1   
     5    4    5 1   
     6    5    6 1   
     7    5   13 1   
     8    5   14 1   
     9    6   10 1   
    10    6   11 1   
    11    6   12 1   
    12    7    8 1   
    13    8    9 1   
    14    8   15 1   
    15    8   16 1   
    16    9   17 1   
    17    9   18 1   
    18    9   19 1   
@<TRIPOS>SUBSTRUCTURE
     1 DPF         1 TEMP              0 ****  ****    0 ROOT
