@<TRIPOS>MOLECULE
DPH
   23    23     1     0     0
SMALL
bcc


@<TRIPOS>ATOM
      1 CM          0.0020   -0.2200   -0.3270 c3        1 DPH     -0.066100
      2 CA          1.4540   -0.0270    0.0330 c3        1 DPH     -0.182700
      3 CB          1.6730   -0.0810    1.5360 c3        1 DPH     -0.043100
      4 CG          1.3580    1.2000    2.2240 ca        1 DPH     -0.033300
      5 CD1         0.2960    1.2880    3.1340 ca        1 DPH     -0.138000
      6 CD2         2.1390    2.3410    1.9860 ca        1 DPH     -0.138000
      7 CE1         0.0210    2.4880    3.7900 ca        1 DPH     -0.137500
      8 CE2         1.8630    3.5380    2.6410 ca        1 DPH     -0.137500
      9 CZ          0.8030    3.6150    3.5460 ca        1 DPH     -0.163000
     10 C           2.3360   -1.0780   -0.6970 c         1 DPH      0.912600
     11 O           3.3130   -1.5860   -0.0750 o         1 DPH     -0.844300
     12 OXT         2.0500   -1.3470   -1.8980 o         1 DPH     -0.844300
     13 HM1        -0.6270    0.6070    0.0850 hc        1 DPH      0.018367
     14 HM2        -0.3790   -1.1880    0.0790 hc        1 DPH      0.018367
     15 HM3        -0.1030   -0.2450   -1.4390 hc        1 DPH      0.018367
     16 HA          1.7950    0.9740   -0.3500 hc        1 DPH      0.032700
     17 HB1         2.7560   -0.3420    1.7170 hc        1 DPH      0.063200
     18 HB2         1.0580   -0.9130    1.9700 hc        1 DPH      0.063200
     19 HD1        -0.3270    0.4030    3.3270 ha        1 DPH      0.134500
     20 HD2         2.9730    2.2770    1.2700 ha        1 DPH      0.134500
     21 HE1        -0.8160    2.5430    4.5000 ha        1 DPH      0.112500
     22 HE2         2.4810    4.4250    2.4450 ha        1 DPH      0.112500
     23 HZ          0.5870    4.5600    4.0630 ha        1 DPH      0.110000
@<TRIPOS>BOND
     1    1    2 1   
     2    1   13 1   
     3    1   14 1   
     4    1   15 1   
     5    2    3 1   
     6    2   10 1   
     7    2   16 1   
     8    3    4 1   
     9    3   17 1   
    10    3   18 1   
    11    4    5 ar  
    12    4    6 ar  
    13    5    7 ar  
    14    5   19 1   
    15    6    8 ar  
    16    6   20 1   
    17    7    9 ar  
    18    7   21 1   
    19    8    9 ar  
    20    8   22 1   
    21    9   23 1   
    22   10   11 1   
    23   10   12 1   
@<TRIPOS>SUBSTRUCTURE
     1 DPH         1 TEMP              0 ****  ****    0 ROOT
