@<TRIPOS>MOLECULE
DPH
   23    23     1     0     0
SMALL
bcc


@<TRIPOS>ATOM
      1 CM          1.6110    0.6240    1.4200 c3        1 DPH     -0.066100
      2 CA          0.1300    0.3690    1.2880 c3        1 DPH     -0.182700
      3 CB         -0.1590   -0.7920    0.3510 c3        1 DPH     -0.043100
      4 CG         -0.1210   -0.4140   -1.0880 ca        1 DPH     -0.033300
      5 CD1         0.8550   -0.9370   -1.9460 ca        1 DPH     -0.138000
      6 CD2        -1.0810    0.4640   -1.6130 ca        1 DPH     -0.138000
      7 CE1         0.8700   -0.5930   -3.2970 ca        1 DPH     -0.137500
      8 CE2        -1.0650    0.8070   -2.9620 ca        1 DPH     -0.137500
      9 CZ         -0.0890    0.2800   -3.8090 ca        1 DPH     -0.163000
     10 C          -0.5040    0.1290    2.6860 c         1 DPH      0.912600
     11 O          -1.4060   -0.7500    2.7990 o         1 DPH     -0.844300
     12 OXT        -0.1070    0.8560    3.6390 o         1 DPH     -0.844300
     13 HM1         1.7800    1.4360    2.1700 hc        1 DPH      0.018367
     14 HM2         2.1380   -0.2940    1.7770 hc        1 DPH      0.018367
     15 HM3         2.0550    0.9270    0.4410 hc        1 DPH      0.018367
     16 HA         -0.3650    1.2950    0.8850 hc        1 DPH      0.032700
     17 HB1         0.5710   -1.6200    0.5510 hc        1 DPH      0.063200
     18 HB2        -1.1850   -1.1900    0.6020 hc        1 DPH      0.063200
     19 HD1         1.6160   -1.6230   -1.5470 ha        1 DPH      0.134500
     20 HD2        -1.8490    0.8790   -0.9410 ha        1 DPH      0.134500
     21 HE1         1.6420   -1.0090   -3.9590 ha        1 DPH      0.112500
     22 HE2        -1.8220    1.4970   -3.3610 ha        1 DPH      0.112500
     23 HZ         -0.0770    0.5510   -4.8730 ha        1 DPH      0.110000
@<TRIPOS>BOND
     1    1    2 1   
     2    1   13 1   
     3    1   14 1   
     4    1   15 1   
     5    2    3 1   
     6    2   10 1   
     7    2   16 1   
     8    3    4 1   
     9    3   17 1   
    10    3   18 1   
    11    4    5 ar  
    12    4    6 ar  
    13    5    7 ar  
    14    5   19 1   
    15    6    8 ar  
    16    6   20 1   
    17    7    9 ar  
    18    7   21 1   
    19    8    9 ar  
    20    8   22 1   
    21    9   23 1   
    22   10   11 1   
    23   10   12 1   
@<TRIPOS>SUBSTRUCTURE
     1 DPH         1 TEMP              0 ****  ****    0 ROOT
