@<TRIPOS>MOLECULE
DPH
   23    23     1     0     0
SMALL
bcc


@<TRIPOS>ATOM
      1 CM          0.0140   -0.1780   -0.3630 c3        1 DPH     -0.066100
      2 CA          1.4630   -0.0200    0.0290 c3        1 DPH     -0.182700
      3 CB          1.6480   -0.0920    1.5360 c3        1 DPH     -0.043100
      4 CG          1.3450    1.1890    2.2300 ca        1 DPH     -0.033300
      5 CD1         0.2670    1.2910    3.1190 ca        1 DPH     -0.138000
      6 CD2         2.1550    2.3150    2.0180 ca        1 DPH     -0.138000
      7 CE1         0.0040    2.4900    3.7810 ca        1 DPH     -0.137500
      8 CE2         1.8900    3.5110    2.6790 ca        1 DPH     -0.137500
      9 CZ          0.8140    3.6030    3.5640 ca        1 DPH     -0.163000
     10 C           2.3370   -1.0830   -0.6920 c         1 DPH      0.912600
     11 O           3.2840   -1.6240   -0.0520 o         1 DPH     -0.844300
     12 OXT         2.0750   -1.3290   -1.9030 o         1 DPH     -0.844300
     13 HM1        -0.0670   -0.1900   -1.4780 hc        1 DPH      0.018367
     14 HM2        -0.6050    0.6590    0.0430 hc        1 DPH      0.018367
     15 HM3        -0.3950   -1.1410    0.0250 hc        1 DPH      0.018367
     16 HA          1.8330    0.9770   -0.3370 hc        1 DPH      0.032700
     17 HB1         2.7200   -0.3780    1.7380 hc        1 DPH      0.063200
     18 HB2         1.0060   -0.9150    1.9490 hc        1 DPH      0.063200
     19 HD1        -0.3770    0.4170    3.2910 ha        1 DPH      0.134500
     20 HD2         3.0010    2.2400    1.3190 ha        1 DPH      0.134500
     21 HE1        -0.8460    2.5570    4.4740 ha        1 DPH      0.112500
     22 HE2         2.5300    4.3870    2.5040 ha        1 DPH      0.112500
     23 HZ          0.6070    4.5470    4.0840 ha        1 DPH      0.110000
@<TRIPOS>BOND
     1    1    2 1   
     2    1   13 1   
     3    1   14 1   
     4    1   15 1   
     5    2    3 1   
     6    2   10 1   
     7    2   16 1   
     8    3    4 1   
     9    3   17 1   
    10    3   18 1   
    11    4    5 ar  
    12    4    6 ar  
    13    5    7 ar  
    14    5   19 1   
    15    6    8 ar  
    16    6   20 1   
    17    7    9 ar  
    18    7   21 1   
    19    8    9 ar  
    20    8   22 1   
    21    9   23 1   
    22   10   11 1   
    23   10   12 1   
@<TRIPOS>SUBSTRUCTURE
     1 DPH         1 TEMP              0 ****  ****    0 ROOT
