@<TRIPOS>MOLECULE
DPH
   23    21     1     0     0
SMALL
bcc


@<TRIPOS>ATOM
      1 CM         -1.5160   -2.1250   -1.2840 c3        1 DPH     -0.183000
      2 CA         -0.3060   -1.1850   -1.2260 c3        1 DPH     -0.181000
      3 CB          0.2140   -1.1010    0.2070 c3        1 DPH     -0.111000
      4 CG          0.2260    0.3660    0.6750 c2        1 DPH     -0.044000
      5 CD1        -0.6700    0.7850    1.6280 c2        1 DPH     -0.152000
      6 CD2         1.1960    1.2180    0.2260 c1        1 DPH     -0.117000
      7 CE1        -0.5900    2.0770    2.1380 c1        1 DPH     -0.151000
      8 CE2         1.2780    2.5170    0.7360 c1        1 DPH     -0.150000
      9 CZ          0.3890    2.9360    1.6840 c1        1 DPH     -0.150000
     10 C           0.7990   -1.7220   -2.1310 c2        1 DPH      0.331000
     11 O           1.3070   -2.8400   -1.8980 o         1 DPH     -0.579000
     12 OXT         1.1830   -1.0400   -3.1530 o         1 DPH     -0.579000
     13 HM1        -1.4080   -2.7320   -1.9970 hc        1 DPH      0.056667
     14 HM2        -2.3520   -1.5890   -1.4270 hc        1 DPH      0.056667
     15 HM3        -1.5900   -2.6360   -0.4170 hc        1 DPH      0.056667
     16 HA         -0.5700   -0.2990   -1.5280 hc        1 DPH      0.079000
     17 HB1        -0.3610   -1.6170    0.7880 hc        1 DPH      0.083000
     18 HB2         1.1230   -1.4630    0.2430 hc        1 DPH      0.083000
     19 HD1        -1.3670    0.2010    1.9180 ha        1 DPH      0.114000
     20 HD2         1.8130    0.9280   -0.4330 ha        1 DPH      0.207000
     21 HE1        -1.2210    2.3720    2.8090 ha        1 DPH      0.106000
     22 HE2         1.9770    3.1280    0.4120 ha        1 DPH      0.112500
     23 HZ          0.4450    3.8210    2.0300 ha        1 DPH      0.112500
@<TRIPOS>BOND
     1    1    2 1   
     2    1   13 1   
     3    1   14 1   
     4    1   15 1   
     5    2    3 1   
     6    2   10 1   
     7    2   16 1   
     8    3    4 1   
     9    3   17 1   
    10    3   18 1   
    11    4    5 1   
    12    4    6 1   
    13    5    7 1   
    14    5   19 1   
    15    6   20 1   
    16    7   21 1   
    17    8    9 1   
    18    8   22 1   
    19    9   23 1   
    20   10   11 1   
    21   10   12 1   
@<TRIPOS>SUBSTRUCTURE
     1 DPH         1 TEMP              0 ****  ****    0 ROOT
