@<TRIPOS>MOLECULE
DPJ
   20    19     1     0     0
SMALL
bcc


@<TRIPOS>ATOM
      1 O4          0.3310    0.0000    0.0690 oh        1 DPJ     -0.744400
      2 P2          1.9240   -0.0000    0.1670 p5        1 DPJ      1.247200
      3 S1          2.4760   -0.0000    1.9600 s         1 DPJ     -0.644000
      4 O3          2.3180   -1.2140   -0.7790 os        1 DPJ     -0.510200
      5 C7          2.0510   -2.5010   -0.2270 c3        1 DPJ      0.141400
      6 C9          2.6160   -3.5390   -1.1630 c3        1 DPJ     -0.095100
      7 O5          2.3180    1.2140   -0.7790 os        1 DPJ     -0.510200
      8 C6          2.0510    2.5010   -0.2270 c3        1 DPJ      0.141400
      9 C8          2.6160    3.5390   -1.1620 c3        1 DPJ     -0.095100
     10 H91         2.4020   -4.5540   -0.7510 hc        1 DPJ      0.056033
     11 H92         2.1540   -3.4440   -2.1740 hc        1 DPJ      0.056033
     12 H93         3.7200   -3.4090   -1.2670 hc        1 DPJ      0.056033
     13 H71         0.9350   -2.5940   -0.1290 h1        1 DPJ      0.058200
     14 H72         2.5340   -2.5480    0.7900 h1        1 DPJ      0.058200
     15 HO4        -0.1660    0.0000    0.8880 ho        1 DPJ      0.500000
     16 H61         0.9350    2.5940   -0.1290 h1        1 DPJ      0.058200
     17 H62         2.5350    2.5480    0.7900 h1        1 DPJ      0.058200
     18 H81         3.7200    3.4090   -1.2670 hc        1 DPJ      0.056033
     19 H82         2.1540    3.4440   -2.1740 hc        1 DPJ      0.056033
     20 H83         2.4020    4.5540   -0.7510 hc        1 DPJ      0.056033
@<TRIPOS>BOND
     1    1    2 1   
     2    1   15 1   
     3    2    3 2   
     4    2    4 1   
     5    2    7 1   
     6    4    5 1   
     7    5    6 1   
     8    5   13 1   
     9    5   14 1   
    10    6   10 1   
    11    6   11 1   
    12    6   12 1   
    13    7    8 1   
    14    8    9 1   
    15    8   16 1   
    16    8   17 1   
    17    9   18 1   
    18    9   19 1   
    19    9   20 1   
@<TRIPOS>SUBSTRUCTURE
     1 DPJ         1 TEMP              0 ****  ****    0 ROOT
