@<TRIPOS>MOLECULE
DPJ
   20    19     1     0     0
SMALL
bcc


@<TRIPOS>ATOM
      1 O4          0.0050   -0.9880    2.5390 oh        1 DPJ     -0.704400
      2 P2          0.0020   -0.7130    0.9780 p5        1 DPJ      1.235200
      3 S1          0.0000   -2.1460   -0.2280 s         1 DPJ     -0.573000
      4 O3         -1.2190    0.3140    0.9470 os        1 DPJ     -0.559200
      5 C7         -2.1930    0.2300   -0.0820 c3        1 DPJ      0.147400
      6 C9         -2.1480    1.4720   -0.9430 c3        1 DPJ     -0.118100
      7 O5          1.2230    0.3150    0.9420 os        1 DPJ     -0.559200
      8 C6          2.1930    0.2310   -0.0890 c3        1 DPJ      0.147400
      9 C8          2.1440    1.4730   -0.9500 c3        1 DPJ     -0.118100
     10 H91        -2.2180    2.3880   -0.3070 hc        1 DPJ      0.051367
     11 H92        -1.2000    1.5240   -1.5310 hc        1 DPJ      0.051367
     12 H93        -3.0090    1.4520   -1.6530 hc        1 DPJ      0.051367
     13 H71        -2.0100   -0.7050   -0.6880 h1        1 DPJ      0.075200
     14 H72        -3.1910    0.1590    0.4380 h1        1 DPJ      0.075200
     15 HO4         0.0060   -0.2140    3.1050 ho        1 DPJ      0.494000
     16 H61         3.1920    0.1600    0.4260 h1        1 DPJ      0.075200
     17 H62         2.0090   -0.7040   -0.6950 h1        1 DPJ      0.075200
     18 H81         1.1950    1.5250   -1.5350 hc        1 DPJ      0.051367
     19 H82         2.2170    2.3880   -0.3150 hc        1 DPJ      0.051367
     20 H83         3.0030    1.4530   -1.6630 hc        1 DPJ      0.051367
@<TRIPOS>BOND
     1    1    2 1   
     2    1   15 1   
     3    2    3 2   
     4    2    4 1   
     5    2    7 1   
     6    4    5 1   
     7    5    6 1   
     8    5   13 1   
     9    5   14 1   
    10    6   10 1   
    11    6   11 1   
    12    6   12 1   
    13    7    8 1   
    14    8    9 1   
    15    8   16 1   
    16    8   17 1   
    17    9   18 1   
    18    9   19 1   
    19    9   20 1   
@<TRIPOS>SUBSTRUCTURE
     1 DPJ         1 TEMP              0 ****  ****    0 ROOT
