@<TRIPOS>MOLECULE
DPJ
   20    19     1     0     0
SMALL
bcc


@<TRIPOS>ATOM
      1 O4          0.3510   -0.0030    0.1380 oh        1 DPJ     -0.744400
      2 P2          1.9460   -0.0020    0.1730 p5        1 DPJ      1.247200
      3 S1          2.5690   -0.0060    1.9440 s         1 DPJ     -0.644000
      4 O3          2.3040   -1.2130   -0.7910 os        1 DPJ     -0.510200
      5 C7          2.0600   -2.5010   -0.2320 c3        1 DPJ      0.141400
      6 C9          2.5890   -3.5360   -1.1920 c3        1 DPJ     -0.095100
      7 O5          2.3020    1.2150   -0.7840 os        1 DPJ     -0.510200
      8 C6          2.0570    2.5000   -0.2180 c3        1 DPJ      0.141400
      9 C8          2.5830    3.5410   -1.1730 c3        1 DPJ     -0.095100
     10 H91         2.3930   -4.5530   -0.7750 hc        1 DPJ      0.056033
     11 H92         2.0870   -3.4400   -2.1840 hc        1 DPJ      0.056033
     12 H93         3.6880   -3.4040   -1.3390 hc        1 DPJ      0.056033
     13 H71         0.9490   -2.5960   -0.0910 h1        1 DPJ      0.058200
     14 H72         2.5830   -2.5510    0.7650 h1        1 DPJ      0.058200
     15 HO4        -0.1140   -0.0060    0.9770 ho        1 DPJ      0.500000
     16 H61         0.9460    2.5930   -0.0750 h1        1 DPJ      0.058200
     17 H62         2.5810    2.5450    0.7790 h1        1 DPJ      0.058200
     18 H81         3.6820    3.4110   -1.3220 hc        1 DPJ      0.056033
     19 H82         2.0810    3.4500   -2.1650 hc        1 DPJ      0.056033
     20 H83         2.3870    4.5560   -0.7500 hc        1 DPJ      0.056033
@<TRIPOS>BOND
     1    1    2 1   
     2    1   15 1   
     3    2    3 2   
     4    2    4 1   
     5    2    7 1   
     6    4    5 1   
     7    5    6 1   
     8    5   13 1   
     9    5   14 1   
    10    6   10 1   
    11    6   11 1   
    12    6   12 1   
    13    7    8 1   
    14    8    9 1   
    15    8   16 1   
    16    8   17 1   
    17    9   18 1   
    18    9   19 1   
    19    9   20 1   
@<TRIPOS>SUBSTRUCTURE
     1 DPJ         1 TEMP              0 ****  ****    0 ROOT
