@<TRIPOS>MOLECULE
DPK
   33    29     1     0     0
SMALL
bcc


@<TRIPOS>ATOM
      1 C12        -1.3080    1.0570   -4.5300 c1        1 DPK     -0.162000
      2 C11        -1.2580    0.3270   -3.3920 c1        1 DPK     -0.162000
      3 C10        -1.0750    1.0200   -2.0610 c2        1 DPK     -0.045000
      4 N9         -1.2850    0.0400   -0.9480 n3        1 DPK     -0.262000
      5 C9N        -2.6510    0.0360   -0.5620 c3        1 DPK     -0.117000
      6 C8         -0.4550    0.4160    0.1990 c3        1 DPK     -0.012000
      7 C8C        -0.4440    1.8970    0.3450 c3        1 DPK     -0.245000
      8 C7          0.9480   -0.0810   -0.0170 c3        1 DPK     -0.124000
      9 C1          1.4480   -0.8000    1.2770 c2        1 DPK     -0.071000
     10 C6          1.6070   -2.1570    1.2900 c1        1 DPK     -0.128000
     11 C5          2.0870   -2.7880    2.4280 c1        1 DPK     -0.162000
     12 C4          2.4030   -2.0490    3.5420 c1        1 DPK     -0.162000
     13 C3          2.2420   -0.6780    3.5300 c1        1 DPK     -0.129000
     14 C2          1.7680   -0.0530    2.4060 c2        1 DPK     -0.129000
     15 H121       -1.2250    2.0570   -4.4890 DU        1 DPK      0.110000
     16 H122       -1.4300    0.6000   -5.4130 ha        1 DPK      0.126750
     17 H11        -1.3370   -0.6450   -3.4310 ha        1 DPK      0.126750
     18 H101       -1.7270    1.7560   -1.9800 h4        1 DPK      0.077500
     19 H102       -0.1620    1.3840   -2.0060 h4        1 DPK      0.077500
     20 H9N1       -2.8510    0.8640   -0.0160 h1        1 DPK      0.071333
     21 H9N2       -2.8340   -0.7630   -0.0230 h1        1 DPK      0.071333
     22 H9N3       -3.2200    0.0280   -1.3690 h1        1 DPK      0.071333
     23 H8         -0.8250    0.0090    1.0240 h1        1 DPK      0.100000
     24 H8C1       -1.2160    2.1810    0.9110 hc        1 DPK      0.079333
     25 H8C2       -0.5140    2.3140   -0.5360 hc        1 DPK      0.079333
     26 H8C3        0.3920    2.1750    0.7710 hc        1 DPK      0.079333
     27 H7C1        0.9590   -0.6890   -0.7430 hc        1 DPK      0.095500
     28 H7C2        1.5230    0.6580   -0.2120 hc        1 DPK      0.095500
     29 H6          1.3790   -2.6880    0.4910 ha        1 DPK      0.135000
     30 H5          2.1980   -3.7390    2.4370 ha        1 DPK      0.126750
     31 H4          2.7400   -2.4890    4.3380 ha        1 DPK      0.126750
     32 H3          2.4710   -0.1430    4.3380 ha        1 DPK      0.130000
     33 H2          1.6510    0.9420    2.4000 ha        1 DPK      0.130000
@<TRIPOS>BOND
     1    1    2 1   
     2    1   16 1   
     3    2   17 1   
     4    3    4 1   
     5    3   18 1   
     6    3   19 1   
     7    4    5 1   
     8    4    6 1   
     9    5   20 1   
    10    5   21 1   
    11    5   22 1   
    12    6    7 1   
    13    6    8 1   
    14    6   23 1   
    15    7   24 1   
    16    7   25 1   
    17    7   26 1   
    18    8    9 1   
    19    8   27 1   
    20    8   28 1   
    21    9   10 1   
    22    9   14 1   
    23   10   29 1   
    24   11   12 1   
    25   11   30 1   
    26   12   31 1   
    27   13   14 1   
    28   13   32 1   
    29   14   33 1   
@<TRIPOS>SUBSTRUCTURE
     1 DPK         1 TEMP              0 ****  ****    0 ROOT
