@<TRIPOS>MOLECULE
DPK
   34    34     1     0     0
SMALL
bcc


@<TRIPOS>ATOM
      1 C12        -0.0850   -0.3340   -0.1900 c2        1 DPK     -0.117000
      2 C11         1.2410   -0.2460   -0.1010 c2        1 DPK     -0.264200
      3 C10         1.9510   -0.0420    1.1940 c3        1 DPK      0.152000
      4 N9          2.9880   -1.0970    1.4530 nx        1 DPK     -0.686400
      5 C9N         2.3520   -2.4040    1.7480 c3        1 DPK      0.085100
      6 C8          3.9530   -0.6980    2.5530 c3        1 DPK      0.132500
      7 C8C         3.2690   -0.0800    3.7620 c3        1 DPK     -0.125100
      8 C7          5.0410    0.2490    2.0230 c3        1 DPK     -0.055100
      9 C1          5.7770   -0.3360    0.8710 ca        1 DPK     -0.152300
     10 C6          5.4630    0.0500   -0.4380 ca        1 DPK     -0.133500
     11 C5          6.1760   -0.4760   -1.5150 ca        1 DPK     -0.114500
     12 C4          7.2050   -1.3920   -1.2910 ca        1 DPK     -0.101000
     13 C3          7.5240   -1.7760    0.0120 ca        1 DPK     -0.114500
     14 C2          6.8150   -1.2500    1.0900 ca        1 DPK     -0.133500
     15 H121       -0.7530   -0.3130    0.6830 ha        1 DPK      0.142000
     16 H122       -0.5950   -0.4180   -1.1630 ha        1 DPK      0.142000
     17 H11         1.8800   -0.2510   -1.0010 ha        1 DPK      0.148000
     18 H101        1.2320   -0.0440    2.0630 hx        1 DPK      0.101700
     19 H102        2.4850    0.9540    1.1700 hx        1 DPK      0.101700
     20 H9N1        3.1370   -3.2070    1.7720 hx        1 DPK      0.100700
     21 H9N2        1.6010   -2.6350    0.9440 hx        1 DPK      0.100700
     22 H9N3        1.8330   -2.3580    2.7420 hx        1 DPK      0.100700
     23 H8          4.4590   -1.6630    2.8710 hx        1 DPK      0.100700
     24 H8C1        2.8670    0.9360    3.5320 hc        1 DPK      0.073367
     25 H8C2        4.0310    0.0240    4.5760 hc        1 DPK      0.073367
     26 H8C3        2.4400   -0.7230    4.1440 hc        1 DPK      0.073367
     27 H7C1        5.7510    0.4370    2.8750 hc        1 DPK      0.087200
     28 H7C2        4.5930    1.2400    1.7440 hc        1 DPK      0.087200
     29 H6          4.6780    0.8000   -0.6190 ha        1 DPK      0.134500
     30 H5          5.9350   -0.1580   -2.5410 ha        1 DPK      0.153500
     31 H4          7.7740   -1.8010   -2.1420 ha        1 DPK      0.157000
     32 H3          8.3460   -2.4880    0.1910 ha        1 DPK      0.153500
     33 H2          7.0850   -1.5400    2.1170 ha        1 DPK      0.134500
     34 H91         3.5490   -1.2000    0.5890 hn        1 DPK      0.460800
@<TRIPOS>BOND
     1    1    2 2   
     2    1   15 1   
     3    1   16 1   
     4    2    3 1   
     5    2   17 1   
     6    3    4 1   
     7    3   18 1   
     8    3   19 1   
     9    4    5 1   
    10    4    6 1   
    11    4   34 1   
    12    5   20 1   
    13    5   21 1   
    14    5   22 1   
    15    6    7 1   
    16    6    8 1   
    17    6   23 1   
    18    7   24 1   
    19    7   25 1   
    20    7   26 1   
    21    8    9 1   
    22    8   27 1   
    23    8   28 1   
    24    9   10 ar  
    25    9   14 ar  
    26   10   11 ar  
    27   10   29 1   
    28   11   12 ar  
    29   11   30 1   
    30   12   13 ar  
    31   12   31 1   
    32   13   14 ar  
    33   13   32 1   
    34   14   33 1   
@<TRIPOS>SUBSTRUCTURE
     1 DPK         1 TEMP              0 ****  ****    0 ROOT
