@<TRIPOS>MOLECULE
DPK
   34    34     1     0     0
SMALL
bcc


@<TRIPOS>ATOM
      1 C12        -0.0750   -0.2610   -0.1990 c2        1 DPK     -0.117000
      2 C11         1.2520   -0.1930   -0.1040 c2        1 DPK     -0.264200
      3 C10         1.9590   -0.0180    1.1970 c3        1 DPK      0.152000
      4 N9          2.9810   -1.0910    1.4440 n4        1 DPK     -0.686400
      5 C9N         2.3260   -2.3940    1.7160 c3        1 DPK      0.085100
      6 C8          3.9470   -0.7230    2.5540 c3        1 DPK      0.132500
      7 C8C         3.2670   -0.1140    3.7690 c3        1 DPK     -0.125100
      8 C7          5.0500    0.2180    2.0420 c3        1 DPK     -0.055100
      9 C1          5.7830   -0.3590    0.8840 ca        1 DPK     -0.152300
     10 C6          5.4800    0.0520   -0.4200 ca        1 DPK     -0.133500
     11 C5          6.1890   -0.4670   -1.5020 ca        1 DPK     -0.115000
     12 C4          7.2050   -1.4000   -1.2890 ca        1 DPK     -0.101000
     13 C3          7.5130   -1.8100    0.0090 ca        1 DPK     -0.115000
     14 C2          6.8070   -1.2910    1.0930 ca        1 DPK     -0.133500
     15 H121       -0.7460   -0.2450    0.6720 ha        1 DPK      0.142000
     16 H122       -0.5820   -0.3230   -1.1740 ha        1 DPK      0.142000
     17 H11         1.8950   -0.1920   -1.0010 ha        1 DPK      0.148000
     18 H101        1.2370   -0.0230    2.0630 hx        1 DPK      0.101700
     19 H102        2.5070    0.9710    1.1910 hx        1 DPK      0.101700
     20 H9N1        3.1000   -3.2070    1.7300 hx        1 DPK      0.100700
     21 H9N2        1.5760   -2.6020    0.9050 hx        1 DPK      0.100700
     22 H9N3        1.8040   -2.3560    2.7080 hx        1 DPK      0.100700
     23 H8          4.4380   -1.6990    2.8580 hx        1 DPK      0.100700
     24 H8C1        2.8800    0.9110    3.5530 hc        1 DPK      0.073367
     25 H8C2        2.4280   -0.7510    4.1380 hc        1 DPK      0.073367
     26 H8C3        4.0270   -0.0330    4.5880 hc        1 DPK      0.073367
     27 H7C1        5.7590    0.3830    2.9000 hc        1 DPK      0.087200
     28 H7C2        4.6160    1.2190    1.7770 hc        1 DPK      0.087200
     29 H6          4.7060    0.8160   -0.5920 ha        1 DPK      0.134500
     30 H5          5.9580   -0.1290   -2.5240 ha        1 DPK      0.153500
     31 H4          7.7710   -1.8040   -2.1440 ha        1 DPK      0.157000
     32 H3          8.3240   -2.5360    0.1800 ha        1 DPK      0.153500
     33 H2          7.0680   -1.6010    2.1160 ha        1 DPK      0.134500
     34 H91         3.5440   -1.1880    0.5810 hn        1 DPK      0.460800
@<TRIPOS>BOND
     1    1    2 2   
     2    1   15 1   
     3    1   16 1   
     4    2    3 1   
     5    2   17 1   
     6    3    4 1   
     7    3   18 1   
     8    3   19 1   
     9    4    5 1   
    10    4    6 1   
    11    4   34 1   
    12    5   20 1   
    13    5   21 1   
    14    5   22 1   
    15    6    7 1   
    16    6    8 1   
    17    6   23 1   
    18    7   24 1   
    19    7   25 1   
    20    7   26 1   
    21    8    9 1   
    22    8   27 1   
    23    8   28 1   
    24    9   10 ar  
    25    9   14 ar  
    26   10   11 ar  
    27   10   29 1   
    28   11   12 ar  
    29   11   30 1   
    30   12   13 ar  
    31   12   31 1   
    32   13   14 ar  
    33   13   32 1   
    34   14   33 1   
@<TRIPOS>SUBSTRUCTURE
     1 DPK         1 TEMP              0 ****  ****    0 ROOT
