@<TRIPOS>MOLECULE
DPK
   33    33     1     0     0
SMALL
bcc


@<TRIPOS>ATOM
      1 C12         4.0910    2.0600   -0.3600 c2        1 DPK     -0.229000
      2 C11         2.8380    1.6450   -0.1940 c2        1 DPK     -0.163200
      3 C10         2.4170    0.2270   -0.4280 c3        1 DPK      0.197000
      4 N9          1.3930   -0.2330    0.5020 n3        1 DPK     -0.733600
      5 C9N         1.8690   -0.3060    1.8650 c3        1 DPK      0.159100
      6 C8          0.7080   -1.4520    0.0680 c3        1 DPK      0.186500
      7 C8C         1.6200   -2.5750   -0.4290 c3        1 DPK     -0.126100
      8 C7         -0.3510   -1.1740   -1.0180 c3        1 DPK     -0.030100
      9 C1         -1.5050   -0.3910   -0.5000 ca        1 DPK     -0.072300
     10 C6         -1.4410    1.0050   -0.4260 ca        1 DPK     -0.119000
     11 C5         -2.5310    1.7350    0.0460 ca        1 DPK     -0.133500
     12 C4         -3.6940    1.0780    0.4460 ca        1 DPK     -0.133000
     13 C3         -3.7640   -0.3130    0.3750 ca        1 DPK     -0.133500
     14 C2         -2.6750   -1.0450   -0.0960 ca        1 DPK     -0.119000
     15 H121        4.9120    1.3860   -0.6410 ha        1 DPK      0.111500
     16 H122        4.3810    3.1110   -0.2290 ha        1 DPK      0.111500
     17 H11         2.0330    2.3410    0.0940 ha        1 DPK      0.133000
     18 H101        3.3270   -0.4450   -0.4050 h1        1 DPK      0.037200
     19 H102        1.9890    0.1720   -1.4720 h1        1 DPK      0.037200
     20 H9N1        2.3420    0.6760    2.1330 h1        1 DPK      0.032367
     21 H9N2        0.9970   -0.4840    2.5470 h1        1 DPK      0.032367
     22 H9N3        2.6260   -1.1220    2.0300 h1        1 DPK      0.032367
     23 H8          0.1470   -1.8450    0.9720 h1        1 DPK      0.059700
     24 H8C1        2.4350   -2.7780    0.3070 hc        1 DPK      0.039033
     25 H8C2        1.0240   -3.5090   -0.5620 hc        1 DPK      0.039033
     26 H8C3        2.0840   -2.3070   -1.4080 hc        1 DPK      0.039033
     27 H7C1        0.1120   -0.6350   -1.8860 hc        1 DPK      0.048200
     28 H7C2       -0.7110   -2.1680   -1.3980 hc        1 DPK      0.048200
     29 H6         -0.5180    1.5230   -0.7280 ha        1 DPK      0.132500
     30 H5         -2.4710    2.8320    0.1040 ha        1 DPK      0.128000
     31 H4         -4.5540    1.6550    0.8170 ha        1 DPK      0.128000
     32 H3         -4.6790   -0.8340    0.6900 ha        1 DPK      0.128000
     33 H2         -2.7360   -2.1420   -0.1510 ha        1 DPK      0.132500
@<TRIPOS>BOND
     1    1    2 2   
     2    1   15 1   
     3    1   16 1   
     4    2    3 1   
     5    2   17 1   
     6    3    4 1   
     7    3   18 1   
     8    3   19 1   
     9    4    5 1   
    10    4    6 1   
    11    5   20 1   
    12    5   21 1   
    13    5   22 1   
    14    6    7 1   
    15    6    8 1   
    16    6   23 1   
    17    7   24 1   
    18    7   25 1   
    19    7   26 1   
    20    8    9 1   
    21    8   27 1   
    22    8   28 1   
    23    9   10 ar  
    24    9   14 ar  
    25   10   11 ar  
    26   10   29 1   
    27   11   12 ar  
    28   11   30 1   
    29   12   13 ar  
    30   12   31 1   
    31   13   14 ar  
    32   13   32 1   
    33   14   33 1   
@<TRIPOS>SUBSTRUCTURE
     1 DPK         1 TEMP              0 ****  ****    0 ROOT
