@<TRIPOS>MOLECULE
DPK
   34    34     1     0     0
SMALL
bcc


@<TRIPOS>ATOM
      1 C12        -0.0820   -0.3070   -0.1900 c2        1 DPK     -0.117000
      2 C11         1.2440   -0.2250   -0.0990 c2        1 DPK     -0.264200
      3 C10         1.9530   -0.0360    1.1990 c3        1 DPK      0.152000
      4 N9          2.9860   -1.0980    1.4490 n4        1 DPK     -0.686400
      5 C9N         2.3450   -2.4050    1.7310 c3        1 DPK      0.085100
      6 C8          3.9520   -0.7130    2.5540 c3        1 DPK      0.132500
      7 C8C         3.2700   -0.1040    3.7680 c3        1 DPK     -0.125100
      8 C7          5.0440    0.2350    2.0330 c3        1 DPK     -0.055100
      9 C1          5.7790   -0.3420    0.8760 ca        1 DPK     -0.152300
     10 C6          5.4670    0.0580   -0.4300 ca        1 DPK     -0.133500
     11 C5          6.1780   -0.4610   -1.5110 ca        1 DPK     -0.114500
     12 C4          7.2050   -1.3820   -1.2950 ca        1 DPK     -0.101000
     13 C3          7.5220   -1.7800    0.0040 ca        1 DPK     -0.114500
     14 C2          6.8130   -1.2610    1.0870 ca        1 DPK     -0.133500
     15 H121       -0.7510   -0.2930    0.6840 ha        1 DPK      0.142000
     16 H122       -0.5920   -0.3800   -1.1630 ha        1 DPK      0.142000
     17 H11         1.8840   -0.2230   -0.9980 ha        1 DPK      0.148000
     18 H101        2.4910    0.9580    1.1850 hx        1 DPK      0.101700
     19 H102        1.2330   -0.0430    2.0670 hx        1 DPK      0.101700
     20 H9N1        1.5940   -2.6250    0.9240 hx        1 DPK      0.100700
     21 H9N2        1.8250   -2.3660    2.7250 hx        1 DPK      0.100700
     22 H9N3        3.1260   -3.2100    1.7480 hx        1 DPK      0.100700
     23 H8          4.4540   -1.6830    2.8620 hx        1 DPK      0.100700
     24 H8C1        2.4370   -0.7470    4.1430 hc        1 DPK      0.073367
     25 H8C2        2.8720    0.9160    3.5470 hc        1 DPK      0.073367
     26 H8C3        4.0320   -0.0110    4.5830 hc        1 DPK      0.073367
     27 H7C1        4.5990    1.2310    1.7630 hc        1 DPK      0.087200
     28 H7C2        5.7540    0.4120    2.8880 hc        1 DPK      0.087200
     29 H6          4.6840    0.8120   -0.6040 ha        1 DPK      0.134500
     30 H5          5.9390   -0.1320   -2.5340 ha        1 DPK      0.153500
     31 H4          7.7720   -1.7850   -2.1500 ha        1 DPK      0.157000
     32 H3          8.3410   -2.4960    0.1770 ha        1 DPK      0.153500
     33 H2          7.0810   -1.5620    2.1120 ha        1 DPK      0.134500
     34 H91         3.5470   -1.1940    0.5850 hn        1 DPK      0.460800
@<TRIPOS>BOND
     1    1    2 2   
     2    1   15 1   
     3    1   16 1   
     4    2    3 1   
     5    2   17 1   
     6    3    4 1   
     7    3   18 1   
     8    3   19 1   
     9    4    5 1   
    10    4    6 1   
    11    4   34 1   
    12    5   20 1   
    13    5   21 1   
    14    5   22 1   
    15    6    7 1   
    16    6    8 1   
    17    6   23 1   
    18    7   24 1   
    19    7   25 1   
    20    7   26 1   
    21    8    9 1   
    22    8   27 1   
    23    8   28 1   
    24    9   10 ar  
    25    9   14 ar  
    26   10   11 ar  
    27   10   29 1   
    28   11   12 ar  
    29   11   30 1   
    30   12   13 ar  
    31   12   31 1   
    32   13   14 ar  
    33   13   32 1   
    34   14   33 1   
@<TRIPOS>SUBSTRUCTURE
     1 DPK         1 TEMP              0 ****  ****    0 ROOT
