@<TRIPOS>MOLECULE
DPL
   15    15     1     0     0
SMALL
bcc


@<TRIPOS>ATOM
      1 N           0.9290    2.0750    1.1430 n3        1 DPL     -0.798200
      2 CA          1.7300    1.3620    0.1320 c3        1 DPL      0.019500
      3 C           1.1240    0.0030   -0.3450 c         1 DPL      0.904600
      4 O           0.0510   -0.3970    0.1900 o         1 DPL     -0.833800
      5 CB          3.1470    1.1240    0.6920 c3        1 DPL     -0.179400
      6 CG          3.1080    1.6390    2.1020 c         1 DPL      0.565100
      7 CD          1.7090    2.1780    2.3700 c3        1 DPL      0.044800
      8 OG1         4.0340    1.6520    2.9170 o         1 DPL     -0.579100
      9 OXT         1.7580   -0.6150   -1.2420 o         1 DPL     -0.833800
     10 H           0.0860    1.5430    1.3070 hn        1 DPL      0.381800
     11 HA          1.7840    2.0340   -0.7670 h1        1 DPL      0.054700
     12 HB2         3.9180    1.6710    0.0970 hc        1 DPL      0.078200
     13 HB3         3.4010    0.0340    0.6650 hc        1 DPL      0.078200
     14 HD3         1.2570    1.6240    3.2370 h1        1 DPL      0.048700
     15 HD2         1.7790    3.2640    2.6530 h1        1 DPL      0.048700
@<TRIPOS>BOND
     1    1    2 1   
     2    1    7 1   
     3    1   10 1   
     4    2    3 1   
     5    2    5 1   
     6    2   11 1   
     7    3    4 1   
     8    3    9 1   
     9    5    6 1   
    10    5   12 1   
    11    5   13 1   
    12    6    7 1   
    13    6    8 2   
    14    7   14 1   
    15    7   15 1   
@<TRIPOS>SUBSTRUCTURE
     1 DPL         1 TEMP              0 ****  ****    0 ROOT
