@<TRIPOS>MOLECULE
DPM
   50    41     1     0     0
SMALL
bcc


@<TRIPOS>ATOM
      1 C1A        -0.0690    0.4450   -3.0060 c1        1 DPM     -0.116500
      2 C2A         1.3080    0.4440   -3.0310 c1        1 DPM     -0.112750
      3 C3A         1.7500    0.4420   -1.7470 c1        1 DPM     -0.112750
      4 C4A         0.6490    0.4420   -0.9190 c1        1 DPM     -0.116500
      5 C5A         2.1750    0.4080   -4.2710 c2        1 DPM     -0.150000
      6 C6A         2.3500    1.8130   -4.8040 c2        1 DPM      0.329500
      7 C7A         3.1950    0.3750   -1.3040 c2        1 DPM     -0.076000
      8 C8A         3.7840    1.7690   -1.2900 c3        1 DPM     -0.202000
      9 C9A         5.2630    1.6940   -1.5990 c2        1 DPM      0.322500
     10 CHA        -0.9800    0.4270   -4.2140 c2        1 DPM     -0.157000
     11 NA         -0.4680    0.4440   -1.7020 n2        1 DPM     -0.185000
     12 O1A         1.3900    2.6270   -4.7620 o         1 DPM     -0.610750
     13 O2A         3.4470    2.1600   -5.3140 o         1 DPM     -0.610750
     14 O3A         5.6500    1.4700   -2.7760 o         1 DPM     -0.617750
     15 O4A         6.1060    1.8290   -0.6740 o         1 DPM     -0.617750
     16 C1B        -0.4200   -0.4080    1.1410 c1        1 DPM     -0.116500
     17 C2B        -1.1340   -0.1950    2.3000 c1        1 DPM     -0.112750
     18 C3B        -1.9870   -1.2390    2.4640 c1        1 DPM     -0.112750
     19 C4B        -1.8060   -2.1050    1.4090 c1        1 DPM     -0.116500
     20 C5B        -0.9800    0.9850    3.2350 c2        1 DPM     -0.150000
     21 C6B        -2.3450    1.4270    3.7180 c2        1 DPM      0.329500
     22 C7B        -2.9130   -1.4530    3.6410 c2        1 DPM     -0.076000
     23 C8B        -3.3690   -2.8950    3.6690 c3        1 DPM     -0.202000
     24 C9B        -4.4660   -3.0580    4.6980 c2        1 DPM      0.322500
     25 CHB         0.6740    0.4830    0.5940 c1        1 DPM     -0.060000
     26 NB         -0.8390   -1.5870    0.5980 n2        1 DPM     -0.185000
     27 O1B        -2.5820    1.5030    4.9520 o         1 DPM     -0.610750
     28 O2B        -3.2360    1.7410    2.8850 o         1 DPM     -0.610750
     29 O3B        -5.5870   -3.5170    4.3560 o         1 DPM     -0.617750
     30 O4B        -4.2570   -2.7360    5.8970 o         1 DPM     -0.617750
     31 H5A1        1.7480   -0.1480   -4.9520 ha        1 DPM      0.071500
     32 H5A2        3.0500    0.0340   -4.0460 ha        1 DPM      0.071500
     33 H7A1        3.2430   -0.0090   -0.4060 ha        1 DPM      0.082500
     34 H7A2        3.7000   -0.1870   -1.9260 ha        1 DPM      0.082500
     35 H8A1        3.3370    2.3180   -1.9650 hc        1 DPM      0.061750
     36 H8A2        3.6550    2.1680   -0.4060 hc        1 DPM      0.061750
     37 HCA1       -1.8860    0.6870   -3.9440 ha        1 DPM      0.077000
     38 HCA2       -0.6450    1.0590   -4.8850 ha        1 DPM      0.077000
     39 HCA3       -0.9990   -0.4760   -4.5960 ha        1 DPM      0.077000
     40 H10        -1.3310    0.4400   -1.4050 DU        1 DPM      0.206667
     41 H4B1       -2.2850   -2.9440    1.2660 DU        1 DPM      0.206667
     42 H5B1       -0.5480    1.7230    2.7610 ha        1 DPM      0.071500
     43 H5B2       -0.4320    0.7230    4.0020 ha        1 DPM      0.071500
     44 H7B1       -2.4390   -1.2440    4.4710 ha        1 DPM      0.082500
     45 H7B2       -3.6920   -0.8660    3.5540 ha        1 DPM      0.082500
     46 H8B1       -2.6140   -3.4710    3.9030 hc        1 DPM      0.061750
     47 H8B2       -3.7100   -3.1470    2.7870 hc        1 DPM      0.061750
     48 HCB1        0.5280    1.4010    0.8980 ha        1 DPM      0.128500
     49 HCB2        1.5430    0.1670    0.9140 ha        1 DPM      0.128500
     50 H22        -0.5270   -1.9630   -0.1720 DU        1 DPM      0.206667
@<TRIPOS>BOND
     1    1    2 1   
     2    1   11 1   
     3    2    3 1   
     4    3    4 1   
     5    4   11 1   
     6    5    6 1   
     7    5   31 1   
     8    5   32 1   
     9    6   12 1   
    10    6   13 1   
    11    7    8 1   
    12    7   33 1   
    13    7   34 1   
    14    8    9 1   
    15    8   35 1   
    16    8   36 1   
    17    9   14 1   
    18    9   15 1   
    19   10   37 1   
    20   10   38 1   
    21   10   39 1   
    22   16   17 1   
    23   16   26 1   
    24   17   18 1   
    25   18   19 1   
    26   19   26 1   
    27   20   21 1   
    28   20   42 1   
    29   20   43 1   
    30   21   27 1   
    31   21   28 1   
    32   22   23 1   
    33   22   44 1   
    34   22   45 1   
    35   23   24 1   
    36   23   46 1   
    37   23   47 1   
    38   24   29 1   
    39   24   30 1   
    40   25   48 1   
    41   25   49 1   
@<TRIPOS>SUBSTRUCTURE
     1 DPM         1 TEMP              0 ****  ****    0 ROOT
