@<TRIPOS>MOLECULE
DPM
   50    51     1     0     0
SMALL
bcc


@<TRIPOS>ATOM
      1 C1A         0.4310    0.7120   -0.1740 cc        1 DPM     -0.127600
      2 C2A         1.7750    0.2840   -0.1070 cd        1 DPM     -0.114300
      3 C3A         2.1070    0.1560    1.2950 cd        1 DPM     -0.164300
      4 C4A         0.9480    0.5120    2.0240 cc        1 DPM     -0.139600
      5 C5A         2.6990    0.0140   -1.2200 c3        1 DPM     -0.102100
      6 C6A         2.1100   -0.0330   -2.6360 c         1 DPM      0.908600
      7 C7A         3.3810   -0.3430    1.8470 c3        1 DPM      0.015900
      8 C8A         4.4530    0.7140    2.0230 c3        1 DPM     -0.169400
      9 C9A         5.7720    0.1670    2.5750 c         1 DPM      0.902600
     10 CHA        -0.3620    0.9720   -1.3890 c3        1 DPM     -0.028800
     11 NA         -0.0550    0.8610    1.1230 na        1 DPM     -0.154100
     12 O1A         2.1230    1.0180   -3.3520 o         1 DPM     -0.886300
     13 O2A         1.6970   -1.1390   -3.1060 o         1 DPM     -0.886300
     14 O3A         5.8480   -1.0110    3.0400 o         1 DPM     -0.885800
     15 O4A         6.7860    0.9370    2.5600 o         1 DPM     -0.885800
     16 C1B         0.3250    1.8170    4.0550 cc        1 DPM     -0.100600
     17 C2B        -0.7950    2.1850    4.8310 cd        1 DPM     -0.111300
     18 C3B        -0.6070    3.5670    5.2170 cd        1 DPM     -0.139300
     19 C4B         0.5980    3.9910    4.6310 cc        1 DPM     -0.205300
     20 C5B        -1.9150    1.3200    5.2250 c3        1 DPM     -0.113100
     21 C6B        -2.8770    0.8320    4.1290 c         1 DPM      0.915600
     22 C7B        -1.4830    4.3750    6.0890 c3        1 DPM      0.010900
     23 C8B        -0.8960    5.7230    6.4560 c3        1 DPM     -0.174400
     24 C9B        -1.7110    6.4950    7.4980 c         1 DPM      0.903600
     25 CHB         0.6760    0.4920    3.4830 c3        1 DPM      0.060200
     26 NB          1.1680    2.9250    3.9460 na        1 DPM     -0.178100
     27 O1B        -4.0210    0.4360    4.5220 o         1 DPM     -0.873300
     28 O2B        -2.5370    0.7800    2.9120 o         1 DPM     -0.873300
     29 O3B        -2.0680    7.6860    7.2240 o         1 DPM     -0.882300
     30 O4B        -1.9650    5.9700    8.6240 o         1 DPM     -0.882300
     31 H5A1        3.2010   -0.9740   -1.0320 hc        1 DPM      0.029200
     32 H5A2        3.5000    0.8040   -1.2110 hc        1 DPM      0.029200
     33 H7A1        3.2020   -0.8320    2.8430 hc        1 DPM      0.033700
     34 H7A2        3.7850   -1.1410    1.1650 hc        1 DPM      0.033700
     35 H8A1        4.0910    1.5080    2.7260 hc        1 DPM      0.024700
     36 H8A2        4.6610    1.2070    1.0390 hc        1 DPM      0.024700
     37 HCA1       -1.4050    1.2960   -1.1560 hc        1 DPM      0.041700
     38 HCA2        0.1470    1.7600   -2.0020 hc        1 DPM      0.041700
     39 HCA3       -0.3920    0.0410   -2.0120 hc        1 DPM      0.041700
     40 H10        -0.9930    1.0540    1.3970 hn        1 DPM      0.334700
     41 H4B1        1.0800    4.9660    4.6720 h4        1 DPM      0.138000
     42 H5B1       -2.5340    1.8550    5.9940 hc        1 DPM      0.025700
     43 H5B2       -1.5060    0.3910    5.7100 hc        1 DPM      0.025700
     44 H7B1       -1.6950    3.8060    7.0360 hc        1 DPM      0.043200
     45 H7B2       -2.4710    4.5270    5.5750 hc        1 DPM      0.043200
     46 H8B1       -0.7970    6.3540    5.5360 hc        1 DPM      0.017700
     47 H8B2        0.1320    5.5760    6.8800 hc        1 DPM      0.017700
     48 HCB1        1.5820    0.0830    4.0090 hc        1 DPM      0.061700
     49 HCB2       -0.1980   -0.1920    3.6860 hc        1 DPM      0.061700
     50 H22         1.9560    2.9630    3.3550 hn        1 DPM      0.291700
@<TRIPOS>BOND
     1    1    2 2   
     2    1   10 1   
     3    1   11 1   
     4    2    3 1   
     5    2    5 1   
     6    3    4 2   
     7    3    7 1   
     8    4   11 1   
     9    4   25 1   
    10    5    6 1   
    11    5   31 1   
    12    5   32 1   
    13    6   12 1   
    14    6   13 1   
    15    7    8 1   
    16    7   33 1   
    17    7   34 1   
    18    8    9 1   
    19    8   35 1   
    20    8   36 1   
    21    9   14 1   
    22    9   15 1   
    23   10   37 1   
    24   10   38 1   
    25   10   39 1   
    26   11   40 1   
    27   16   17 2   
    28   16   25 1   
    29   16   26 1   
    30   17   18 1   
    31   17   20 1   
    32   18   19 2   
    33   18   22 1   
    34   19   26 1   
    35   19   41 1   
    36   20   21 1   
    37   20   42 1   
    38   20   43 1   
    39   21   27 1   
    40   21   28 1   
    41   22   23 1   
    42   22   44 1   
    43   22   45 1   
    44   23   24 1   
    45   23   46 1   
    46   23   47 1   
    47   24   29 1   
    48   24   30 1   
    49   25   48 1   
    50   25   49 1   
    51   26   50 1   
@<TRIPOS>SUBSTRUCTURE
     1 DPM         1 TEMP              0 ****  ****    0 ROOT
