@<TRIPOS>MOLECULE
DPM
   50    51     1     0     0
SMALL
bcc


@<TRIPOS>ATOM
      1 C1A         0.6520    1.2990   -0.1140 cc        1 DPM     -0.135600
      2 C2A         1.8350    0.5360   -0.1090 cd        1 DPM     -0.097300
      3 C3A         2.0700    0.1260    1.2620 cd        1 DPM     -0.148300
      4 C4A         1.0090    0.6410    2.0390 cc        1 DPM     -0.126600
      5 C5A         2.6900    0.2010   -1.2590 c3        1 DPM     -0.109100
      6 C6A         2.1470    0.5460   -2.6520 c         1 DPM      0.906600
      7 C7A         3.1870   -0.7170    1.7340 c3        1 DPM      0.009900
      8 C8A         4.5080    0.0170    1.8420 c3        1 DPM     -0.171400
      9 C9A         5.6970   -0.8810    2.1960 c         1 DPM      0.903600
     10 CHA        -0.0030    1.9390   -1.2680 c3        1 DPM     -0.030800
     11 NA          0.1560    1.3500    1.1890 na        1 DPM     -0.186100
     12 O1A         2.4830    1.6480   -3.1930 o         1 DPM     -0.884800
     13 O2A         1.4320   -0.2980   -3.2760 o         1 DPM     -0.884800
     14 O3A         5.6420   -2.1360    2.0250 o         1 DPM     -0.883800
     15 O4A         6.7500   -0.3190    2.6400 o         1 DPM     -0.883800
     16 C1B         0.2960    1.7760    4.1240 cc        1 DPM     -0.113600
     17 C2B        -0.8730    2.1300    4.8350 cd        1 DPM     -0.103300
     18 C3B        -0.7230    3.5180    5.2300 cd        1 DPM     -0.137300
     19 C4B         0.5270    3.9450    4.7550 cc        1 DPM     -0.208300
     20 C5B        -2.0760    1.3170    5.0580 c3        1 DPM     -0.118100
     21 C6B        -1.9130    0.0230    5.8760 c         1 DPM      0.912600
     22 C7B        -1.6960    4.3440    5.9720 c3        1 DPM      0.007900
     23 C8B        -1.2550    5.7830    6.1460 c3        1 DPM     -0.174400
     24 C9B        -2.3070    6.6890    6.7930 c         1 DPM      0.903600
     25 CHB         0.6900    0.4930    3.4850 c3        1 DPM      0.033200
     26 NB          1.1440    2.8880    4.0990 na        1 DPM     -0.187100
     27 O1B        -2.2630    0.0230    7.0940 o         1 DPM     -0.867300
     28 O2B        -1.5280   -1.0300    5.2840 o         1 DPM     -0.867300
     29 O3B        -3.4790    6.7480    6.3150 o         1 DPM     -0.881300
     30 O4B        -1.9510    7.4150    7.7760 o         1 DPM     -0.881300
     31 H5A1        2.8970   -0.9040   -1.2350 hc        1 DPM      0.036200
     32 H5A2        3.6740    0.7310   -1.1350 hc        1 DPM      0.036200
     33 H7A1        2.9340   -1.1570    2.7360 hc        1 DPM      0.041200
     34 H7A2        3.3240   -1.5790    1.0240 hc        1 DPM      0.041200
     35 H8A1        4.4340    0.8240    2.6150 hc        1 DPM      0.025700
     36 H8A2        4.7410    0.5100    0.8630 hc        1 DPM      0.025700
     37 HCA1       -0.9060    2.5280   -0.9760 hc        1 DPM      0.042033
     38 HCA2        0.7310    2.6120   -1.7840 hc        1 DPM      0.042033
     39 HCA3       -0.2970    1.1500   -2.0090 hc        1 DPM      0.042033
     40 H10        -0.6380    1.8490    1.4880 hn        1 DPM      0.281700
     41 H4B1        1.0070    4.9170    4.8510 h4        1 DPM      0.139000
     42 H5B1       -2.4940    1.0180    4.0580 hc        1 DPM      0.025700
     43 H5B2       -2.8430    1.9500    5.5800 hc        1 DPM      0.025700
     44 H7B1       -1.8720    3.8830    6.9820 hc        1 DPM      0.047700
     45 H7B2       -2.6840    4.3330    5.4360 hc        1 DPM      0.047700
     46 H8B1       -1.0150    6.2210    5.1420 hc        1 DPM      0.016700
     47 H8B2       -0.3210    5.8180    6.7630 hc        1 DPM      0.016700
     48 HCB1        1.5910    0.0680    4.0070 hc        1 DPM      0.093200
     49 HCB2       -0.1600   -0.2390    3.6390 hc        1 DPM      0.093200
     50 H22         2.0000    2.9210    3.6130 hn        1 DPM      0.286700
@<TRIPOS>BOND
     1    1    2 2   
     2    1   10 1   
     3    1   11 1   
     4    2    3 1   
     5    2    5 1   
     6    3    4 2   
     7    3    7 1   
     8    4   11 1   
     9    4   25 1   
    10    5    6 1   
    11    5   31 1   
    12    5   32 1   
    13    6   12 1   
    14    6   13 1   
    15    7    8 1   
    16    7   33 1   
    17    7   34 1   
    18    8    9 1   
    19    8   35 1   
    20    8   36 1   
    21    9   14 1   
    22    9   15 1   
    23   10   37 1   
    24   10   38 1   
    25   10   39 1   
    26   11   40 1   
    27   16   17 2   
    28   16   25 1   
    29   16   26 1   
    30   17   18 1   
    31   17   20 1   
    32   18   19 2   
    33   18   22 1   
    34   19   26 1   
    35   19   41 1   
    36   20   21 1   
    37   20   42 1   
    38   20   43 1   
    39   21   27 1   
    40   21   28 1   
    41   22   23 1   
    42   22   44 1   
    43   22   45 1   
    44   23   24 1   
    45   23   46 1   
    46   23   47 1   
    47   24   29 1   
    48   24   30 1   
    49   25   48 1   
    50   25   49 1   
    51   26   50 1   
@<TRIPOS>SUBSTRUCTURE
     1 DPM         1 TEMP              0 ****  ****    0 ROOT
