@<TRIPOS>MOLECULE
DPM
   50    51     1     0     0
SMALL
bcc


@<TRIPOS>ATOM
      1 C1A         2.6350    1.9660    0.8280 cc        1 DPM     -0.137600
      2 C2A         3.4710    0.9940    0.2320 cd        1 DPM     -0.100300
      3 C3A         2.6610    0.2800   -0.7320 cd        1 DPM     -0.165300
      4 C4A         1.3690    0.8530   -0.6910 cc        1 DPM     -0.134600
      5 C5A         4.8730    0.6680    0.5410 c3        1 DPM     -0.106100
      6 C6A         5.8210    1.7990    0.9610 c         1 DPM      0.909600
      7 C7A         3.1140   -0.7970   -1.6340 c3        1 DPM      0.013900
      8 C8A         3.2250   -2.1560   -0.9740 c3        1 DPM     -0.169400
      9 C9A         3.6830   -3.2720   -1.9180 c         1 DPM      0.902600
     10 CHA         2.9530    2.9480    1.8790 c3        1 DPM     -0.031800
     11 NA          1.3640    1.8660    0.2630 na        1 DPM     -0.156100
     12 O1A         6.0590    1.9740    2.2010 o         1 DPM     -0.883800
     13 O2A         6.4270    2.4800    0.0790 o         1 DPM     -0.883800
     14 O3A         3.7390   -3.0860   -3.1710 o         1 DPM     -0.885800
     15 O4A         3.9930   -4.3940   -1.4020 o         1 DPM     -0.885800
     16 C1B        -1.0020    0.0860   -0.7020 cc        1 DPM     -0.101600
     17 C2B        -2.3240    0.5800   -0.6500 cd        1 DPM     -0.111300
     18 C3B        -3.0760   -0.3170    0.2030 cd        1 DPM     -0.139300
     19 C4B        -2.1750   -1.2930    0.6600 cc        1 DPM     -0.205300
     20 C5B        -2.8570    1.7440   -1.3680 c3        1 DPM     -0.113100
     21 C6B        -2.3650    3.1410   -0.9540 c         1 DPM      0.915600
     22 C7B        -4.5180   -0.2500    0.5100 c3        1 DPM      0.010900
     23 C8B        -5.0290   -1.4510    1.2820 c3        1 DPM     -0.174400
     24 C9B        -6.5500   -1.4790    1.4560 c         1 DPM      0.903600
     25 CHB         0.1530    0.5770   -1.4980 c3        1 DPM      0.059200
     26 NB         -0.9270   -1.0570    0.0960 na        1 DPM     -0.178100
     27 O1B        -3.1250    4.1170   -1.2540 o         1 DPM     -0.872800
     28 O2B        -1.2450    3.3180   -0.3930 o         1 DPM     -0.872800
     29 O3B        -7.0210   -1.5960    2.6320 o         1 DPM     -0.882300
     30 O4B        -7.3080   -1.4470    0.4390 o         1 DPM     -0.882300
     31 H5A1        4.8750   -0.0930    1.3710 hc        1 DPM      0.031200
     32 H5A2        5.3280    0.1780   -0.3630 hc        1 DPM      0.031200
     33 H7A1        2.4150   -0.8860   -2.5100 hc        1 DPM      0.036200
     34 H7A2        4.1200   -0.5260   -2.0570 hc        1 DPM      0.036200
     35 H8A1        3.9480   -2.0980   -0.1200 hc        1 DPM      0.023700
     36 H8A2        2.2320   -2.4550   -0.5510 hc        1 DPM      0.023700
     37 HCA1        2.8510    3.9930    1.4910 hc        1 DPM      0.037700
     38 HCA2        2.2630    2.8370    2.7530 hc        1 DPM      0.037700
     39 HCA3        4.0090    2.7920    2.2250 hc        1 DPM      0.037700
     40 H10         0.5880    2.4720    0.4140 hn        1 DPM      0.334700
     41 H4B1       -2.3490   -2.1320    1.3300 h4        1 DPM      0.139000
     42 H5B1       -2.6090    1.6440   -2.4610 hc        1 DPM      0.025200
     43 H5B2       -3.9760    1.7460   -1.2770 hc        1 DPM      0.025200
     44 H7B1       -4.7250    0.6850    1.0990 hc        1 DPM      0.043200
     45 H7B2       -5.1010   -0.1650   -0.4480 hc        1 DPM      0.043200
     46 H8B1       -4.7380   -2.3890    0.7410 hc        1 DPM      0.017700
     47 H8B2       -4.5490   -1.4790    2.2930 hc        1 DPM      0.017700
     48 HCB1       -0.1800    1.5300   -2.0020 hc        1 DPM      0.062200
     49 HCB2        0.4110   -0.1770   -2.2910 hc        1 DPM      0.062200
     50 H22        -0.0860   -1.5220    0.3180 hn        1 DPM      0.291700
@<TRIPOS>BOND
     1    1    2 2   
     2    1   10 1   
     3    1   11 1   
     4    2    3 1   
     5    2    5 1   
     6    3    4 2   
     7    3    7 1   
     8    4   11 1   
     9    4   25 1   
    10    5    6 1   
    11    5   31 1   
    12    5   32 1   
    13    6   12 1   
    14    6   13 1   
    15    7    8 1   
    16    7   33 1   
    17    7   34 1   
    18    8    9 1   
    19    8   35 1   
    20    8   36 1   
    21    9   14 1   
    22    9   15 1   
    23   10   37 1   
    24   10   38 1   
    25   10   39 1   
    26   11   40 1   
    27   16   17 2   
    28   16   25 1   
    29   16   26 1   
    30   17   18 1   
    31   17   20 1   
    32   18   19 2   
    33   18   22 1   
    34   19   26 1   
    35   19   41 1   
    36   20   21 1   
    37   20   42 1   
    38   20   43 1   
    39   21   27 1   
    40   21   28 1   
    41   22   23 1   
    42   22   44 1   
    43   22   45 1   
    44   23   24 1   
    45   23   46 1   
    46   23   47 1   
    47   24   29 1   
    48   24   30 1   
    49   25   48 1   
    50   25   49 1   
    51   26   50 1   
@<TRIPOS>SUBSTRUCTURE
     1 DPM         1 TEMP              0 ****  ****    0 ROOT
