@<TRIPOS>MOLECULE
DPN
   22    20     1     0     0
SMALL
bcc


@<TRIPOS>ATOM
      1 N          -1.4930    0.1520    2.3600 n3        1 DPN     -0.320000
      2 CA         -0.2070    0.5400    1.7460 c3        1 DPN     -0.125000
      3 C           0.7590    0.9700    2.8220 c2        1 DPN      0.306000
      4 O           1.2630    2.1850    2.8020 o         1 DPN     -0.576500
      5 OXT         1.0400    0.1400    3.8490 o         1 DPN     -0.576500
      6 CB          0.3670   -0.6440    0.9960 c3        1 DPN     -0.122000
      7 CG          0.2160   -0.4170   -0.5300 c2        1 DPN     -0.028000
      8 CD1         1.1630    0.2610   -1.2000 c2        1 DPN     -0.136000
      9 CD2        -0.8550   -1.0190   -1.2340 c1        1 DPN     -0.118000
     10 CE1         1.0880    0.3750   -2.6250 c1        1 DPN     -0.142000
     11 CE2        -0.9240   -0.9020   -2.6530 c1        1 DPN     -0.150500
     12 CZ          0.0320   -0.2170   -3.3220 c1        1 DPN     -0.150500
     13 H          -2.1730    0.7630    2.0940 hn        1 DPN      0.125000
     14 H2         -1.4100    0.1650    3.2990 hn        1 DPN      0.125000
     15 HA         -0.3640    1.3570    1.0630 h1        1 DPN      0.086000
     16 HB2        -0.1360   -1.4910    1.2670 hc        1 DPN      0.098000
     17 HB3         1.2450   -0.7360    1.2010 hc        1 DPN      0.098000
     18 HD1         1.9380    0.6940   -0.6920 ha        1 DPN      0.136000
     19 HD2        -1.6160   -1.5660   -0.7000 ha        1 DPN      0.138000
     20 HE1         1.7380    0.8420   -3.0860 ha        1 DPN      0.112000
     21 HE2        -1.6580   -1.3140   -3.1420 ha        1 DPN      0.110500
     22 HZ         -0.0150   -0.1370   -4.3150 ha        1 DPN      0.110500
@<TRIPOS>BOND
     1    1    2 1   
     2    1   13 1   
     3    1   14 1   
     4    2    3 1   
     5    2    6 1   
     6    2   15 1   
     7    3    4 1   
     8    3    5 1   
     9    6    7 1   
    10    6   16 1   
    11    6   17 1   
    12    7    8 1   
    13    7    9 1   
    14    8   10 1   
    15    8   18 1   
    16    9   19 1   
    17   10   20 1   
    18   11   12 1   
    19   11   21 1   
    20   12   22 1   
@<TRIPOS>SUBSTRUCTURE
     1 DPN         1 TEMP              0 ****  ****    0 ROOT
