@<TRIPOS>MOLECULE
DPN
   22    22     1     0     0
SMALL
bcc


@<TRIPOS>ATOM
      1 N          -1.2130    1.6510    0.7200 n3        1 DPN     -0.887800
      2 CA         -1.3110    0.2270    0.4220 c3        1 DPN      0.022500
      3 C          -2.7640   -0.2670    0.1050 c         1 DPN      0.886600
      4 O          -3.7070    0.5690    0.2000 o         1 DPN     -0.841800
      5 OXT        -2.9110   -1.4810   -0.2070 o         1 DPN     -0.841800
      6 CB         -0.4010   -0.2090   -0.7320 c3        1 DPN     -0.036100
      7 CG          1.0440   -0.1700   -0.3820 ca        1 DPN     -0.035300
      8 CD1         1.7100   -1.3400    0.0070 ca        1 DPN     -0.127000
      9 CD2         1.7660    1.0300   -0.4470 ca        1 DPN     -0.127000
     10 CE1         3.0680   -1.3120    0.3180 ca        1 DPN     -0.142000
     11 CE2         3.1240    1.0560   -0.1350 ca        1 DPN     -0.142000
     12 CZ          3.7800   -0.1150    0.2450 ca        1 DPN     -0.159000
     13 H          -1.4420    2.1630   -0.1150 hn        1 DPN      0.329800
     14 H2         -1.9380    1.8640    1.3850 hn        1 DPN      0.329800
     15 HA         -0.9860   -0.3220    1.3530 h1        1 DPN      0.046700
     16 HB2        -0.7060   -1.2580   -1.0030 hc        1 DPN      0.058700
     17 HB3        -0.5860    0.4390   -1.6290 hc        1 DPN      0.058700
     18 HD1         1.1480   -2.2840    0.0730 ha        1 DPN      0.137000
     19 HD2         1.2440    1.9560   -0.7270 ha        1 DPN      0.137000
     20 HE1         3.5790   -2.2360    0.6240 ha        1 DPN      0.112000
     21 HE2         3.6790    2.0030   -0.1850 ha        1 DPN      0.112000
     22 HZ          4.8500   -0.0940    0.4900 ha        1 DPN      0.109000
@<TRIPOS>BOND
     1    1    2 1   
     2    1   13 1   
     3    1   14 1   
     4    2    3 1   
     5    2    6 1   
     6    2   15 1   
     7    3    4 1   
     8    3    5 1   
     9    6    7 1   
    10    6   16 1   
    11    6   17 1   
    12    7    8 ar  
    13    7    9 ar  
    14    8   10 ar  
    15    8   18 1   
    16    9   11 ar  
    17    9   19 1   
    18   10   12 ar  
    19   10   20 1   
    20   11   12 ar  
    21   11   21 1   
    22   12   22 1   
@<TRIPOS>SUBSTRUCTURE
     1 DPN         1 TEMP              0 ****  ****    0 ROOT
