@<TRIPOS>MOLECULE
DPO
    9     8     1     0     0
SMALL
bcc


@<TRIPOS>ATOM
      1 P1         -1.6720   -0.0160   -0.0200 p5        1 DPO      1.493900
      2 O1         -2.1400   -1.4470   -0.2740 o         1 DPO     -1.021500
      3 O2         -2.1620    0.9110   -1.1290 o         1 DPO     -1.021500
      4 O3         -2.1610    0.4730    1.3410 o         1 DPO     -1.021500
      5 O4          0.0000    0.0000   -0.0170 os        1 DPO     -0.855800
      6 P2          1.6720    0.0170   -0.0150 p5        1 DPO      1.493900
      7 O5          2.1400    1.4480    0.2390 o         1 DPO     -1.021500
      8 O6          2.1620   -0.9110    1.0950 o         1 DPO     -1.021500
      9 O7          2.1610   -0.4730   -1.3760 o         1 DPO     -1.021500
@<TRIPOS>BOND
     1    1    2 1   
     2    1    3 1   
     3    1    4 1   
     4    1    5 1   
     5    5    6 1   
     6    6    7 1   
     7    6    8 1   
     8    6    9 1   
@<TRIPOS>SUBSTRUCTURE
     1 DPO         1 TEMP              0 ****  ****    0 ROOT
