@<TRIPOS>MOLECULE
DPO
    9     7     1     0     0
SMALL
bcc


@<TRIPOS>ATOM
      1 P1         -1.3930   -0.0070    0.0840 p4        1 DPO      1.862200
      2 O1         -1.5490   -1.1420   -0.8990 o         1 DPO     -1.021500
      3 O2         -1.4640    1.3100   -0.6520 os        1 DPO     -1.341000
      4 O3         -2.5010   -0.0710    1.1080 o         1 DPO     -1.070300
      5 O4          0.0050   -0.1290    0.8120 os        1 DPO     -0.855800
      6 P2          1.3940   -0.0170    0.0650 p5        1 DPO      1.493900
      7 O5          1.5380    1.3650   -0.5260 o         1 DPO     -1.021500
      8 O6          2.5140   -0.2640    1.0460 o         1 DPO     -1.021500
      9 O7          1.4560   -1.0450   -1.0390 o         1 DPO     -1.021500
@<TRIPOS>BOND
     1    1    2 1   
     2    1    4 2   
     3    1    5 1   
     4    5    6 1   
     5    6    7 1   
     6    6    8 1   
     7    6    9 1   
@<TRIPOS>SUBSTRUCTURE
     1 DPO         1 TEMP              0 ****  ****    0 ROOT
