@<TRIPOS>MOLECULE
DPP
   14    13     1     0     0
SMALL
bcc


@<TRIPOS>ATOM
      1 N           0.7390    1.6170   -0.0960 n3        1 DPP     -0.896800
      2 CA          0.3600    0.2370   -0.3710 c3        1 DPP     -0.020500
      3 C          -1.1490   -0.0890   -0.1320 c         1 DPP      0.891600
      4 O          -1.8900    0.8300    0.3210 o         1 DPP     -0.843300
      5 CB          1.1950   -0.7760    0.4410 c3        1 DPP      0.153800
      6 NG          2.6290   -0.7050    0.2790 n3        1 DPP     -0.907800
      7 OXT        -1.5440   -1.2510   -0.4240 o         1 DPP     -0.843300
      8 H           0.0650    2.2080   -0.5530 hn        1 DPP      0.331300
      9 H2          0.6270    1.7810    0.8900 hn        1 DPP      0.331300
     10 HA          0.5560    0.0610   -1.4690 h1        1 DPP      0.037700
     11 HB2         0.9620   -0.6520    1.5350 h1        1 DPP      0.056200
     12 HB3         0.8480   -1.8020    0.1300 h1        1 DPP      0.056200
     13 HG1         2.8620   -0.7820   -0.6940 hn        1 DPP      0.327300
     14 HG2         2.9650    0.1880    0.5930 hn        1 DPP      0.327300
@<TRIPOS>BOND
     1    1    2 1   
     2    1    8 1   
     3    1    9 1   
     4    2    3 1   
     5    2    5 1   
     6    2   10 1   
     7    3    4 1   
     8    3    7 1   
     9    5    6 1   
    10    5   11 1   
    11    5   12 1   
    12    6   13 1   
    13    6   14 1   
@<TRIPOS>SUBSTRUCTURE
     1 DPP         1 TEMP              0 ****  ****    0 ROOT
