@<TRIPOS>MOLECULE
DPQ
   24    24     1     0     0
SMALL
bcc


@<TRIPOS>ATOM
      1 OE2         3.6110    1.4870    0.9750 o         1 DPQ     -0.597100
      2 N          -1.9340    0.6410   -1.5020 n3        1 DPQ     -0.897800
      3 CA         -2.0750   -0.1660   -0.2980 c3        1 DPQ      0.014500
      4 C          -3.5070   -0.1470    0.3430 c         1 DPQ      0.891600
      5 O          -4.4270    0.4410   -0.2890 o         1 DPQ     -0.834300
      6 CG          0.3560    0.0170    0.4440 c2        1 DPQ      0.041600
      7 CD1         0.7010   -1.1780   -0.3730 c3        1 DPQ     -0.045000
      8 CD2         1.3000    0.8840    0.8760 ce        1 DPQ     -0.316200
      9 CE1         2.1480   -1.4050   -0.5740 c2        1 DPQ     -0.162200
     10 CE2         2.7170    0.7000    0.6130 c         1 DPQ      0.566500
     11 CZ          3.0750   -0.5340   -0.1290 ce        1 DPQ     -0.029100
     12 OH          4.4120   -0.7910   -0.3610 oh        1 DPQ     -0.515100
     13 OXT        -3.6500   -0.7450    1.4440 o         1 DPQ     -0.834300
     14 HA         -1.8970   -1.2380   -0.6090 h1        1 DPQ      0.038700
     15 HD11        0.2400   -2.0900    0.1030 hc        1 DPQ      0.099200
     16 HD12        0.2130   -1.0580   -1.3860 hc        1 DPQ      0.099200
     17 HE1         2.4360   -2.3150   -1.1200 ha        1 DPQ      0.135000
     18 HH          4.9120   -0.0450    0.0120 ho        1 DPQ      0.431000
     19 HD2         1.0320    1.7780    1.4600 ha        1 DPQ      0.148000
     20 H          -2.7740    0.5140   -2.0440 hn        1 DPQ      0.337800
     21 CB         -1.0750    0.2010    0.8000 c3        1 DPQ     -0.063200
     22 HN2        -1.9100    1.6100   -1.2400 hn        1 DPQ      0.337800
     23 HB1        -1.2570    1.2580    1.1300 hc        1 DPQ      0.077200
     24 HB2        -1.3140   -0.4640    1.6810 hc        1 DPQ      0.077200
@<TRIPOS>BOND
     1    1   10 2   
     2    2    3 1   
     3    2   20 1   
     4    2   22 1   
     5    3    4 1   
     6    3   14 1   
     7    3   21 1   
     8    4    5 1   
     9    4   13 1   
    10    6    7 1   
    11    6    8 2   
    12    6   21 1   
    13    7    9 1   
    14    7   15 1   
    15    7   16 1   
    16    8   10 1   
    17    8   19 1   
    18    9   11 2   
    19    9   17 1   
    20   10   11 1   
    21   11   12 1   
    22   12   18 1   
    23   21   23 1   
    24   21   24 1   
@<TRIPOS>SUBSTRUCTURE
     1 DPQ         1 TEMP              0 ****  ****    0 ROOT
