@<TRIPOS>MOLECULE
DPR
   16    16     1     0     0
SMALL
bcc


@<TRIPOS>ATOM
      1 N          -1.0730   -0.1610   -0.7830 n3        1 DPR     -0.784200
      2 CA          0.4830   -0.1610   -0.7830 c3        1 DPR      0.044500
      3 CB          0.8250   -0.1610    0.7540 c3        1 DPR     -0.084400
      4 CG         -0.2560    0.0930    1.3440 c3        1 DPR     -0.087400
      5 CD         -1.4160   -0.4180    0.4130 c3        1 DPR      0.157800
      6 C           1.0690    0.9230   -1.5140 c         1 DPR      0.934600
      7 O           2.2930    0.8950   -1.8070 o         1 DPR     -0.840300
      8 OXT         0.3600    1.9030   -1.8630 o         1 DPR     -0.840300
      9 H          -1.3770   -0.8200   -1.3350 hn        1 DPR      0.343800
     10 HA          0.8530   -0.9370   -1.2440 h1        1 DPR      0.000700
     11 HB2         1.1580   -1.0370    1.0250 hc        1 DPR      0.052200
     12 HB3         1.4870    0.5290    0.9520 hc        1 DPR      0.052200
     13 HG2        -0.3410    1.0560    1.4850 hc        1 DPR      0.018700
     14 HG3        -0.2860   -0.3730    2.2010 hc        1 DPR      0.018700
     15 HD2        -1.5340   -1.3800    0.5260 h1        1 DPR      0.005200
     16 HD3        -2.2460    0.0480    0.6280 h1        1 DPR      0.005200
@<TRIPOS>BOND
     1    1    2 1   
     2    1    5 1   
     3    1    9 1   
     4    2    3 1   
     5    2    6 1   
     6    2   10 1   
     7    3    4 1   
     8    3   11 1   
     9    3   12 1   
    10    4    5 1   
    11    4   13 1   
    12    4   14 1   
    13    5   15 1   
    14    5   16 1   
    15    6    7 1   
    16    6    8 1   
@<TRIPOS>SUBSTRUCTURE
     1 DPR         1 TEMP              0 ****  ****    0 ROOT
