@<TRIPOS>MOLECULE
DPR
   16    16     1     0     0
SMALL
bcc


@<TRIPOS>ATOM
      1 N           0.7980    1.0530    0.6530 n3        1 DPR     -0.803200
      2 CA         -0.0520   -0.1430    0.5930 c3        1 DPR      0.027500
      3 CB          0.7490   -1.2960   -0.0450 c3        1 DPR     -0.072400
      4 CG          2.0670   -0.6930   -0.5130 c3        1 DPR     -0.095400
      5 CD          2.0750    0.7500    0.0170 c3        1 DPR      0.159800
      6 C          -1.3980    0.0460   -0.1740 c         1 DPR      0.903600
      7 O          -1.6040    1.1360   -0.7820 o         1 DPR     -0.842300
      8 OXT        -2.2130   -0.9180   -0.1420 o         1 DPR     -0.842300
      9 H           0.3300    1.7980    0.1590 hn        1 DPR      0.374800
     10 HA         -0.3140   -0.4080    1.6540 h1        1 DPR      0.046700
     11 HB2         0.9270   -2.1040    0.7050 hc        1 DPR      0.039200
     12 HB3         0.1720   -1.7400   -0.8930 hc        1 DPR      0.039200
     13 HG2         2.9420   -1.2640   -0.1180 hc        1 DPR      0.020700
     14 HG3         2.1340   -0.6980   -1.6290 hc        1 DPR      0.020700
     15 HD2         2.3180    1.4680   -0.8120 h1        1 DPR      0.011200
     16 HD3         2.8760    0.8630    0.8000 h1        1 DPR      0.011200
@<TRIPOS>BOND
     1    1    2 1   
     2    1    5 1   
     3    1    9 1   
     4    2    3 1   
     5    2    6 1   
     6    2   10 1   
     7    3    4 1   
     8    3   11 1   
     9    3   12 1   
    10    4    5 1   
    11    4   13 1   
    12    4   14 1   
    13    5   15 1   
    14    5   16 1   
    15    6    7 1   
    16    6    8 1   
@<TRIPOS>SUBSTRUCTURE
     1 DPR         1 TEMP              0 ****  ****    0 ROOT
