@<TRIPOS>MOLECULE
DPS
   65    70     1     0     0
SMALL
bcc


@<TRIPOS>ATOM
      1 N1          0.1540    0.4740    0.0540 nh        1 DPS     -0.654000
      2 C2         -1.7400    0.1660   -1.4750 ca        1 DPS     -0.222500
      3 C3         -2.2280   -0.1970   -2.7160 ca        1 DPS      0.028000
      4 C4         -1.3790   -0.5480   -3.7770 ca        1 DPS     -0.463500
      5 C5          0.0020   -0.5120   -3.5350 ca        1 DPS      0.028000
      6 N7         -2.9530    1.8420  -10.4580 nh        1 DPS     -0.640800
      7 C8         -0.6280   -0.0280   -7.3600 c3        1 DPS      0.180500
      8 C10         2.4450    1.4830    6.6540 ca        1 DPS     -0.129000
      9 C11         1.3940    1.5130    2.4870 c3        1 DPS     -0.021400
     10 C12         2.8570    2.5310    5.8320 ca        1 DPS     -0.128000
     11 O1         -3.4130   -1.0230   -5.1590 o         1 DPS     -0.660300
     12 O2         -1.4190   -2.2500   -5.6590 o         1 DPS     -0.660300
     13 C1         -0.3400    0.1930   -1.2250 ca        1 DPS      0.237600
     14 C6          0.5190   -0.1510   -2.3020 ca        1 DPS     -0.222500
     15 C7         -0.1150    1.5420    2.2900 c3        1 DPS     -0.079400
     16 C13         1.9680    0.3080    1.7560 c3        1 DPS     -0.079400
     17 C15         1.5800    0.3170    0.2790 c3        1 DPS      0.197800
     18 C18        -0.4710    1.5500    0.8050 c3        1 DPS      0.197800
     19 C14         2.5140    2.5380    4.4800 ca        1 DPS     -0.125500
     20 C16         1.7550    1.4940    3.9370 ca        1 DPS     -0.079300
     21 C17         1.3440    0.4450    4.7690 ca        1 DPS     -0.125500
     22 C19         1.6880    0.4400    6.1190 ca        1 DPS     -0.128000
     23 N          -1.5320    0.1510   -6.2640 n3        1 DPS     -0.895100
     24 C20        -1.1940    0.3850   -8.7350 c3        1 DPS     -0.028500
     25 C9          0.6960    0.7060   -7.0900 c         1 DPS      0.694600
     26 O3          1.1070    1.8410   -7.7410 os        1 DPS     -0.405900
     27 O4          1.4980    0.3620   -6.2190 o         1 DPS     -0.585500
     28 C21        -0.1570    4.3010  -10.0520 ce        1 DPS     -0.089000
     29 C22        -1.3650    3.6860  -10.5540 ce        1 DPS     -0.245000
     30 C23        -1.8000    2.5000  -10.0350 c2        1 DPS      0.140800
     31 C24        -1.0420    1.8960   -8.8780 c3        1 DPS     -0.069500
     32 C25         0.4520    2.1950   -8.9690 c3        1 DPS      0.191300
     33 C26         0.7030    3.6380   -9.2590 c2        1 DPS     -0.198200
     34 C27        -3.3770    0.6790   -9.8220 c2        1 DPS      0.067000
     35 C28        -2.5920   -0.0390   -8.9880 c2        1 DPS     -0.254200
     36 H2         -2.4590    0.4070   -0.6780 ha        1 DPS      0.143000
     37 H3         -3.3230   -0.2240   -2.8790 ha        1 DPS      0.161000
     38 H5          0.7030   -0.7640   -4.3560 ha        1 DPS      0.161000
     39 H8         -0.3600   -1.1330   -7.4150 h1        1 DPS      0.118700
     40 H10         2.7160    1.4780    7.7190 ha        1 DPS      0.132000
     41 H11         1.8250    2.4450    2.0160 hc        1 DPS      0.054700
     42 H12         3.4540    3.3550    6.2480 ha        1 DPS      0.132000
     43 H6          1.6130   -0.1250   -2.1860 ha        1 DPS      0.143000
     44 H71        -0.5790    0.6530    2.7920 hc        1 DPS      0.057450
     45 H72        -0.5460    2.4650    2.7570 hc        1 DPS      0.057450
     46 H131        1.6030   -0.6350    2.2400 hc        1 DPS      0.057450
     47 H132        3.0870    0.3160    1.8220 hc        1 DPS      0.057450
     48 H151        1.8990   -0.6690   -0.1660 h1        1 DPS      0.044450
     49 H152        2.1540    1.1400   -0.2410 h1        1 DPS      0.044450
     50 H181       -0.1660    2.5470    0.3680 h1        1 DPS      0.044450
     51 H182       -1.5890    1.4650    0.7160 h1        1 DPS      0.044450
     52 H14         2.8440    3.3690    3.8380 ha        1 DPS      0.132000
     53 H17         0.7470   -0.3810    4.3530 ha        1 DPS      0.132000
     54 H19         1.3610   -0.3890    6.7640 ha        1 DPS      0.132000
     55 HN         -1.9290    1.0590   -6.2160 hn        1 DPS      0.444800
     56 H201       -1.4500    2.4000   -7.9510 hc        1 DPS      0.082700
     57 H202       -0.5450   -0.1230   -9.5100 hc        1 DPS      0.074700
     58 H25         0.9330    1.5730   -9.7830 h1        1 DPS      0.066700
     59 H26         1.6180    4.0760   -8.8420 ha        1 DPS      0.154000
     60 H27        -4.4060    0.3650  -10.0790 h4        1 DPS      0.151000
     61 HN7        -3.5950    2.3400  -11.0280 hn        1 DPS      0.441800
     62 H21         0.0280    5.3450  -10.3510 ha        1 DPS      0.135000
     63 HN3        -2.9500   -0.9650   -8.5220 ha        1 DPS      0.157000
     64 S          -2.0020   -1.0350   -5.2380 sy        1 DPS      1.531200
     65 H22        -1.9080    4.2110  -11.3510 ha        1 DPS      0.137000
@<TRIPOS>BOND
     1    1   13 1   
     2    1   17 1   
     3    1   18 1   
     4    2    3 ar  
     5    2   13 ar  
     6    2   36 1   
     7    3    4 ar  
     8    3   37 1   
     9    4    5 ar  
    10    4   64 1   
    11    5   14 ar  
    12    5   38 1   
    13    6   30 1   
    14    6   34 1   
    15    6   61 1   
    16    7   23 1   
    17    7   24 1   
    18    7   25 1   
    19    7   39 1   
    20    8   10 ar  
    21    8   22 ar  
    22    8   40 1   
    23    9   15 1   
    24    9   16 1   
    25    9   20 1   
    26    9   41 1   
    27   10   19 ar  
    28   10   42 1   
    29   11   64 2   
    30   12   64 2   
    31   13   14 ar  
    32   14   43 1   
    33   15   18 1   
    34   15   44 1   
    35   15   45 1   
    36   16   17 1   
    37   16   46 1   
    38   16   47 1   
    39   17   48 1   
    40   17   49 1   
    41   18   50 1   
    42   18   51 1   
    43   19   20 ar  
    44   19   52 1   
    45   20   21 ar  
    46   21   22 ar  
    47   21   53 1   
    48   22   54 1   
    49   23   55 1   
    50   23   64 1   
    51   24   31 1   
    52   24   35 1   
    53   24   57 1   
    54   25   26 1   
    55   25   27 2   
    56   26   32 1   
    57   28   29 1   
    58   28   33 2   
    59   28   62 1   
    60   29   30 2   
    61   29   65 1   
    62   30   31 1   
    63   31   32 1   
    64   31   56 1   
    65   32   33 1   
    66   32   58 1   
    67   33   59 1   
    68   34   35 2   
    69   34   60 1   
    70   35   63 1   
@<TRIPOS>SUBSTRUCTURE
     1 DPS         1 TEMP              0 ****  ****    0 ROOT
