@<TRIPOS>MOLECULE
DPS
   64    68     1     0     0
SMALL
bcc


@<TRIPOS>ATOM
      1 N1          0.6090    0.4990    2.6860 nh        1 DPS     -0.641000
      2 C2          2.5730    0.3150    1.2350 ca        1 DPS     -0.200500
      3 C3          3.1560    0.3600   -0.0230 ca        1 DPS      0.004500
      4 C4          2.3970    0.5880   -1.1750 ca        1 DPS     -0.373500
      5 C5          1.0220    0.7790   -1.0260 ca        1 DPS      0.004500
      6 N7         -1.6150    1.9830   -4.0350 na        1 DPS     -0.205400
      7 C8          1.5280   -1.3630   -3.6190 c3        1 DPS      0.095500
      8 C10        -2.2190    0.3960    9.1330 ca        1 DPS     -0.137000
      9 C11        -0.9930   -0.1340    5.0470 c3        1 DPS     -0.025400
     10 C12        -2.8170   -0.5830    8.3410 ca        1 DPS     -0.131500
     11 O1          4.5370    0.7750   -2.5120 o         1 DPS     -0.688300
     12 O2          2.5430    1.7120   -3.4200 o         1 DPS     -0.688300
     13 C1          1.1760    0.4930    1.3850 ca        1 DPS      0.178600
     14 C6          0.4110    0.7330    0.2220 ca        1 DPS     -0.200500
     15 C7          0.4770   -0.5210    4.9510 c3        1 DPS     -0.074900
     16 C13        -1.2420    1.1220    4.2220 c3        1 DPS     -0.074900
     17 C15        -0.7780    0.9280    2.7790 c3        1 DPS      0.184300
     18 C18         0.9010   -0.6790    3.4910 c3        1 DPS      0.184300
     19 C14        -2.4170   -0.7520    7.0160 ca        1 DPS     -0.126000
     20 C16        -1.4130    0.0570    6.4690 ca        1 DPS     -0.069300
     21 C17        -0.8180    1.0380    7.2720 ca        1 DPS     -0.126000
     22 C19        -1.2180    1.2060    8.5960 ca        1 DPS     -0.131500
     23 N           2.8210   -0.7830   -3.3440 n3        1 DPS     -0.913100
     24 C20         0.8060   -0.7350   -4.8270 c3        1 DPS     -0.023200
     25 C9          1.6050   -2.9260   -3.8420 c         1 DPS      0.924600
     26 O3          0.4980   -3.5100   -3.9920 o         1 DPS     -0.822800
     27 O4          2.7350   -3.4820   -3.8410 o         1 DPS     -0.822800
     28 C21        -4.2810   -0.5170   -3.2110 ca        1 DPS     -0.124000
     29 C22        -3.7520    0.7580   -3.3620 ca        1 DPS     -0.171000
     30 C23        -2.4140    0.8630   -3.7680 ca        1 DPS     -0.063200
     31 C24        -1.6280   -0.3230   -4.0260 ca        1 DPS     -0.090800
     32 C25        -2.1880   -1.5870   -3.8540 ca        1 DPS     -0.063000
     33 C26        -3.5150   -1.6700   -3.4480 ca        1 DPS     -0.179000
     34 C27        -0.3280    1.5260   -4.3710 cc        1 DPS     -0.125100
     35 C28        -0.3070    0.1350   -4.4210 cd        1 DPS     -0.121400
     36 H2          3.2130    0.1480    2.1140 ha        1 DPS      0.133000
     37 H3          4.2480    0.2210   -0.1220 ha        1 DPS      0.156500
     38 H5          0.4040    0.9630   -1.9270 ha        1 DPS      0.156500
     39 H8          0.8770   -1.2300   -2.7020 h1        1 DPS      0.040700
     40 H10        -2.5340    0.5290   10.1780 ha        1 DPS      0.126000
     41 H11        -1.6020   -0.9710    4.5970 hc        1 DPS      0.055700
     42 H12        -3.6060   -1.2240    8.7600 ha        1 DPS      0.127000
     43 H6         -0.6790    0.8680    0.2760 ha        1 DPS      0.133000
     44 H71         1.1070    0.2590    5.4510 hc        1 DPS      0.049700
     45 H72         0.6520   -1.4940    5.4760 hc        1 DPS      0.049700
     46 H131       -0.7050    1.9900    4.6840 hc        1 DPS      0.049700
     47 H132       -2.3360    1.3610    4.2100 hc        1 DPS      0.049700
     48 H151       -0.8710    1.9130    2.2400 h1        1 DPS      0.043200
     49 H152       -1.4720    0.1890    2.2780 h1        1 DPS      0.043200
     50 H181        0.3870   -1.5920    3.0670 h1        1 DPS      0.043200
     51 H182        2.0100   -0.8680    3.4610 h1        1 DPS      0.043200
     52 H14        -2.8930   -1.5270    6.3970 ha        1 DPS      0.134500
     53 H17        -0.0270    1.6800    6.8530 ha        1 DPS      0.134500
     54 H19        -0.7440    1.9790    9.2170 ha        1 DPS      0.127000
     55 HN          3.5420   -1.4720   -3.4770 hn        1 DPS      0.486800
     56 H201        1.5210   -0.1600   -5.4720 hc        1 DPS      0.064200
     57 H202        0.3890   -1.5790   -5.4470 hc        1 DPS      0.064200
     58 H22        -4.3590    1.6510   -3.1700 ha        1 DPS      0.114000
     59 H25        -1.5590   -2.4860   -4.0210 ha        1 DPS      0.201000
     60 H26        -3.9760   -2.6580   -3.3040 ha        1 DPS      0.121000
     61 H27         0.4960    2.2260   -4.5460 h4        1 DPS      0.195000
     62 HN7        -1.8090    2.8870   -3.6990 hn        1 DPS      0.277700
     63 S           3.1320    0.6300   -2.7100 sy        1 DPS      1.506200
     64 H21        -5.3280   -0.6280   -2.8910 ha        1 DPS      0.109000
@<TRIPOS>BOND
     1    1   13 1   
     2    1   17 1   
     3    1   18 1   
     4    2    3 ar  
     5    2   13 ar  
     6    2   36 1   
     7    3    4 ar  
     8    3   37 1   
     9    4    5 ar  
    10    4   63 1   
    11    5   14 ar  
    12    5   38 1   
    13    6   30 1   
    14    6   34 1   
    15    6   62 1   
    16    7   23 1   
    17    7   24 1   
    18    7   25 1   
    19    7   39 1   
    20    8   10 ar  
    21    8   22 ar  
    22    8   40 1   
    23    9   15 1   
    24    9   16 1   
    25    9   20 1   
    26    9   41 1   
    27   10   19 ar  
    28   10   42 1   
    29   11   63 2   
    30   12   63 2   
    31   13   14 ar  
    32   14   43 1   
    33   15   18 1   
    34   15   44 1   
    35   15   45 1   
    36   16   17 1   
    37   16   46 1   
    38   16   47 1   
    39   17   48 1   
    40   17   49 1   
    41   18   50 1   
    42   18   51 1   
    43   19   20 ar  
    44   19   52 1   
    45   20   21 ar  
    46   21   22 ar  
    47   21   53 1   
    48   22   54 1   
    49   23   55 1   
    50   23   63 1   
    51   24   35 1   
    52   24   56 1   
    53   24   57 1   
    54   25   26 1   
    55   25   27 1   
    56   28   29 ar  
    57   28   33 ar  
    58   28   64 1   
    59   29   30 ar  
    60   29   58 1   
    61   30   31 ar  
    62   31   32 ar  
    63   31   35 1   
    64   32   33 ar  
    65   32   59 1   
    66   33   60 1   
    67   34   35 2   
    68   34   61 1   
@<TRIPOS>SUBSTRUCTURE
     1 DPS         1 TEMP              0 ****  ****    0 ROOT
