@<TRIPOS>MOLECULE
DPS
   64    68     1     0     0
SMALL
bcc


@<TRIPOS>ATOM
      1 N1          0.0810    0.4350   -0.9980 nh        1 DPS     -0.641000
      2 C2         -2.0240    0.0540   -2.1910 ca        1 DPS     -0.200500
      3 C3         -2.7420   -0.0550   -3.3730 ca        1 DPS      0.004500
      4 C4         -2.1380    0.1470   -4.6180 ca        1 DPS     -0.373500
      5 C5         -0.7760    0.4560   -4.6440 ca        1 DPS      0.004500
      6 N7          1.6170    0.6600   -8.0630 na        1 DPS     -0.205400
      7 C8         -2.3890    2.5500   -6.7840 c3        1 DPS      0.095500
      8 C10         3.6550    0.8170    5.0560 ca        1 DPS     -0.137000
      9 C11         1.7070    1.3320    1.2590 c3        1 DPS     -0.025400
     10 C12         2.9280   -0.2340    4.4980 ca        1 DPS     -0.131500
     11 O1         -4.2590   -0.6540   -5.7420 o         1 DPS     -0.688300
     12 O2         -2.2290   -0.6850   -6.9900 o         1 DPS     -0.688300
     13 C1         -0.6460    0.3830   -2.2150 ca        1 DPS      0.178600
     14 C6         -0.0350    0.5770   -3.4740 ca        1 DPS     -0.200500
     15 C7          0.1980    1.1620    1.3780 c3        1 DPS     -0.074900
     16 C13         2.2460    0.3590    0.2180 c3        1 DPS     -0.074900
     17 C15         1.5260    0.5360   -1.1190 c3        1 DPS      0.184300
     18 C18        -0.4750    1.3220    0.0150 c3        1 DPS      0.184300
     19 C14         2.2950   -0.0730    3.2680 ca        1 DPS     -0.126000
     20 C16         2.3810    1.1440    2.5800 ca        1 DPS     -0.069300
     21 C17         3.1130    2.1960    3.1470 ca        1 DPS     -0.126000
     22 C19         3.7460    2.0320    4.3780 ca        1 DPS     -0.131500
     23 N          -3.3410    1.5090   -6.4790 n3        1 DPS     -0.913100
     24 C20        -1.6890    2.3750   -8.1470 c3        1 DPS     -0.023200
     25 C9         -3.0380    3.9910   -6.7390 c         1 DPS      0.924600
     26 O3         -2.2400    4.9520   -6.9040 o         1 DPS     -0.822800
     27 O4         -4.2760    4.0900   -6.5320 o         1 DPS     -0.822800
     28 C21         3.3410    3.8490   -7.1150 ca        1 DPS     -0.124000
     29 C22         3.2710    2.4950   -7.4180 ca        1 DPS     -0.171000
     30 C23         2.0080    1.9560   -7.6980 ca        1 DPS     -0.063200
     31 C24         0.8290    2.7920   -7.6760 ca        1 DPS     -0.090800
     32 C25         0.9340    4.1450   -7.3570 ca        1 DPS     -0.063000
     33 C26         2.1950    4.6600   -7.0800 ca        1 DPS     -0.179000
     34 C27         0.2150    0.6500   -8.1860 cc        1 DPS     -0.125100
     35 C28        -0.2950    1.9320   -8.0040 cd        1 DPS     -0.121400
     36 H2         -2.5380   -0.1290   -1.2360 ha        1 DPS      0.133000
     37 H3         -3.8160   -0.3150   -3.3360 ha        1 DPS      0.156500
     38 H5         -0.2800    0.6170   -5.6220 ha        1 DPS      0.156500
     39 H8         -1.5990    2.5590   -5.9730 h1        1 DPS      0.040700
     40 H10         4.1540    0.6890    6.0270 ha        1 DPS      0.126000
     41 H11         1.9100    2.3800    0.8920 hc        1 DPS      0.055700
     42 H12         2.8540   -1.1940    5.0300 ha        1 DPS      0.127000
     43 H6          1.0280    0.8450   -3.5550 ha        1 DPS      0.133000
     44 H71        -0.0370    0.1530    1.8060 hc        1 DPS      0.049700
     45 H72        -0.2210    1.9360    2.0700 hc        1 DPS      0.049700
     46 H131        3.3390    0.5410    0.0550 hc        1 DPS      0.049700
     47 H132        2.1220   -0.6930    0.5840 hc        1 DPS      0.049700
     48 H151        1.8720   -0.2780   -1.8180 h1        1 DPS      0.043200
     49 H152        1.8340    1.5300   -1.5600 h1        1 DPS      0.043200
     50 H181       -0.3820    2.4020   -0.3040 h1        1 DPS      0.043200
     51 H182       -1.5710    1.0930    0.1300 h1        1 DPS      0.043200
     52 H14         1.7220   -0.9060    2.8320 ha        1 DPS      0.134500
     53 H17         3.1890    3.1580    2.6170 ha        1 DPS      0.134500
     54 H19         4.3170    2.8640    4.8140 ha        1 DPS      0.127000
     55 HN         -4.2680    1.8960   -6.4220 hn        1 DPS      0.486800
     56 H201       -1.6920    3.3780   -8.6590 hc        1 DPS      0.064200
     57 H202       -2.2510    1.6570   -8.8010 hc        1 DPS      0.064200
     58 H22         4.1730    1.8710   -7.4380 ha        1 DPS      0.114000
     59 H25         0.0140    4.7630   -7.3090 ha        1 DPS      0.201000
     60 H26         2.3010    5.7240   -6.8240 ha        1 DPS      0.121000
     61 H27        -0.3310   -0.2780   -8.3880 h4        1 DPS      0.195000
     62 HN7         2.1620   -0.1430   -7.9010 hn        1 DPS      0.277700
     63 S          -3.0400    0.0160   -6.0560 sy        1 DPS      1.506200
     64 H21         4.3190    4.2970   -6.8890 ha        1 DPS      0.109000
@<TRIPOS>BOND
     1    1   13 1   
     2    1   17 1   
     3    1   18 1   
     4    2    3 ar  
     5    2   13 ar  
     6    2   36 1   
     7    3    4 ar  
     8    3   37 1   
     9    4    5 ar  
    10    4   63 1   
    11    5   14 ar  
    12    5   38 1   
    13    6   30 1   
    14    6   34 1   
    15    6   62 1   
    16    7   23 1   
    17    7   24 1   
    18    7   25 1   
    19    7   39 1   
    20    8   10 ar  
    21    8   22 ar  
    22    8   40 1   
    23    9   15 1   
    24    9   16 1   
    25    9   20 1   
    26    9   41 1   
    27   10   19 ar  
    28   10   42 1   
    29   11   63 2   
    30   12   63 2   
    31   13   14 ar  
    32   14   43 1   
    33   15   18 1   
    34   15   44 1   
    35   15   45 1   
    36   16   17 1   
    37   16   46 1   
    38   16   47 1   
    39   17   48 1   
    40   17   49 1   
    41   18   50 1   
    42   18   51 1   
    43   19   20 ar  
    44   19   52 1   
    45   20   21 ar  
    46   21   22 ar  
    47   21   53 1   
    48   22   54 1   
    49   23   55 1   
    50   23   63 1   
    51   24   35 1   
    52   24   56 1   
    53   24   57 1   
    54   25   26 1   
    55   25   27 1   
    56   28   29 ar  
    57   28   33 ar  
    58   28   64 1   
    59   29   30 ar  
    60   29   58 1   
    61   30   31 ar  
    62   31   32 ar  
    63   31   35 1   
    64   32   33 ar  
    65   32   59 1   
    66   33   60 1   
    67   34   35 2   
    68   34   61 1   
@<TRIPOS>SUBSTRUCTURE
     1 DPS         1 TEMP              0 ****  ****    0 ROOT
