@<TRIPOS>MOLECULE
DPS
   65    69     1     0     0
SMALL
bcc


@<TRIPOS>ATOM
      1 N1          0.3580    1.9960   -1.0370 nh        1 DPS     -0.634000
      2 C2         -1.7340    1.0900   -2.0130 ca        1 DPS     -0.218000
      3 C3         -2.3940    0.5240   -3.0880 ca        1 DPS      0.029500
      4 C4         -1.7140    0.1510   -4.2590 ca        1 DPS     -0.399500
      5 C5         -0.3320    0.3890   -4.3100 ca        1 DPS      0.029500
      6 N7          1.5450    1.1810   -7.9650 nu        1 DPS     -0.265100
      7 C8         -1.9030    1.8320   -6.7160 c2        1 DPS     -0.405000
      8 C10         3.8730    1.2260    4.8280 ce        1 DPS     -0.144000
      9 C11         0.6600    0.9910    1.6860 c2        1 DPS     -0.123400
     10 C12         3.0310    0.4060    5.7160 ce        1 DPS     -0.144000
     11 O1         -3.8580   -0.8920   -5.1510 o         1 DPS     -0.633300
     12 O2         -1.7740   -1.6100   -6.1310 o         1 DPS     -0.633300
     13 C1         -0.3350    1.3310   -2.0620 ca        1 DPS      0.226600
     14 C6          0.3500    0.9580   -3.2480 ca        1 DPS     -0.218000
     15 C7         -0.6140    1.6350    1.2540 c3        1 DPS     -0.074200
     16 C13         1.5060    0.4530    0.5860 c3        1 DPS     -0.074200
     17 C15         1.6210    1.4270   -0.5930 c3        1 DPS      0.188300
     18 C18        -0.3900    2.5740    0.0660 c3        1 DPS      0.188300
     19 C14         2.0380   -0.1650    4.9890 c2        1 DPS     -0.178200
     20 C16         2.1820    0.2300    3.5290 c3        1 DPS     -0.001100
     21 C17         0.9690    0.8870    2.9870 c2        1 DPS     -0.134200
     22 C19         3.3910    1.1500    3.5610 c2        1 DPS     -0.178200
     23 N          -2.7180    0.7010   -6.8340 ny        1 DPS     -0.407700
     24 C20         0.2290    3.1050   -7.1990 cx        1 DPS     -0.071500
     25 C9         -3.0060    5.0200   -4.2610 c1        1 DPS      0.885000
     26 O3         -2.4170    5.7810   -3.5630 o         1 DPS     -0.442000
     27 O4         -3.6030    4.2600   -4.9560 o         1 DPS     -0.442000
     28 C21         2.9230    4.6440   -8.2220 ce        1 DPS     -0.132000
     29 C22         2.4320    3.4570   -8.6320 c2        1 DPS     -0.125200
     30 C23         1.6120    2.6270   -7.7460 cx        1 DPS     -0.044100
     31 C24         1.4380    3.1130   -6.2890 cx        1 DPS     -0.061500
     32 C25         2.0690    4.3880   -5.9550 c2        1 DPS     -0.131200
     33 C26         2.7350    5.1200   -6.8710 ce        1 DPS     -0.142000
     34 C27         0.1940    0.8110   -7.6670 ce        1 DPS      0.007500
     35 C28        -0.5780    1.8510   -7.1870 ce        1 DPS     -0.109800
     36 H2         -2.3130    1.3320   -1.1080 ha        1 DPS      0.145000
     37 H3         -3.4820    0.3350   -3.0200 ha        1 DPS      0.162500
     38 H5          0.2260    0.1270   -5.2330 ha        1 DPS      0.162500
     39 H8         -2.3460    2.7070   -6.2260 hx        1 DPS      0.168000
     40 H10         4.7370    1.7860    5.1830 ha        1 DPS      0.144000
     41 H11         2.4380   -0.6920    2.9320 hc        1 DPS      0.087700
     42 H12         3.2210    0.3070    6.7840 ha        1 DPS      0.144000
     43 H6          1.4310    1.1400   -3.3520 ha        1 DPS      0.145000
     44 H71        -1.3460    0.8310    0.9710 hc        1 DPS      0.058950
     45 H72        -1.0690    2.2280    2.0900 hc        1 DPS      0.058950
     46 H131        1.0620   -0.5170    0.2330 hc        1 DPS      0.058950
     47 H132        2.5460    0.2390    0.9490 hc        1 DPS      0.058950
     48 H151        2.1300    0.8980   -1.4450 h1        1 DPS      0.062700
     49 H152        2.2700    2.2960   -0.2850 h1        1 DPS      0.062700
     50 H181        0.2150    3.4600    0.4180 h1        1 DPS      0.062700
     51 H182       -1.3770    2.9660   -0.3020 h1        1 DPS      0.062700
     52 H14         1.2380   -0.8210    5.3240 ha        1 DPS      0.144000
     53 H17         0.2930    1.3090    3.7510 ha        1 DPS      0.131000
     54 H19         3.7600    1.6360    2.6610 ha        1 DPS      0.144000
     55 HN         -2.5020    0.2000   -7.7020 hn        1 DPS      0.432800
     56 H201       -0.2620    4.0410   -7.4900 hc        1 DPS      0.100700
     57 H202        1.4570    2.3700   -5.4640 hc        1 DPS      0.093700
     58 H25         1.9950    4.7080   -4.9040 ha        1 DPS      0.130000
     59 H26         3.1960    6.0840   -6.6080 ha        1 DPS      0.128000
     60 H27        -0.0820   -0.2410   -7.7860 h4        1 DPS      0.032800
     61 HN7         1.8000    0.9380   -8.9050 hn        1 DPS      0.210700
     62 H21         3.5180    5.2760   -8.9000 ha        1 DPS      0.129000
     63 HN3        -3.7000    0.9760   -6.8430 hn        1 DPS      0.432800
     64 S          -2.5110   -0.5720   -5.4980 sy        1 DPS      1.129200
     65 H22         2.6430    3.0670   -9.6390 ha        1 DPS      0.130000
@<TRIPOS>BOND
     1    1   13 1   
     2    1   17 1   
     3    1   18 1   
     4    2    3 ar  
     5    2   13 ar  
     6    2   36 1   
     7    3    4 ar  
     8    3   37 1   
     9    4    5 ar  
    10    4   64 1   
    11    5   14 ar  
    12    5   38 1   
    13    6   30 1   
    14    6   34 2   
    15    6   61 1   
    16    7   23 1   
    17    7   35 2   
    18    7   39 1   
    19    8   10 1   
    20    8   22 2   
    21    8   40 1   
    22    9   15 1   
    23    9   16 1   
    24    9   21 2   
    25   10   19 2   
    26   10   42 1   
    27   11   64 2   
    28   12   64 2   
    29   13   14 ar  
    30   14   43 1   
    31   15   18 1   
    32   15   44 1   
    33   15   45 1   
    34   16   17 1   
    35   16   46 1   
    36   16   47 1   
    37   17   48 1   
    38   17   49 1   
    39   18   50 1   
    40   18   51 1   
    41   19   20 1   
    42   19   52 1   
    43   20   21 1   
    44   20   22 1   
    45   20   41 1   
    46   21   53 1   
    47   22   54 1   
    48   23   55 1   
    49   23   63 1   
    50   23   64 1   
    51   24   30 1   
    52   24   31 1   
    53   24   35 1   
    54   24   56 1   
    55   25   26 2   
    56   25   27 2   
    57   28   29 2   
    58   28   33 1   
    59   28   62 1   
    60   29   30 1   
    61   29   65 1   
    62   30   31 1   
    63   31   32 1   
    64   31   57 1   
    65   32   33 2   
    66   32   58 1   
    67   33   59 1   
    68   34   35 1   
    69   34   60 1   
@<TRIPOS>SUBSTRUCTURE
     1 DPS         1 TEMP              0 ****  ****    0 ROOT
