@<TRIPOS>MOLECULE
DPT
   28    30     1     0     0
SMALL
bcc


@<TRIPOS>ATOM
      1 N1         -1.8620    0.0460    1.4100 nb        1 DPT     -0.626000
      2 C2         -1.8290    0.0450    2.7380 ca        1 DPT      0.404200
      3 C3         -0.6370    0.0190    3.5060 ca        1 DPT     -0.246300
      4 C4          0.5790   -0.0060    2.8450 ca        1 DPT     -0.032300
      5 C4A         0.5820   -0.0050    1.4210 ca        1 DPT     -0.143300
      6 C5          1.8050   -0.0310    0.6790 ca        1 DPT     -0.113000
      7 C6          1.8050   -0.0300   -0.6790 ca        1 DPT     -0.113000
      8 C6A         0.5820   -0.0040   -1.4200 ca        1 DPT     -0.143300
      9 C7          0.5790   -0.0030   -2.8450 ca        1 DPT     -0.032300
     10 C8         -0.6370    0.0230   -3.5060 ca        1 DPT     -0.246300
     11 C9         -1.8290    0.0470   -2.7370 ca        1 DPT      0.404200
     12 N10        -1.8620    0.0470   -1.4100 nb        1 DPT     -0.626000
     13 C10        -0.6660    0.0220   -0.7350 ca        1 DPT      0.361300
     14 C1A        -0.6660    0.0210    0.7360 ca        1 DPT      0.361300
     15 C11         1.8490   -0.0330    3.6060 c3        1 DPT     -0.061800
     16 C12         1.8490   -0.0300   -3.6060 c3        1 DPT     -0.061800
     17 H2         -2.8130    0.0650    3.2420 h4        1 DPT      0.025100
     18 H3         -0.6940    0.0200    4.6030 ha        1 DPT      0.144000
     19 H5          2.7540   -0.0510    1.2370 ha        1 DPT      0.136000
     20 H6          2.7540   -0.0500   -1.2370 ha        1 DPT      0.136000
     21 H8         -0.6940    0.0240   -4.6030 ha        1 DPT      0.144000
     22 H9         -2.8130    0.0680   -3.2420 h4        1 DPT      0.025100
     23 H111        2.4340   -0.9530    3.3550 hc        1 DPT      0.051033
     24 H112        2.4730    0.8620    3.3550 hc        1 DPT      0.051033
     25 H113        1.6580   -0.0290    4.7080 hc        1 DPT      0.051033
     26 H121        2.4340   -0.9500   -3.3550 hc        1 DPT      0.051033
     27 H122        1.6580   -0.0250   -4.7080 hc        1 DPT      0.051033
     28 H123        2.4730    0.8650   -3.3550 hc        1 DPT      0.051033
@<TRIPOS>BOND
     1    1    2 ar  
     2    1   14 ar  
     3    2    3 ar  
     4    2   17 1   
     5    3    4 ar  
     6    3   18 1   
     7    4    5 ar  
     8    4   15 1   
     9    5    6 ar  
    10    5   14 ar  
    11    6    7 ar  
    12    6   19 1   
    13    7    8 ar  
    14    7   20 1   
    15    8    9 ar  
    16    8   13 ar  
    17    9   10 ar  
    18    9   16 1   
    19   10   11 ar  
    20   10   21 1   
    21   11   12 ar  
    22   11   22 1   
    23   12   13 ar  
    24   13   14 ar  
    25   15   23 1   
    26   15   24 1   
    27   15   25 1   
    28   16   26 1   
    29   16   27 1   
    30   16   28 1   
@<TRIPOS>SUBSTRUCTURE
     1 DPT         1 TEMP              0 ****  ****    0 ROOT
