@<TRIPOS>MOLECULE
DPT
   28    24     1     0     0
SMALL
bcc


@<TRIPOS>ATOM
      1 N1          1.4250   -0.0130   -2.1610 n1        1 DPT     -0.100000
      2 C2          2.7920   -0.0130   -2.1610 c1        1 DPT     -0.061000
      3 C3          3.4880   -0.0130   -0.9580 c1        1 DPT     -0.181000
      4 C4          2.8040   -0.0130    0.2290 c1        1 DPT     -0.025000
      5 C4A         1.4180   -0.0130    0.2280 c1        1 DPT     -0.078000
      6 C5          0.7090   -0.0130    1.4520 c2        1 DPT     -0.113000
      7 C6         -0.6820   -0.0130    1.4500 c1        1 DPT     -0.113000
      8 C6A        -1.3880   -0.0130    0.2260 c1        1 DPT     -0.078000
      9 C7         -2.7740   -0.0130    0.2230 c2        1 DPT     -0.025000
     10 C8         -3.4550   -0.0130   -0.9650 c1        1 DPT     -0.181000
     11 C9         -2.7560   -0.0130   -2.1670 c1        1 DPT     -0.061000
     12 N10        -1.3900   -0.0130   -2.1640 n1        1 DPT     -0.100000
     13 C10        -0.6990   -0.0130   -0.9650 c1        1 DPT      0.033000
     14 C1A         0.7320   -0.0130   -0.9640 c1        1 DPT      0.033000
     15 C11         3.7910    0.0530    1.3760 c3        1 DPT     -0.187000
     16 C12        -3.8560   -0.0080    1.2810 c3        1 DPT     -0.187000
     17 H2          3.2800   -0.0130   -3.0070 ha        1 DPT      0.162000
     18 H3          4.4640   -0.0130   -0.9580 ha        1 DPT      0.144000
     19 H5          1.1960    0.0050    2.2980 ha        1 DPT      0.136000
     20 H6         -1.1700    0.0050    2.2950 ha        1 DPT      0.136000
     21 H8         -4.4310   -0.0130   -0.9680 ha        1 DPT      0.144000
     22 H9         -3.2420   -0.0130   -3.0140 ha        1 DPT      0.162000
     23 H111        3.7190    0.9210    1.8170 hc        1 DPT      0.090333
     24 H112        4.6970   -0.0630    1.0330 hc        1 DPT      0.090333
     25 H113        3.5920   -0.6550    2.0180 hc        1 DPT      0.090333
     26 H121       -4.4100    0.7890    1.1770 hc        1 DPT      0.090333
     27 H122       -3.4450   -0.0050    2.1670 hc        1 DPT      0.090333
     28 H123       -4.4110   -0.8050    1.1830 hc        1 DPT      0.090333
@<TRIPOS>BOND
     1    1    2 1   
     2    2   17 1   
     3    3    4 1   
     4    3   18 1   
     5    4   15 1   
     6    5    6 1   
     7    5   14 1   
     8    6    7 1   
     9    6   19 1   
    10    7   20 1   
    11    8    9 1   
    12    8   13 1   
    13    9   10 1   
    14    9   16 1   
    15   10   21 1   
    16   11   12 1   
    17   11   22 1   
    18   13   14 1   
    19   15   23 1   
    20   15   24 1   
    21   15   25 1   
    22   16   26 1   
    23   16   27 1   
    24   16   28 1   
@<TRIPOS>SUBSTRUCTURE
     1 DPT         1 TEMP              0 ****  ****    0 ROOT
