@<TRIPOS>MOLECULE
DPU
   40    39     1     0     0
SMALL
bcc


@<TRIPOS>ATOM
      1 CA         -0.1250   -0.6190   -0.5930 c3        1 DPU     -0.199400
      2 C           1.3620   -0.3580   -0.9050 c         1 DPU      0.909600
      3 OI1         2.1530   -0.1770    0.0660 o         1 DPU     -0.846800
      4 OI2         1.7130   -0.3580   -2.1180 o         1 DPU     -0.846800
      5 CB         -0.6160    0.2950    0.5020 c3        1 DPU     -0.068400
      6 CG         -1.9620   -0.1420    1.0390 c3        1 DPU     -0.079400
      7 CD         -2.4370    0.7800    2.1440 c3        1 DPU     -0.086400
      8 CE         -3.7460    0.2920    2.7270 c3        1 DPU     -0.098400
      9 CZ         -4.1850    1.1380    3.9340 c3        1 DPU      0.170500
     10 CH         -5.2850    0.3520    4.7290 c3        1 DPU      0.129500
     11 CS         -6.0850    1.2360    5.6760 c3        1 DPU     -0.130100
     12 N1         -4.6990    2.4320    3.5350 n8        1 DPU     -0.924800
     13 N2         -4.6600   -0.7770    5.4980 nz        1 DPU     -0.863600
     14 CN1        -5.9440   -0.9780    8.3310 c         1 DPU      0.908700
     15 O12        -6.4540   -1.7590    7.5250 o         1 DPU     -0.700500
     16 O2B        -4.2490    0.1690   10.8490 o         1 DPU     -0.735000
     17 PB         -4.9610    0.6110    9.6650 p5        1 DPU      1.406800
     18 O1B        -4.6950   -0.4600    8.2670 os        1 DPU     -0.554500
     19 O3B        -6.4200   -0.3500    9.4100 os        1 DPU     -0.554500
     20 O2A        -5.1420    1.9160    9.0440 o         1 DPU     -0.735000
     21 HA1        -0.7300   -0.4800   -1.5230 hc        1 DPU      0.020700
     22 HA2        -0.2220   -1.6880   -0.2750 hc        1 DPU      0.020700
     23 HB1         0.1460    0.3030    1.3280 hc        1 DPU      0.048700
     24 HB2        -0.6900    1.3430    0.1100 hc        1 DPU      0.048700
     25 HG1        -1.8840   -1.1900    1.4310 hc        1 DPU      0.029200
     26 HG2        -2.7170   -0.1540    0.2090 hc        1 DPU      0.029200
     27 HD1        -2.5550    1.8160    1.7310 hc        1 DPU      0.044700
     28 HD2        -1.6550    0.8310    2.9470 hc        1 DPU      0.044700
     29 HE1        -4.5420    0.3080    1.9360 hc        1 DPU      0.044200
     30 HE2        -3.6180   -0.7780    3.0340 hc        1 DPU      0.044200
     31 HZ         -3.2900    1.2560    4.6230 h1        1 DPU      0.031700
     32 HH         -5.9860   -0.1210    3.9790 hx        1 DPU      0.091700
     33 HS1        -6.7480    0.6180    6.3350 hc        1 DPU      0.081367
     34 HS2        -5.4190    1.8510    6.3320 hc        1 DPU      0.081367
     35 HS3        -6.7350    1.9190    5.0760 hc        1 DPU      0.081367
     36 HN1        -4.2530    2.7560    2.7010 hn        1 DPU      0.376800
     37 HN21       -4.0320   -1.3170    4.9070 hn        1 DPU      0.467467
     38 HN22       -4.1360   -0.4020    6.3070 hn        1 DPU      0.467467
     39 H12        -4.5970    3.1000    4.2720 hn        1 DPU      0.376800
     40 H23        -5.4020   -1.3910    5.8800 hn        1 DPU      0.467467
@<TRIPOS>BOND
     1    1    2 1   
     2    1    5 1   
     3    1   21 1   
     4    1   22 1   
     5    2    3 1   
     6    2    4 1   
     7    5    6 1   
     8    5   23 1   
     9    5   24 1   
    10    6    7 1   
    11    6   25 1   
    12    6   26 1   
    13    7    8 1   
    14    7   27 1   
    15    7   28 1   
    16    8    9 1   
    17    8   29 1   
    18    8   30 1   
    19    9   10 1   
    20    9   12 1   
    21    9   31 1   
    22   10   11 1   
    23   10   13 1   
    24   10   32 1   
    25   11   33 1   
    26   11   34 1   
    27   11   35 1   
    28   12   36 1   
    29   12   39 1   
    30   13   37 1   
    31   13   38 1   
    32   13   40 1   
    33   14   15 2   
    34   14   18 1   
    35   14   19 1   
    36   16   17 1   
    37   17   18 1   
    38   17   19 1   
    39   17   20 1   
@<TRIPOS>SUBSTRUCTURE
     1 DPU         1 TEMP              0 ****  ****    0 ROOT
