@<TRIPOS>MOLECULE
DPU
   38    36     1     0     0
SMALL
bcc


@<TRIPOS>ATOM
      1 CA          0.6310   -3.5320    3.3250 c3        1 DPU     -0.212000
      2 C          -0.1550   -3.9850    4.5350 c2        1 DPU      0.324000
      3 OI1        -0.9280   -4.9750    4.4490 o         1 DPU     -0.603500
      4 OI2        -0.0340   -3.3750    5.6300 o         1 DPU     -0.603500
      5 CB         -0.0820   -2.3720    2.6650 c3        1 DPU     -0.143000
      6 CG          0.6140   -2.0240    1.3680 c3        1 DPU     -0.159000
      7 CD         -0.0830   -0.8460    0.7220 c3        1 DPU     -0.157000
      8 CE          0.5450   -0.5650   -0.6250 c3        1 DPU     -0.166000
      9 CZ         -0.1750    0.5890   -1.2870 c3        1 DPU     -0.010000
     10 CH         -0.7700    0.1270   -2.5970 c3        1 DPU     -0.068000
     11 CS         -1.1400    1.3300   -3.4340 c3        1 DPU     -0.242000
     12 N1          0.7450    1.6440   -1.5300 n         1 DPU     -0.368000
     13 N2         -1.9350   -0.6480   -2.3410 n3        1 DPU     -0.345000
     14 CN1         0.5530    2.9080   -0.9160 c2        1 DPU      0.449000
     15 O12        -0.3770    3.0780   -0.1530 o         1 DPU     -0.597000
     16 O2B         1.7770    5.2420    0.9630 o         1 DPU     -1.229667
     17 PB          1.2260    5.3390   -0.4400 p3        1 DPU      2.534000
     18 O1B         1.4410    3.9620   -1.1860 o         1 DPU     -0.597000
     19 O3B        -0.2500    5.6540   -0.3800 o         1 DPU     -1.229667
     20 O2A         1.9450    6.4360   -1.1890 o         1 DPU     -1.229667
     21 HA1         0.7070   -4.2720    2.6890 hc        1 DPU      0.055500
     22 HA2         1.5250   -3.2490    3.6040 hc        1 DPU      0.055500
     23 HB1        -0.0660   -1.5980    3.2620 hc        1 DPU      0.078500
     24 HB2        -1.0100   -2.6230    2.4810 hc        1 DPU      0.078500
     25 HG1         0.5820   -2.7930    0.7640 hc        1 DPU      0.061000
     26 HG2         1.5460   -1.7910    1.5500 hc        1 DPU      0.061000
     27 HD1        -1.0320   -1.0540    0.6030 hc        1 DPU      0.072000
     28 HD2         0.0080   -0.0590    1.2950 hc        1 DPU      0.072000
     29 HE1         0.4740   -1.3610   -1.1900 hc        1 DPU      0.073500
     30 HE2         1.4880   -0.3350   -0.5040 hc        1 DPU      0.073500
     31 HZ         -0.8880    0.9080   -0.6990 h1        1 DPU      0.107000
     32 HH         -0.1160   -0.4160   -3.0780 h1        1 DPU      0.086000
     33 HS1        -1.7220    1.9240   -2.9150 hc        1 DPU      0.097333
     34 HS2        -1.6110    1.0350   -4.2410 hc        1 DPU      0.097333
     35 HS3        -0.3260    1.8130   -3.6900 hc        1 DPU      0.097333
     36 HN1         1.4480    1.5140   -2.0960 hn        1 DPU      0.242000
     37 HN21       -2.6760   -0.1870   -2.6200 hn        1 DPU      0.123000
     38 HN22       -1.8800   -1.4410   -2.7960 hn        1 DPU      0.123000
@<TRIPOS>BOND
     1    1    2 1   
     2    1    5 1   
     3    1   21 1   
     4    1   22 1   
     5    2    3 1   
     6    2    4 1   
     7    5    6 1   
     8    5   23 1   
     9    5   24 1   
    10    6    7 1   
    11    6   25 1   
    12    6   26 1   
    13    7    8 1   
    14    7   27 1   
    15    7   28 1   
    16    8    9 1   
    17    8   29 1   
    18    8   30 1   
    19    9   10 1   
    20    9   12 1   
    21    9   31 1   
    22   10   11 1   
    23   10   13 1   
    24   10   32 1   
    25   11   33 1   
    26   11   34 1   
    27   11   35 1   
    28   12   14 1   
    29   12   36 1   
    30   13   37 1   
    31   13   38 1   
    32   14   15 1   
    33   14   18 1   
    34   16   17 1   
    35   17   19 1   
    36   17   20 1   
@<TRIPOS>SUBSTRUCTURE
     1 DPU         1 TEMP              0 ****  ****    0 ROOT
