@<TRIPOS>MOLECULE
DPU
   38    37     1     0     0
SMALL
bcc


@<TRIPOS>ATOM
      1 CA         -5.7270    0.4300   -0.6460 c3        1 DPU     -0.183400
      2 C          -7.0110    0.4810    0.1910 c         1 DPU      0.904600
      3 OI1        -7.9340   -0.3470   -0.0830 o         1 DPU     -0.868800
      4 OI2        -7.1320    1.3620    1.0930 o         1 DPU     -0.868800
      5 CB         -4.4680    0.4380    0.1910 c3        1 DPU     -0.064400
      6 CG         -3.2280    0.5700   -0.6710 c3        1 DPU     -0.080400
      7 CD         -1.9440    0.5350    0.1340 c3        1 DPU     -0.078400
      8 CE         -0.7330    0.7490   -0.7550 c3        1 DPU     -0.087400
      9 CZ          0.5750    0.9650    0.0470 c3        1 DPU      0.066700
     10 CH          0.9000    2.5060    0.0770 c3        1 DPU      0.129500
     11 CS          2.2590    2.7280    0.7350 c3        1 DPU     -0.124100
     12 N1          1.6500    0.1610   -0.4860 n         1 DPU     -0.558900
     13 N2         -0.1400    3.3150    0.7000 n3        1 DPU     -0.912800
     14 CN1         2.4970   -0.5320    0.4360 c         1 DPU      0.795100
     15 O12         2.0790   -0.8630    1.5800 o         1 DPU     -0.726000
     16 O2B         4.2210    1.0590   -1.2980 o         1 DPU     -0.910167
     17 PB          4.9700   -0.2060   -0.9760 p5        1 DPU      1.341900
     18 O1B         3.6790   -0.9410    0.0610 os        1 DPU     -0.513500
     19 O3B         6.1180   -0.0810   -0.0290 o         1 DPU     -0.910167
     20 O2A         5.1040   -1.2070   -2.0760 o         1 DPU     -0.910167
     21 HA1        -5.7320    1.3230   -1.3230 hc        1 DPU      0.016200
     22 HA2        -5.7490   -0.4850   -1.2920 hc        1 DPU      0.016200
     23 HB1        -4.4100   -0.5070    0.7900 hc        1 DPU      0.039200
     24 HB2        -4.5230    1.2890    0.9210 hc        1 DPU      0.039200
     25 HG1        -3.2800    1.5340   -1.2440 hc        1 DPU      0.021700
     26 HG2        -3.2100   -0.2590   -1.4280 hc        1 DPU      0.021700
     27 HD1        -1.8500   -0.4550    0.6530 hc        1 DPU      0.032700
     28 HD2        -1.9930    1.3130    0.9390 hc        1 DPU      0.032700
     29 HE1        -0.9110    1.6250   -1.4320 hc        1 DPU      0.034200
     30 HE2        -0.6300   -0.1490   -1.4210 hc        1 DPU      0.034200
     31 HZ          0.3890    0.6320    1.1140 h1        1 DPU      0.067700
     32 HH          0.9730    2.8590   -0.9950 h1        1 DPU      0.046700
     33 HS1         2.3390    2.1370    1.6780 hc        1 DPU      0.058033
     34 HS2         3.0730    2.3900    0.0330 hc        1 DPU      0.058033
     35 HS3         2.4200    3.8080    0.9700 hc        1 DPU      0.058033
     36 HN1         2.2010    0.6180   -1.2010 hn        1 DPU      0.328500
     37 HN21       -1.0260    3.1050    0.2770 hn        1 DPU      0.327800
     38 HN22       -0.2070    3.0820    1.6730 hn        1 DPU      0.327800
@<TRIPOS>BOND
     1    1    2 1   
     2    1    5 1   
     3    1   21 1   
     4    1   22 1   
     5    2    3 1   
     6    2    4 1   
     7    5    6 1   
     8    5   23 1   
     9    5   24 1   
    10    6    7 1   
    11    6   25 1   
    12    6   26 1   
    13    7    8 1   
    14    7   27 1   
    15    7   28 1   
    16    8    9 1   
    17    8   29 1   
    18    8   30 1   
    19    9   10 1   
    20    9   12 1   
    21    9   31 1   
    22   10   11 1   
    23   10   13 1   
    24   10   32 1   
    25   11   33 1   
    26   11   34 1   
    27   11   35 1   
    28   12   14 1   
    29   12   36 1   
    30   13   37 1   
    31   13   38 1   
    32   14   15 2   
    33   14   18 1   
    34   16   17 1   
    35   17   18 1   
    36   17   19 1   
    37   17   20 1   
@<TRIPOS>SUBSTRUCTURE
     1 DPU         1 TEMP              0 ****  ****    0 ROOT
