@<TRIPOS>MOLECULE
DPU
   40    39     1     0     0
SMALL
bcc


@<TRIPOS>ATOM
      1 CA          0.1460    0.7980    0.2350 c3        1 DPU     -0.199400
      2 C           1.0950    0.2040    1.2950 c         1 DPU      0.909600
      3 OI1         1.2650    0.8630    2.3590 o         1 DPU     -0.846800
      4 OI2         1.6600   -0.8980    1.0420 o         1 DPU     -0.846800
      5 CB         -0.6930   -0.2850   -0.3960 c3        1 DPU     -0.065400
      6 CG         -1.5510    0.2470   -1.5240 c3        1 DPU     -0.080400
      7 CD         -2.3850   -0.8600   -2.1380 c3        1 DPU     -0.082400
      8 CE         -3.3800   -0.3030   -3.1340 c3        1 DPU     -0.136400
      9 CZ         -4.0990   -1.3990   -3.9380 c3        1 DPU      0.152500
     10 CH         -5.3760   -0.7970   -4.6140 c3        1 DPU      0.131500
     11 CS         -6.0820   -1.8300   -5.4810 c3        1 DPU     -0.120100
     12 N1         -4.4780   -2.5780   -3.1850 n3        1 DPU     -0.901800
     13 N2         -5.0410    0.4130   -5.4300 n4        1 DPU     -0.858600
     14 CN1        -6.4020    0.8800   -8.2290 c         1 DPU      0.911700
     15 O12        -7.1740    0.8720   -7.2670 o         1 DPU     -0.709500
     16 O2B        -6.5900    0.9560   -9.5470 os        1 DPU     -0.554000
     17 PB         -4.8690    0.8630   -9.9410 p5        1 DPU      1.403800
     18 O1B        -5.0520    0.7940   -8.1660 os        1 DPU     -0.554000
     19 O3B        -4.3710    2.1760  -10.3090 o         1 DPU     -0.729000
     20 O2A        -4.5370   -0.4770  -10.3920 o         1 DPU     -0.729000
     21 HA1         0.7720    1.3030   -0.5430 hc        1 DPU      0.021200
     22 HA2        -0.5040    1.5720    0.7110 hc        1 DPU      0.021200
     23 HB1        -1.3480   -0.7490    0.3870 hc        1 DPU      0.047700
     24 HB2        -0.0100   -1.0930   -0.7740 hc        1 DPU      0.047700
     25 HG1        -2.2250    1.0550   -1.1350 hc        1 DPU      0.030200
     26 HG2        -0.8980    0.7080   -2.3110 hc        1 DPU      0.030200
     27 HD1        -1.7100   -1.5990   -2.6440 hc        1 DPU      0.045200
     28 HD2        -2.9220   -1.4020   -1.3150 hc        1 DPU      0.045200
     29 HE1        -2.8210    0.3670   -3.8400 hc        1 DPU      0.039700
     30 HE2        -4.1320    0.3230   -2.5840 hc        1 DPU      0.039700
     31 HZ         -3.4050   -1.7460   -4.7620 h1        1 DPU      0.074700
     32 HH         -6.0810   -0.4410   -3.8040 hx        1 DPU      0.086700
     33 HS1        -6.8970   -1.3590   -6.0900 hc        1 DPU      0.076700
     34 HS2        -5.3600   -2.3330   -6.1700 hc        1 DPU      0.076700
     35 HS3        -6.5380   -2.6070   -4.8200 hc        1 DPU      0.076700
     36 HN1        -3.6640   -3.1250   -2.9790 hn        1 DPU      0.368300
     37 HN21       -5.9190    0.8520   -5.7670 hn        1 DPU      0.469467
     38 HN22       -4.5040    1.0840   -4.8830 hn        1 DPU      0.469467
     39 H12        -4.9240   -2.3210   -2.3250 hn        1 DPU      0.368300
     40 H23        -4.5040    0.1470   -6.2720 hn        1 DPU      0.469467
@<TRIPOS>BOND
     1    1    2 1   
     2    1    5 1   
     3    1   21 1   
     4    1   22 1   
     5    2    3 1   
     6    2    4 1   
     7    5    6 1   
     8    5   23 1   
     9    5   24 1   
    10    6    7 1   
    11    6   25 1   
    12    6   26 1   
    13    7    8 1   
    14    7   27 1   
    15    7   28 1   
    16    8    9 1   
    17    8   29 1   
    18    8   30 1   
    19    9   10 1   
    20    9   12 1   
    21    9   31 1   
    22   10   11 1   
    23   10   13 1   
    24   10   32 1   
    25   11   33 1   
    26   11   34 1   
    27   11   35 1   
    28   12   36 1   
    29   12   39 1   
    30   13   37 1   
    31   13   38 1   
    32   13   40 1   
    33   14   15 2   
    34   14   16 1   
    35   14   18 1   
    36   16   17 1   
    37   17   18 1   
    38   17   19 1   
    39   17   20 1   
@<TRIPOS>SUBSTRUCTURE
     1 DPU         1 TEMP              0 ****  ****    0 ROOT
