@<TRIPOS>MOLECULE
DPV
   61    60     1     0     0
SMALL
bcc


@<TRIPOS>ATOM
      1 N           0.4540   -0.7500   -0.5270 n4        1 DPV     -0.580800
      2 P           1.2060   -3.9750    1.7450 p5        1 DPV      1.435800
      3 C1          1.3000   -6.1430    0.4310 c3        1 DPV      0.163400
      4 C2          0.5090   -7.0990   -0.4430 c3        1 DPV     -0.081400
      5 C3          1.3150   -8.3460   -0.7330 c3        1 DPV     -0.080400
      6 C4          2.4060   -1.8630    0.7940 c3        1 DPV      0.201400
      7 C5          1.9310   -1.0260   -0.4110 c3        1 DPV      0.090800
      8 C6         -0.0860   -0.1570    0.7310 c3        1 DPV      0.078433
      9 C7          0.2630    0.2300   -1.6390 c3        1 DPV      0.078433
     10 C8         -0.2980   -1.9960   -0.8610 c3        1 DPV      0.078433
     11 C15         0.5370   -9.3110   -1.6030 c3        1 DPV     -0.077400
     12 C16         1.3420  -10.5590   -1.8950 c3        1 DPV     -0.079400
     13 C17         0.5650  -11.5240   -2.7640 c3        1 DPV     -0.078400
     14 C18         1.3710  -12.7710   -3.0570 c3        1 DPV     -0.079400
     15 C19         0.5930  -13.7370   -3.9260 c3        1 DPV     -0.078400
     16 O1P         0.2100   -2.9060    2.0020 o         1 DPV     -0.820000
     17 C20         1.4000  -14.9840   -4.2190 c3        1 DPV     -0.079400
     18 C21         0.6220  -15.9500   -5.0870 c3        1 DPV     -0.079400
     19 C22         1.4280  -17.1980   -5.3810 c3        1 DPV     -0.080400
     20 C23         0.6570  -18.1630   -6.2450 c3        1 DPV     -0.092100
     21 O2P         2.0720   -4.6680    2.7000 o         1 DPV     -0.820000
     22 O3P         0.5190   -5.0010    0.6840 os        1 DPV     -0.575200
     23 O4P         2.1560   -3.2030    0.5920 os        1 DPV     -0.572200
     24 H1          2.2440   -5.8120   -0.0830 h1        1 DPV      0.039200
     25 H1A         1.5720   -6.6200    1.4140 h1        1 DPV      0.039200
     26 H2          0.2310   -6.5860   -1.3990 hc        1 DPV      0.043200
     27 H2A        -0.4470   -7.3680    0.0770 hc        1 DPV      0.043200
     28 H3          2.2720   -8.0650   -1.2460 hc        1 DPV      0.041200
     29 H3A         1.5920   -8.8480    0.2310 hc        1 DPV      0.041200
     30 H4          3.5250   -1.6990    0.8270 h1        1 DPV      0.053200
     31 H4A         1.9410   -1.4910    1.7490 h1        1 DPV      0.053200
     32 H5          2.2360   -1.5690   -1.3500 hx        1 DPV      0.078700
     33 H5A         2.4440   -0.0250   -0.3640 hx        1 DPV      0.078700
     34 H6         -0.1640   -0.9570    1.5310 hx        1 DPV      0.099922
     35 H6A        -1.1090    0.2530    0.5290 hx        1 DPV      0.099922
     36 H6B         0.5960    0.6630    1.0710 hx        1 DPV      0.099922
     37 H7          0.7610    1.1990   -1.3760 hx        1 DPV      0.099922
     38 H7A         0.7130   -0.1820   -2.5800 hx        1 DPV      0.099922
     39 H7B        -0.8340    0.4050   -1.7970 hx        1 DPV      0.099922
     40 H8         -1.3830   -1.7460   -0.9800 hx        1 DPV      0.099922
     41 H8A         0.1120   -2.4340   -1.8050 hx        1 DPV      0.099922
     42 H8B        -0.1730   -2.7400   -0.0100 hx        1 DPV      0.099922
     43 H15        -0.4200   -9.5920   -1.0890 hc        1 DPV      0.037200
     44 H15A        0.2590   -8.8080   -2.5670 hc        1 DPV      0.037200
     45 H16         2.2990  -10.2770   -2.4090 hc        1 DPV      0.040200
     46 H16A        1.6210  -11.0610   -0.9310 hc        1 DPV      0.040200
     47 H17         0.2860  -11.0220   -3.7280 hc        1 DPV      0.038200
     48 H17A       -0.3910  -11.8060   -2.2500 hc        1 DPV      0.038200
     49 H18         2.3270  -12.4890   -3.5720 hc        1 DPV      0.039700
     50 H18A        1.6500  -13.2730   -2.0940 hc        1 DPV      0.039700
     51 H19        -0.3620  -14.0200   -3.4110 hc        1 DPV      0.038700
     52 H19A        0.3130  -13.2350   -4.8890 hc        1 DPV      0.038700
     53 H20         1.6800  -15.4860   -3.2560 hc        1 DPV      0.039200
     54 H20A        2.3550  -14.7010   -4.7340 hc        1 DPV      0.039200
     55 H21         0.3420  -15.4490   -6.0510 hc        1 DPV      0.039200
     56 H21A       -0.3340  -16.2330   -4.5720 hc        1 DPV      0.039200
     57 H22         1.7090  -17.6970   -4.4170 hc        1 DPV      0.038200
     58 H22A        2.3840  -16.9130   -5.8950 hc        1 DPV      0.038200
     59 H23         0.3900  -17.6910   -7.2210 hc        1 DPV      0.032033
     60 H23A       -0.2870  -18.4780   -5.7390 hc        1 DPV      0.032033
     61 H23B        1.2690  -19.0750   -6.4500 hc        1 DPV      0.032033
@<TRIPOS>BOND
     1    1    7 1   
     2    1    8 1   
     3    1    9 1   
     4    1   10 1   
     5    2   16 1   
     6    2   21 1   
     7    2   22 1   
     8    2   23 1   
     9    3    4 1   
    10    3   22 1   
    11    3   24 1   
    12    3   25 1   
    13    4    5 1   
    14    4   26 1   
    15    4   27 1   
    16    5   11 1   
    17    5   28 1   
    18    5   29 1   
    19    6    7 1   
    20    6   23 1   
    21    6   30 1   
    22    6   31 1   
    23    7   32 1   
    24    7   33 1   
    25    8   34 1   
    26    8   35 1   
    27    8   36 1   
    28    9   37 1   
    29    9   38 1   
    30    9   39 1   
    31   10   40 1   
    32   10   41 1   
    33   10   42 1   
    34   11   12 1   
    35   11   43 1   
    36   11   44 1   
    37   12   13 1   
    38   12   45 1   
    39   12   46 1   
    40   13   14 1   
    41   13   47 1   
    42   13   48 1   
    43   14   15 1   
    44   14   49 1   
    45   14   50 1   
    46   15   17 1   
    47   15   51 1   
    48   15   52 1   
    49   17   18 1   
    50   17   53 1   
    51   17   54 1   
    52   18   19 1   
    53   18   55 1   
    54   18   56 1   
    55   19   20 1   
    56   19   57 1   
    57   19   58 1   
    58   20   59 1   
    59   20   60 1   
    60   20   61 1   
@<TRIPOS>SUBSTRUCTURE
     1 DPV         1 TEMP              0 ****  ****    0 ROOT
