@<TRIPOS>MOLECULE
DPV
   61    59     1     0     0
SMALL
bcc


@<TRIPOS>ATOM
      1 N          -6.5030    6.4110   -0.9990 n4        1 DPV     -0.591800
      2 P          -3.6150    2.6360    0.6390 p4        1 DPV      1.803100
      3 C1         -1.7080    0.9060    0.8780 c3        1 DPV      0.163400
      4 C2         -0.9920   -0.1570    0.0760 c3        1 DPV     -0.081400
      5 C3          0.1900   -0.7110    0.9030 c3        1 DPV     -0.079400
      6 C4         -5.1910    4.5660   -0.1440 c3        1 DPV      0.220400
      7 C5         -5.2800    5.6860   -1.1840 c3        1 DPV      0.081800
      8 C6         -6.5710    6.8980    0.3600 c3        1 DPV      0.091100
      9 C7         -6.5520    7.5460   -1.9240 c3        1 DPV      0.091100
     10 C8         -7.6000    5.5560   -1.2460 c3        1 DPV      0.091100
     11 C15         0.9110   -1.7720    0.1100 c3        1 DPV     -0.077400
     12 C16         2.1120   -2.3030    0.9290 c3        1 DPV     -0.079400
     13 C17         2.9510   -3.3090    0.0390 c3        1 DPV     -0.078400
     14 C18         4.2010   -3.7220    0.7750 c3        1 DPV     -0.079400
     15 C19         4.9620   -4.7380   -0.0630 c3        1 DPV     -0.078400
     16 O1P        -4.8150    1.8210    1.0590 os        1 DPV     -1.179000
     17 C20         6.2600   -5.1060    0.6340 c3        1 DPV     -0.079400
     18 C21         7.0130   -6.1210   -0.2070 c3        1 DPV     -0.079400
     19 C22         8.3440   -6.4500    0.4750 c3        1 DPV     -0.080400
     20 C23         9.0870   -7.4830   -0.3330 c3        1 DPV     -0.092100
     21 O2P        -3.0340    3.3360    1.8490 o         1 DPV     -0.849300
     22 O3P        -2.5260    1.6830    0.0050 os        1 DPV     -0.566200
     23 O4P        -4.0620    3.7260   -0.4410 os        1 DPV     -0.555200
     24 H1         -1.0460    1.4880    1.3140 h1        1 DPV      0.038200
     25 H1A        -2.2710    0.4770    1.5650 h1        1 DPV      0.038200
     26 H2         -0.6480    0.2410   -0.7730 hc        1 DPV      0.045200
     27 H2A        -1.6250   -0.8950   -0.1380 hc        1 DPV      0.045200
     28 H3          0.8020    0.0070    1.1110 hc        1 DPV      0.040200
     29 H3A        -0.1480   -1.0990    1.7300 hc        1 DPV      0.040200
     30 H4         -6.0030    4.0360   -0.1660 h1        1 DPV      0.037700
     31 H4A        -5.0830    4.9560    0.7450 h1        1 DPV      0.037700
     32 H5         -4.5250    6.2890   -1.0750 hx        1 DPV      0.088700
     33 H5A        -5.2600    5.2980   -2.0880 hx        1 DPV      0.088700
     34 H6         -5.7110    7.2760    0.6120 hx        1 DPV      0.096700
     35 H6A        -7.2640    7.5910    0.4250 hx        1 DPV      0.096700
     36 H6B        -6.7920    6.1550    0.9660 hx        1 DPV      0.096700
     37 H7         -6.5110    7.2200   -2.8460 hx        1 DPV      0.096700
     38 H7A        -5.7800    8.1450   -1.7520 hx        1 DPV      0.096700
     39 H7B        -7.3960    8.0470   -1.7880 hx        1 DPV      0.096700
     40 H8         -7.4130    5.0040   -2.0400 hx        1 DPV      0.096700
     41 H8A        -7.7450    4.9670   -0.4600 hx        1 DPV      0.096700
     42 H8B        -8.3990    6.0910   -1.4020 hx        1 DPV      0.096700
     43 H15         0.3130   -2.4900   -0.0770 hc        1 DPV      0.037700
     44 H15A        1.2280   -1.3940   -0.7180 hc        1 DPV      0.037700
     45 H16         2.6840   -1.5490    1.2010 hc        1 DPV      0.039200
     46 H16A        1.7750   -2.7770    1.7420 hc        1 DPV      0.039200
     47 H17         2.4040   -4.1130   -0.1570 hc        1 DPV      0.038700
     48 H17A        3.2000   -2.8700   -0.8030 hc        1 DPV      0.038700
     49 H18         3.9600   -4.1190    1.6210 hc        1 DPV      0.039200
     50 H18A        4.7730   -2.9240    0.9330 hc        1 DPV      0.039200
     51 H19         5.1660   -4.3470   -0.9580 hc        1 DPV      0.039200
     52 H19A        4.3950   -5.5690   -0.1790 hc        1 DPV      0.039200
     53 H20         6.0620   -5.4900    1.5110 hc        1 DPV      0.039200
     54 H20A        6.8170   -4.2940    0.7480 hc        1 DPV      0.039200
     55 H21         7.1850   -5.7450   -1.1000 hc        1 DPV      0.039200
     56 H21A        6.4720   -6.9460   -0.2940 hc        1 DPV      0.039200
     57 H22         8.1710   -6.8010    1.3740 hc        1 DPV      0.038200
     58 H22A        8.8880   -5.6320    0.5420 hc        1 DPV      0.038200
     59 H23         9.9300   -7.7010    0.1130 hc        1 DPV      0.032033
     60 H23A        9.2720   -7.1300   -1.2160 hc        1 DPV      0.032033
     61 H23B        8.5370   -8.2990   -0.4130 hc        1 DPV      0.032033
@<TRIPOS>BOND
     1    1    7 1   
     2    1    8 1   
     3    1    9 1   
     4    1   10 1   
     5    2   21 2   
     6    2   22 1   
     7    2   23 1   
     8    3    4 1   
     9    3   22 1   
    10    3   24 1   
    11    3   25 1   
    12    4    5 1   
    13    4   26 1   
    14    4   27 1   
    15    5   11 1   
    16    5   28 1   
    17    5   29 1   
    18    6    7 1   
    19    6   23 1   
    20    6   30 1   
    21    6   31 1   
    22    7   32 1   
    23    7   33 1   
    24    8   34 1   
    25    8   35 1   
    26    8   36 1   
    27    9   37 1   
    28    9   38 1   
    29    9   39 1   
    30   10   40 1   
    31   10   41 1   
    32   10   42 1   
    33   11   12 1   
    34   11   43 1   
    35   11   44 1   
    36   12   13 1   
    37   12   45 1   
    38   12   46 1   
    39   13   14 1   
    40   13   47 1   
    41   13   48 1   
    42   14   15 1   
    43   14   49 1   
    44   14   50 1   
    45   15   17 1   
    46   15   51 1   
    47   15   52 1   
    48   17   18 1   
    49   17   53 1   
    50   17   54 1   
    51   18   19 1   
    52   18   55 1   
    53   18   56 1   
    54   19   20 1   
    55   19   57 1   
    56   19   58 1   
    57   20   59 1   
    58   20   60 1   
    59   20   61 1   
@<TRIPOS>SUBSTRUCTURE
     1 DPV         1 TEMP              0 ****  ****    0 ROOT
