@<TRIPOS>MOLECULE
DPV
   61    60     1     0     0
SMALL
bcc


@<TRIPOS>ATOM
      1 N          -6.2690    1.5020    0.4560 n4        1 DPV     -0.580800
      2 P          -3.9550   -1.2920   -1.2680 p5        1 DPV      1.435800
      3 C1         -1.4790   -0.9870   -0.8060 c3        1 DPV      0.163400
      4 C2         -0.2870   -0.0660   -0.9920 c3        1 DPV     -0.081400
      5 C3          0.9820   -0.7340   -0.5100 c3        1 DPV     -0.080400
      6 C4         -5.6540   -1.0200    0.6930 c3        1 DPV      0.201400
      7 C5         -6.0540    0.3130    1.3570 c3        1 DPV      0.090800
      8 C6         -7.2330    1.1850   -0.6370 c3        1 DPV      0.078433
      9 C7         -6.8360    2.6040    1.2900 c3        1 DPV      0.078433
     10 C8         -4.9780    1.9680   -0.1300 c3        1 DPV      0.078433
     11 C15         2.1800    0.1730   -0.6890 c3        1 DPV     -0.077400
     12 C16         3.4510   -0.4930   -0.2070 c3        1 DPV     -0.079400
     13 C17         4.6500    0.4130   -0.3860 c3        1 DPV     -0.078400
     14 C18         5.9200   -0.2530    0.0970 c3        1 DPV     -0.079400
     15 C19         7.1190    0.6530   -0.0830 c3        1 DPV     -0.078400
     16 O1P        -5.0440   -0.5090   -1.9020 o         1 DPV     -0.820000
     17 C20         8.3890   -0.0130    0.4010 c3        1 DPV     -0.079400
     18 C21         9.5880    0.8930    0.2220 c3        1 DPV     -0.079400
     19 C22        10.8600    0.2270    0.7040 c3        1 DPV     -0.080400
     20 C23        12.0560    1.1260    0.5280 c3        1 DPV     -0.092100
     21 O2P        -3.6140   -2.7030   -1.4560 o         1 DPV     -0.820000
     22 O3P        -2.6380   -0.3370   -1.2690 os        1 DPV     -0.575200
     23 O4P        -4.3190   -1.0190    0.3520 os        1 DPV     -0.572200
     24 H1         -1.3480   -1.9450   -1.3830 h1        1 DPV      0.039200
     25 H1A        -1.6320   -1.2380    0.2790 h1        1 DPV      0.039200
     26 H2         -0.1960    0.2040   -2.0760 hc        1 DPV      0.043200
     27 H2A        -0.4620    0.8860   -0.4280 hc        1 DPV      0.043200
     28 H3          0.8760   -1.0080    0.5730 hc        1 DPV      0.041200
     29 H3A         1.1430   -1.6880   -1.0770 hc        1 DPV      0.041200
     30 H4         -5.8260   -1.7980    1.4960 h1        1 DPV      0.053200
     31 H4A        -6.3110   -1.2410   -0.1930 h1        1 DPV      0.053200
     32 H5         -5.2390    0.5950    2.0820 hx        1 DPV      0.078700
     33 H5A        -7.0190    0.1490    1.9120 hx        1 DPV      0.078700
     34 H6         -8.1230    0.6640   -0.2010 hx        1 DPV      0.099922
     35 H6A        -7.5500    2.1400   -1.1300 hx        1 DPV      0.099922
     36 H6B        -6.7340    0.5210   -1.4110 hx        1 DPV      0.099922
     37 H7         -6.1450    2.8160    2.1470 hx        1 DPV      0.099922
     38 H7A        -6.9440    3.5270    0.6620 hx        1 DPV      0.099922
     39 H7B        -7.8410    2.3000    1.6820 hx        1 DPV      0.099922
     40 H8         -4.5490    1.1410   -0.7810 hx        1 DPV      0.099922
     41 H8A        -5.1690    2.8750   -0.7590 hx        1 DPV      0.099922
     42 H8B        -4.2600    2.2050    0.6960 hx        1 DPV      0.099922
     43 H15         2.2860    0.4450   -1.7730 hc        1 DPV      0.037200
     44 H15A        2.0180    1.1280   -0.1230 hc        1 DPV      0.037200
     45 H16         3.3450   -0.7670    0.8760 hc        1 DPV      0.040200
     46 H16A        3.6130   -1.4480   -0.7740 hc        1 DPV      0.040200
     47 H17         4.7560    0.6850   -1.4690 hc        1 DPV      0.038200
     48 H17A        4.4870    1.3680    0.1800 hc        1 DPV      0.038200
     49 H18         5.8140   -0.5260    1.1800 hc        1 DPV      0.039700
     50 H18A        6.0820   -1.2080   -0.4700 hc        1 DPV      0.039700
     51 H19         7.2260    0.9260   -1.1660 hc        1 DPV      0.038700
     52 H19A        6.9570    1.6080    0.4840 hc        1 DPV      0.038700
     53 H20         8.2830   -0.2860    1.4840 hc        1 DPV      0.039200
     54 H20A        8.5520   -0.9680   -0.1660 hc        1 DPV      0.039200
     55 H21         9.6950    1.1660   -0.8620 hc        1 DPV      0.039200
     56 H21A        9.4260    1.8480    0.7880 hc        1 DPV      0.039200
     57 H22        10.7500   -0.0460    1.7870 hc        1 DPV      0.038200
     58 H22A       11.0190   -0.7280    0.1380 hc        1 DPV      0.038200
     59 H23        11.9260    2.0730    1.1050 hc        1 DPV      0.032033
     60 H23A       12.9810    0.6170    0.8900 hc        1 DPV      0.032033
     61 H23B       12.1960    1.3890   -0.5480 hc        1 DPV      0.032033
@<TRIPOS>BOND
     1    1    7 1   
     2    1    8 1   
     3    1    9 1   
     4    1   10 1   
     5    2   16 1   
     6    2   21 1   
     7    2   22 1   
     8    2   23 1   
     9    3    4 1   
    10    3   22 1   
    11    3   24 1   
    12    3   25 1   
    13    4    5 1   
    14    4   26 1   
    15    4   27 1   
    16    5   11 1   
    17    5   28 1   
    18    5   29 1   
    19    6    7 1   
    20    6   23 1   
    21    6   30 1   
    22    6   31 1   
    23    7   32 1   
    24    7   33 1   
    25    8   34 1   
    26    8   35 1   
    27    8   36 1   
    28    9   37 1   
    29    9   38 1   
    30    9   39 1   
    31   10   40 1   
    32   10   41 1   
    33   10   42 1   
    34   11   12 1   
    35   11   43 1   
    36   11   44 1   
    37   12   13 1   
    38   12   45 1   
    39   12   46 1   
    40   13   14 1   
    41   13   47 1   
    42   13   48 1   
    43   14   15 1   
    44   14   49 1   
    45   14   50 1   
    46   15   17 1   
    47   15   51 1   
    48   15   52 1   
    49   17   18 1   
    50   17   53 1   
    51   17   54 1   
    52   18   19 1   
    53   18   55 1   
    54   18   56 1   
    55   19   20 1   
    56   19   57 1   
    57   19   58 1   
    58   20   59 1   
    59   20   60 1   
    60   20   61 1   
@<TRIPOS>SUBSTRUCTURE
     1 DPV         1 TEMP              0 ****  ****    0 ROOT
