@<TRIPOS>MOLECULE
DPV
   61    60     1     0     0
SMALL
bcc


@<TRIPOS>ATOM
      1 N           0.5010   -0.7440   -0.5350 n4        1 DPV     -0.580800
      2 P           1.1330   -3.9820    1.7550 p5        1 DPV      1.435800
      3 C1          1.2460   -6.1490    0.4430 c3        1 DPV      0.163400
      4 C2          0.4750   -7.0940   -0.4610 c3        1 DPV     -0.081400
      5 C3          1.2740   -8.3520   -0.7210 c3        1 DPV     -0.080400
      6 C4          2.3910   -1.8830    0.8520 c3        1 DPV      0.201400
      7 C5          1.9690   -1.0380   -0.3670 c3        1 DPV      0.090800
      8 C6         -0.0760   -0.1460    0.7040 c3        1 DPV      0.078433
      9 C7          0.3620    0.2400   -1.6510 c3        1 DPV      0.078433
     10 C8         -0.2540   -1.9800   -0.8980 c3        1 DPV      0.078433
     11 C15         0.5170   -9.3050   -1.6210 c3        1 DPV     -0.077400
     12 C16         1.3140  -10.5650   -1.8830 c3        1 DPV     -0.079400
     13 C17         0.5570  -11.5180   -2.7830 c3        1 DPV     -0.078400
     14 C18         1.3540  -12.7780   -3.0430 c3        1 DPV     -0.079400
     15 C19         0.5980  -13.7320   -3.9430 c3        1 DPV     -0.078400
     16 O1P         0.1420   -2.9010    1.9790 o         1 DPV     -0.820000
     17 C20         1.3950  -14.9920   -4.2040 c3        1 DPV     -0.079400
     18 C21         0.6390  -15.9450   -5.1040 c3        1 DPV     -0.079400
     19 C22         1.4350  -17.2050   -5.3660 c3        1 DPV     -0.080400
     20 C23         0.6860  -18.1570   -6.2620 c3        1 DPV     -0.092100
     21 O2P         1.9560   -4.6860    2.7400 o         1 DPV     -0.820000
     22 O3P         0.4720   -4.9970    0.6690 os        1 DPV     -0.575200
     23 O4P         2.1330   -3.2190    0.6380 os        1 DPV     -0.572200
     24 H1          1.4760   -6.6310    1.4340 h1        1 DPV      0.039200
     25 H1A         2.2130   -5.8300   -0.0350 h1        1 DPV      0.039200
     26 H2         -0.5030   -7.3490    0.0220 hc        1 DPV      0.043200
     27 H2A         0.2420   -6.5770   -1.4270 hc        1 DPV      0.043200
     28 H3          2.2550   -8.0850   -1.1960 hc        1 DPV      0.041200
     29 H3A         1.5060   -8.8590    0.2530 hc        1 DPV      0.041200
     30 H4          3.5100   -1.7330    0.9250 h1        1 DPV      0.053200
     31 H4A         1.8980   -1.5070    1.7910 h1        1 DPV      0.053200
     32 H5          2.3020   -1.5830   -1.2960 hx        1 DPV      0.078700
     33 H5A         2.4930   -0.0440   -0.2990 hx        1 DPV      0.078700
     34 H6          0.6030    0.6650    1.0700 hx        1 DPV      0.099922
     35 H6A        -1.0870    0.2770    0.4670 hx        1 DPV      0.099922
     36 H6B        -0.1920   -0.9470    1.5000 hx        1 DPV      0.099922
     37 H7          0.8400   -0.1750   -2.5760 hx        1 DPV      0.099922
     38 H7A         0.8620    1.2030   -1.3680 hx        1 DPV      0.099922
     39 H7B        -0.7260    0.4290   -1.8470 hx        1 DPV      0.099922
     40 H8          0.1850   -2.4210   -1.8280 hx        1 DPV      0.099922
     41 H8A        -1.3310   -1.7170   -1.0550 hx        1 DPV      0.099922
     42 H8B        -0.1680   -2.7260   -0.0450 hx        1 DPV      0.099922
     43 H15         0.2840   -8.7990   -2.5950 hc        1 DPV      0.037200
     44 H15A       -0.4640   -9.5720   -1.1450 hc        1 DPV      0.037200
     45 H16         1.5460  -11.0720   -0.9080 hc        1 DPV      0.040200
     46 H16A        2.2950  -10.2980   -2.3570 hc        1 DPV      0.040200
     47 H17         0.3250  -11.0120   -3.7560 hc        1 DPV      0.038200
     48 H17A       -0.4230  -11.7860   -2.3070 hc        1 DPV      0.038200
     49 H18         2.3350  -12.5110   -3.5180 hc        1 DPV      0.039700
     50 H18A        1.5860  -13.2850   -2.0690 hc        1 DPV      0.039700
     51 H19        -0.3830  -13.9990   -3.4680 hc        1 DPV      0.038700
     52 H19A        0.3660  -13.2250   -4.9170 hc        1 DPV      0.038700
     53 H20         1.6270  -15.4980   -3.2300 hc        1 DPV      0.039200
     54 H20A        2.3760  -14.7240   -4.6790 hc        1 DPV      0.039200
     55 H21        -0.3420  -16.2120   -4.6290 hc        1 DPV      0.039200
     56 H21A        0.4070  -15.4390   -6.0780 hc        1 DPV      0.039200
     57 H22         1.6680  -17.7090   -4.3910 hc        1 DPV      0.038200
     58 H22A        2.4160  -16.9360   -5.8390 hc        1 DPV      0.038200
     59 H23         1.2910  -19.0790   -6.4410 hc        1 DPV      0.032033
     60 H23A       -0.2830  -18.4570   -5.7950 hc        1 DPV      0.032033
     61 H23B        0.4670  -17.6810   -7.2480 hc        1 DPV      0.032033
@<TRIPOS>BOND
     1    1    7 1   
     2    1    8 1   
     3    1    9 1   
     4    1   10 1   
     5    2   16 1   
     6    2   21 1   
     7    2   22 1   
     8    2   23 1   
     9    3    4 1   
    10    3   22 1   
    11    3   24 1   
    12    3   25 1   
    13    4    5 1   
    14    4   26 1   
    15    4   27 1   
    16    5   11 1   
    17    5   28 1   
    18    5   29 1   
    19    6    7 1   
    20    6   23 1   
    21    6   30 1   
    22    6   31 1   
    23    7   32 1   
    24    7   33 1   
    25    8   34 1   
    26    8   35 1   
    27    8   36 1   
    28    9   37 1   
    29    9   38 1   
    30    9   39 1   
    31   10   40 1   
    32   10   41 1   
    33   10   42 1   
    34   11   12 1   
    35   11   43 1   
    36   11   44 1   
    37   12   13 1   
    38   12   45 1   
    39   12   46 1   
    40   13   14 1   
    41   13   47 1   
    42   13   48 1   
    43   14   15 1   
    44   14   49 1   
    45   14   50 1   
    46   15   17 1   
    47   15   51 1   
    48   15   52 1   
    49   17   18 1   
    50   17   53 1   
    51   17   54 1   
    52   18   19 1   
    53   18   55 1   
    54   18   56 1   
    55   19   20 1   
    56   19   57 1   
    57   19   58 1   
    58   20   59 1   
    59   20   60 1   
    60   20   61 1   
@<TRIPOS>SUBSTRUCTURE
     1 DPV         1 TEMP              0 ****  ****    0 ROOT
