@<TRIPOS>MOLECULE
DPV
   61    60     1     0     0
SMALL
bcc


@<TRIPOS>ATOM
      1 N           0.4380   -0.7520   -0.5210 n4        1 DPV     -0.580800
      2 P           1.2620   -3.9710    1.7340 p5        1 DPV      1.435800
      3 C1          1.3380   -6.1390    0.4210 c3        1 DPV      0.163400
      4 C2          0.5340   -7.1010   -0.4340 c3        1 DPV     -0.081400
      5 C3          1.3400   -8.3440   -0.7420 c3        1 DPV     -0.080400
      6 C4          2.4260   -1.8520    0.7550 c3        1 DPV      0.201400
      7 C5          1.9180   -1.0190   -0.4390 c3        1 DPV      0.090800
      8 C6         -0.0770   -0.1610    0.7480 c3        1 DPV      0.078433
      9 C7          0.2150    0.2260   -1.6290 c3        1 DPV      0.078433
     10 C8         -0.3150   -2.0020   -0.8370 c3        1 DPV      0.078433
     11 C15         0.5490   -9.3130   -1.5930 c3        1 DPV     -0.077400
     12 C16         1.3550  -10.5570   -1.9030 c3        1 DPV     -0.079400
     13 C17         0.5650  -11.5270   -2.7540 c3        1 DPV     -0.078400
     14 C18         1.3710  -12.7700   -3.0630 c3        1 DPV     -0.079400
     15 C19         0.5810  -13.7400   -3.9150 c3        1 DPV     -0.078400
     16 O1P         0.2650   -2.9070    2.0140 o         1 DPV     -0.820000
     17 C20         1.3870  -14.9830   -4.2250 c3        1 DPV     -0.079400
     18 C21         0.5970  -15.9540   -5.0760 c3        1 DPV     -0.079400
     19 C22         1.4020  -17.1980   -5.3860 c3        1 DPV     -0.080400
     20 C23         0.6200  -18.1660   -6.2340 c3        1 DPV     -0.092100
     21 O2P         2.1530   -4.6580    2.6710 o         1 DPV     -0.820000
     22 O3P         0.5570   -5.0010    0.6910 os        1 DPV     -0.575200
     23 O4P         2.1800   -3.1930    0.5590 os        1 DPV     -0.572200
     24 H1          2.2690   -5.8030   -0.1140 h1        1 DPV      0.039200
     25 H1A         1.6360   -6.6140    1.3980 h1        1 DPV      0.039200
     26 H2          0.2320   -6.5900   -1.3850 hc        1 DPV      0.043200
     27 H2A        -0.4090   -7.3750    0.1070 hc        1 DPV      0.043200
     28 H3          2.2850   -8.0580   -1.2750 hc        1 DPV      0.041200
     29 H3A         1.6410   -8.8430    0.2170 hc        1 DPV      0.041200
     30 H4          3.5450   -1.6820    0.7630 h1        1 DPV      0.053200
     31 H4A         1.9820   -1.4830    1.7210 h1        1 DPV      0.053200
     32 H5          2.2060   -1.5600   -1.3840 hx        1 DPV      0.078700
     33 H5A         2.4260   -0.0150   -0.4040 hx        1 DPV      0.078700
     34 H6         -0.1320   -0.9620    1.5510 hx        1 DPV      0.099922
     35 H6A        -1.1070    0.2430    0.5700 hx        1 DPV      0.099922
     36 H6B         0.6080    0.6630    1.0730 hx        1 DPV      0.099922
     37 H7          0.7130    1.1980   -1.3780 hx        1 DPV      0.099922
     38 H7A         0.6460   -0.1830   -2.5800 hx        1 DPV      0.099922
     39 H7B        -0.8850    0.3950   -1.7610 hx        1 DPV      0.099922
     40 H8         -1.4030   -1.7590   -0.9310 hx        1 DPV      0.099922
     41 H8A         0.0770   -2.4380   -1.7910 hx        1 DPV      0.099922
     42 H8B        -0.1660   -2.7450    0.0110 hx        1 DPV      0.099922
     43 H15        -0.3940   -9.6000   -1.0590 hc        1 DPV      0.037200
     44 H15A        0.2470   -8.8130   -2.5510 hc        1 DPV      0.037200
     45 H16         2.2990  -10.2700   -2.4360 hc        1 DPV      0.040200
     46 H16A        1.6570  -11.0570   -0.9440 hc        1 DPV      0.040200
     47 H17         0.2630  -11.0270   -3.7120 hc        1 DPV      0.038200
     48 H17A       -0.3790  -11.8140   -2.2200 hc        1 DPV      0.038200
     49 H18         2.3150  -12.4830   -3.5980 hc        1 DPV      0.039700
     50 H18A        1.6730  -13.2700   -2.1060 hc        1 DPV      0.039700
     51 H19        -0.3630  -14.0280   -3.3810 hc        1 DPV      0.038700
     52 H19A        0.2790  -13.2400   -4.8730 hc        1 DPV      0.038700
     53 H20         1.6890  -15.4840   -3.2670 hc        1 DPV      0.039200
     54 H20A        2.3310  -14.6960   -4.7590 hc        1 DPV      0.039200
     55 H21         0.2950  -15.4540   -6.0340 hc        1 DPV      0.039200
     56 H21A       -0.3470  -16.2410   -4.5420 hc        1 DPV      0.039200
     57 H22         1.7050  -17.6950   -4.4270 hc        1 DPV      0.038200
     58 H22A        2.3470  -16.9080   -5.9190 hc        1 DPV      0.038200
     59 H23         0.3310  -17.6960   -7.2050 hc        1 DPV      0.032033
     60 H23A       -0.3130  -18.4860   -5.7100 hc        1 DPV      0.032033
     61 H23B        1.2310  -19.0750   -6.4510 hc        1 DPV      0.032033
@<TRIPOS>BOND
     1    1    7 1   
     2    1    8 1   
     3    1    9 1   
     4    1   10 1   
     5    2   16 1   
     6    2   21 1   
     7    2   22 1   
     8    2   23 1   
     9    3    4 1   
    10    3   22 1   
    11    3   24 1   
    12    3   25 1   
    13    4    5 1   
    14    4   26 1   
    15    4   27 1   
    16    5   11 1   
    17    5   28 1   
    18    5   29 1   
    19    6    7 1   
    20    6   23 1   
    21    6   30 1   
    22    6   31 1   
    23    7   32 1   
    24    7   33 1   
    25    8   34 1   
    26    8   35 1   
    27    8   36 1   
    28    9   37 1   
    29    9   38 1   
    30    9   39 1   
    31   10   40 1   
    32   10   41 1   
    33   10   42 1   
    34   11   12 1   
    35   11   43 1   
    36   11   44 1   
    37   12   13 1   
    38   12   45 1   
    39   12   46 1   
    40   13   14 1   
    41   13   47 1   
    42   13   48 1   
    43   14   15 1   
    44   14   49 1   
    45   14   50 1   
    46   15   17 1   
    47   15   51 1   
    48   15   52 1   
    49   17   18 1   
    50   17   53 1   
    51   17   54 1   
    52   18   19 1   
    53   18   55 1   
    54   18   56 1   
    55   19   20 1   
    56   19   57 1   
    57   19   58 1   
    58   20   59 1   
    59   20   60 1   
    60   20   61 1   
@<TRIPOS>SUBSTRUCTURE
     1 DPV         1 TEMP              0 ****  ****    0 ROOT
