@<TRIPOS>MOLECULE
DPW
   55    54     1     0     0
SMALL
bcc


@<TRIPOS>ATOM
      1 C1          0.6410    0.1890    0.0930 c3        1 DPW      0.078433
      2 C2          2.1610    0.4820    1.9810 c3        1 DPW      0.078433
      3 C3          2.9810   -0.4190   -0.1140 c3        1 DPW      0.078433
      4 C4          2.3980    1.9300   -0.0090 c3        1 DPW      0.090800
      5 C5          1.4420    3.0920    0.3270 c3        1 DPW      0.201400
      6 C10         4.0170    5.8490    8.6810 c3        1 DPW     -0.079400
      7 C11         4.6380    5.4530   10.0030 c3        1 DPW     -0.078400
      8 C6          1.6170    4.2580    4.6040 c3        1 DPW      0.163400
      9 C7          2.2370    3.8450    5.9260 c3        1 DPW     -0.081400
     10 C9          3.4370    4.6490    7.9630 c3        1 DPW     -0.077400
     11 O3         -0.3510    4.8020    2.6670 o         1 DPW     -0.820000
     12 P           0.2520    3.4690    2.6170 p5        1 DPW      1.435800
     13 O4         -0.3520    2.1950    2.1540 o         1 DPW     -0.820000
     14 O1          1.6130    3.5090    1.6290 os        1 DPW     -0.572200
     15 N           2.0300    0.5580    0.4950 n4        1 DPW     -0.580800
     16 O2          1.0830    3.1210    3.9720 os        1 DPW     -0.575200
     17 C8          2.8160    5.0450    6.6410 c3        1 DPW     -0.080400
     18 C12         5.2170    6.6540   10.7200 c3        1 DPW     -0.079400
     19 C13         5.8390    6.2580   12.0420 c3        1 DPW     -0.079400
     20 C14         6.4190    7.4580   12.7600 c3        1 DPW     -0.080400
     21 C15         7.0390    7.0680   14.0770 c3        1 DPW     -0.092100
     22 H1          0.5000    0.4270   -0.9920 hx        1 DPW      0.099922
     23 H1A         0.4920   -0.9070    0.2690 hx        1 DPW      0.099922
     24 H1B        -0.1080    0.7660    0.7200 hx        1 DPW      0.099922
     25 H2          1.9210   -0.5590    2.3150 hx        1 DPW      0.099922
     26 H2A         3.2050    0.7600    2.2750 hx        1 DPW      0.099922
     27 H2B         1.4270    1.2090    2.4530 hx        1 DPW      0.099922
     28 H3          4.0330   -0.1210    0.1370 hx        1 DPW      0.099922
     29 H3A         2.7760   -1.4430    0.2940 hx        1 DPW      0.099922
     30 H3B         2.8480   -0.4290   -1.2270 hx        1 DPW      0.099922
     31 H4          2.4730    1.8530   -1.1290 hx        1 DPW      0.078700
     32 H4A         3.4080    2.1770    0.4260 hx        1 DPW      0.078700
     33 H5          1.7580    3.9270   -0.3690 h1        1 DPW      0.053200
     34 H5A         0.3740    2.8080    0.1150 h1        1 DPW      0.053200
     35 H10         3.2090    6.6080    8.8570 hc        1 DPW      0.040200
     36 H10A        4.7920    6.3370    8.0320 hc        1 DPW      0.040200
     37 H11         3.8630    4.9660   10.6510 hc        1 DPW      0.038200
     38 H11A        5.4460    4.6940    9.8270 hc        1 DPW      0.038200
     39 H6          2.3880    4.7070    3.9180 h1        1 DPW      0.039200
     40 H6A         0.7910    5.0080    4.7570 h1        1 DPW      0.039200
     41 H7          1.4550    3.3550    6.5620 hc        1 DPW      0.043200
     42 H7A         3.0370    3.0820    5.7400 hc        1 DPW      0.043200
     43 H9          4.2450    3.8900    7.7870 hc        1 DPW      0.037200
     44 H9A         2.6620    4.1620    8.6110 hc        1 DPW      0.037200
     45 H8          3.5910    5.5330    5.9930 hc        1 DPW      0.041200
     46 H8A         2.0090    5.8040    6.8170 hc        1 DPW      0.041200
     47 H12         4.4090    7.4120   10.8960 hc        1 DPW      0.039700
     48 H12A        5.9920    7.1410   10.0710 hc        1 DPW      0.039700
     49 H13         6.6460    5.4990   11.8660 hc        1 DPW      0.038700
     50 H13A        5.0640    5.7700   12.6910 hc        1 DPW      0.038700
     51 H14         7.1920    7.9450   12.1090 hc        1 DPW      0.038200
     52 H14A        5.6100    8.2160   12.9340 hc        1 DPW      0.038200
     53 H15         7.8640    6.3320   13.9220 hc        1 DPW      0.032033
     54 H15A        7.4600    7.9670   14.5890 hc        1 DPW      0.032033
     55 H15B        6.2770    6.6040   14.7490 hc        1 DPW      0.032033
@<TRIPOS>BOND
     1    1   15 1   
     2    1   22 1   
     3    1   23 1   
     4    1   24 1   
     5    2   15 1   
     6    2   25 1   
     7    2   26 1   
     8    2   27 1   
     9    3   15 1   
    10    3   28 1   
    11    3   29 1   
    12    3   30 1   
    13    4    5 1   
    14    4   15 1   
    15    4   31 1   
    16    4   32 1   
    17    5   14 1   
    18    5   33 1   
    19    5   34 1   
    20    6    7 1   
    21    6   10 1   
    22    6   35 1   
    23    6   36 1   
    24    7   18 1   
    25    7   37 1   
    26    7   38 1   
    27    8    9 1   
    28    8   16 1   
    29    8   39 1   
    30    8   40 1   
    31    9   17 1   
    32    9   41 1   
    33    9   42 1   
    34   10   17 1   
    35   10   43 1   
    36   10   44 1   
    37   11   12 1   
    38   12   13 1   
    39   12   14 1   
    40   12   16 1   
    41   17   45 1   
    42   17   46 1   
    43   18   19 1   
    44   18   47 1   
    45   18   48 1   
    46   19   20 1   
    47   19   49 1   
    48   19   50 1   
    49   20   21 1   
    50   20   51 1   
    51   20   52 1   
    52   21   53 1   
    53   21   54 1   
    54   21   55 1   
@<TRIPOS>SUBSTRUCTURE
     1 DPW         1 TEMP              0 ****  ****    0 ROOT
