@<TRIPOS>MOLECULE
DPW
   55    54     1     0     0
SMALL
bcc


@<TRIPOS>ATOM
      1 C1          0.6270    0.2060    0.0890 c3        1 DPW      0.078433
      2 C2          2.1160    0.4700    2.0060 c3        1 DPW      0.078433
      3 C3          2.9470   -0.4890   -0.0590 c3        1 DPW      0.078433
      4 C4          2.4480    1.8800    0.0030 c3        1 DPW      0.090800
      5 C5          1.5280    3.0810    0.3020 c3        1 DPW      0.201400
      6 C10         4.0300    5.8590    8.6690 c3        1 DPW     -0.079400
      7 C11         4.6070    5.4600   10.0100 c3        1 DPW     -0.078400
      8 C6          1.6560    4.3000    4.5650 c3        1 DPW      0.163400
      9 C7          2.2310    3.8840    5.9070 c3        1 DPW     -0.081400
     10 C9          3.4180    4.6710    7.9570 c3        1 DPW     -0.077400
     11 O3         -0.2510    4.8870    2.5800 o         1 DPW     -0.820000
     12 P           0.3040    3.5330    2.5610 p5        1 DPW      1.435800
     13 O4         -0.3370    2.2750    2.1020 o         1 DPW     -0.820000
     14 O1          1.6850    3.5100    1.6010 os        1 DPW     -0.572200
     15 N           2.0190    0.5300    0.5170 n4        1 DPW     -0.580800
     16 O2          1.0930    3.1740    3.9380 os        1 DPW     -0.575200
     17 C8          2.8410    5.0710    6.6160 c3        1 DPW     -0.080400
     18 C12         5.2190    6.6470   10.7210 c3        1 DPW     -0.079400
     19 C13         5.7960    6.2480   12.0620 c3        1 DPW     -0.079400
     20 C14         6.4090    7.4350   12.7750 c3        1 DPW     -0.080400
     21 C15         6.9850    7.0430   14.1110 c3        1 DPW     -0.092100
     22 H1          0.4330   -0.8820    0.2770 hx        1 DPW      0.099922
     23 H1A        -0.1140    0.8180    0.6930 hx        1 DPW      0.099922
     24 H1B         0.5170    0.4330   -1.0010 hx        1 DPW      0.099922
     25 H2          1.8300   -0.5570    2.3490 hx        1 DPW      0.099922
     26 H2A         1.3980    1.2300    2.4520 hx        1 DPW      0.099922
     27 H2B         3.1630    0.7140    2.3180 hx        1 DPW      0.099922
     28 H3          4.0030   -0.2260    0.2110 hx        1 DPW      0.099922
     29 H3A         2.8370   -0.5100   -1.1740 hx        1 DPW      0.099922
     30 H3B         2.6960   -1.4990    0.3590 hx        1 DPW      0.099922
     31 H4          2.5430    1.7850   -1.1150 hx        1 DPW      0.078700
     32 H4A         3.4560    2.0970    0.4560 hx        1 DPW      0.078700
     33 H5          1.8880    3.8930   -0.3980 h1        1 DPW      0.053200
     34 H5A         0.4550    2.8330    0.0710 h1        1 DPW      0.053200
     35 H10         4.8370    6.3060    8.0300 hc        1 DPW      0.040200
     36 H10A        3.2500    6.6520    8.8160 hc        1 DPW      0.040200
     37 H11         3.8000    5.0140   10.6490 hc        1 DPW      0.038200
     38 H11A        5.3880    4.6670    9.8630 hc        1 DPW      0.038200
     39 H6          2.4570    4.7100    3.8900 h1        1 DPW      0.039200
     40 H6A         0.8550    5.0820    4.6900 h1        1 DPW      0.039200
     41 H7          3.0040    3.0880    5.7490 hc        1 DPW      0.043200
     42 H7A         1.4170    3.4340    6.5320 hc        1 DPW      0.043200
     43 H9          2.6110    4.2260    8.5960 hc        1 DPW      0.037200
     44 H9A         4.1980    3.8790    7.8100 hc        1 DPW      0.037200
     45 H8          2.0600    5.8640    6.7640 hc        1 DPW      0.041200
     46 H8A         3.6480    5.5190    5.9780 hc        1 DPW      0.041200
     47 H12         4.4390    7.4400   10.8690 hc        1 DPW      0.039700
     48 H12A        6.0260    7.0940   10.0820 hc        1 DPW      0.039700
     49 H13         6.5770    5.4550   11.9150 hc        1 DPW      0.038700
     50 H13A        4.9890    5.8020   12.7020 hc        1 DPW      0.038700
     51 H14         7.2140    7.8810   12.1330 hc        1 DPW      0.038200
     52 H14A        5.6270    8.2270   12.9200 hc        1 DPW      0.038200
     53 H15         7.4310    7.9320   14.6180 hc        1 DPW      0.032033
     54 H15A        6.1920    6.6190   14.7730 hc        1 DPW      0.032033
     55 H15B        7.7830    6.2720   13.9850 hc        1 DPW      0.032033
@<TRIPOS>BOND
     1    1   15 1   
     2    1   22 1   
     3    1   23 1   
     4    1   24 1   
     5    2   15 1   
     6    2   25 1   
     7    2   26 1   
     8    2   27 1   
     9    3   15 1   
    10    3   28 1   
    11    3   29 1   
    12    3   30 1   
    13    4    5 1   
    14    4   15 1   
    15    4   31 1   
    16    4   32 1   
    17    5   14 1   
    18    5   33 1   
    19    5   34 1   
    20    6    7 1   
    21    6   10 1   
    22    6   35 1   
    23    6   36 1   
    24    7   18 1   
    25    7   37 1   
    26    7   38 1   
    27    8    9 1   
    28    8   16 1   
    29    8   39 1   
    30    8   40 1   
    31    9   17 1   
    32    9   41 1   
    33    9   42 1   
    34   10   17 1   
    35   10   43 1   
    36   10   44 1   
    37   11   12 1   
    38   12   13 1   
    39   12   14 1   
    40   12   16 1   
    41   17   45 1   
    42   17   46 1   
    43   18   19 1   
    44   18   47 1   
    45   18   48 1   
    46   19   20 1   
    47   19   49 1   
    48   19   50 1   
    49   20   21 1   
    50   20   51 1   
    51   20   52 1   
    52   21   53 1   
    53   21   54 1   
    54   21   55 1   
@<TRIPOS>SUBSTRUCTURE
     1 DPW         1 TEMP              0 ****  ****    0 ROOT
