@<TRIPOS>MOLECULE
DPW
   55    54     1     0     0
SMALL
bcc


@<TRIPOS>ATOM
      1 C1         -6.2580    1.0440   -0.7660 c3        1 DPW      0.078433
      2 C2         -4.0390    1.9090   -0.2340 c3        1 DPW      0.078433
      3 C3         -5.9490    2.5410    1.1170 c3        1 DPW      0.078433
      4 C4         -5.1060    0.2770    1.2860 c3        1 DPW      0.090800
      5 C5         -4.6520   -1.0670    0.6800 c3        1 DPW      0.201400
      6 C10         4.4540   -0.3130   -0.0200 c3        1 DPW     -0.079400
      7 C11         5.6320    0.6200   -0.2020 c3        1 DPW     -0.078400
      8 C6         -0.4440   -0.9680   -0.7190 c3        1 DPW      0.163400
      9 C7          0.7260   -0.0200   -0.9080 c3        1 DPW     -0.081400
     10 C9          3.1780    0.2990   -0.5550 c3        1 DPW     -0.077400
     11 O3         -2.5130   -2.7660   -1.3570 o         1 DPW     -0.820000
     12 P          -2.8980   -1.3590   -1.2280 p5        1 DPW      1.435800
     13 O4         -3.9920   -0.6310   -1.9160 o         1 DPW     -0.820000
     14 O1         -3.3100   -1.0400    0.3710 os        1 DPW     -0.572200
     15 N          -5.3310    1.4260    0.3380 n4        1 DPW     -0.580800
     16 O2         -1.6080   -0.3680   -1.2320 os        1 DPW     -0.575200
     17 C8          2.0010   -0.6340   -0.3720 c3        1 DPW     -0.080400
     18 C12         6.9080    0.0080    0.3340 c3        1 DPW     -0.079400
     19 C13         8.0850    0.9410    0.1510 c3        1 DPW     -0.079400
     20 C14         9.3620    0.3290    0.6870 c3        1 DPW     -0.080400
     21 C15        10.5370    1.2540    0.5080 c3        1 DPW     -0.092100
     22 H1         -5.7210    0.3680   -1.5030 hx        1 DPW      0.099922
     23 H1A        -7.1440    0.5140   -0.3330 hx        1 DPW      0.099922
     24 H1B        -6.5890    1.9710   -1.3010 hx        1 DPW      0.099922
     25 H2         -4.2390    2.7870   -0.8990 hx        1 DPW      0.099922
     26 H2A        -3.3490    2.1950    0.6010 hx        1 DPW      0.099922
     27 H2B        -3.5710    1.0720   -0.8440 hx        1 DPW      0.099922
     28 H3         -6.9550    2.2230    1.4960 hx        1 DPW      0.099922
     29 H3A        -5.2860    2.8030    1.9830 hx        1 DPW      0.099922
     30 H3B        -6.0670    3.4380    0.4550 hx        1 DPW      0.099922
     31 H4         -6.0800    0.1050    1.8230 hx        1 DPW      0.078700
     32 H4A        -4.3170    0.6080    2.0190 hx        1 DPW      0.078700
     33 H5         -4.8230   -1.8210    1.5060 h1        1 DPW      0.053200
     34 H5A        -5.2810   -1.3370   -0.2130 h1        1 DPW      0.053200
     35 H10         4.6570   -1.2820   -0.5480 hc        1 DPW      0.040200
     36 H10A        4.3290   -0.5510    1.0690 hc        1 DPW      0.040200
     37 H11         5.7570    0.8580   -1.2920 hc        1 DPW      0.038200
     38 H11A        5.4290    1.5890    0.3260 hc        1 DPW      0.038200
     39 H6         -0.2720   -1.9410   -1.2580 h1        1 DPW      0.039200
     40 H6A        -0.6170   -1.1850    0.3710 h1        1 DPW      0.039200
     41 H7          0.8370    0.2150   -1.9980 hc        1 DPW      0.043200
     42 H7A         0.5110    0.9460   -0.3830 hc        1 DPW      0.043200
     43 H9          2.9750    1.2690   -0.0280 hc        1 DPW      0.037200
     44 H9A         3.3030    0.5370   -1.6450 hc        1 DPW      0.037200
     45 H8          1.8760   -0.8730    0.7170 hc        1 DPW      0.041200
     46 H8A         2.2030   -1.6030   -0.9010 hc        1 DPW      0.041200
     47 H12         6.7820   -0.2310    1.4230 hc        1 DPW      0.039700
     48 H12A        7.1100   -0.9610   -0.1950 hc        1 DPW      0.039700
     49 H13         8.2110    1.1790   -0.9380 hc        1 DPW      0.038700
     50 H13A        7.8830    1.9100    0.6790 hc        1 DPW      0.038700
     51 H14         9.2330    0.0900    1.7760 hc        1 DPW      0.038200
     52 H14A        9.5620   -0.6410    0.1590 hc        1 DPW      0.038200
     53 H15        10.6970    1.4840   -0.5740 hc        1 DPW      0.032033
     54 H15A       10.3670    2.2170    1.0480 hc        1 DPW      0.032033
     55 H15B       11.4670    0.7840    0.9090 hc        1 DPW      0.032033
@<TRIPOS>BOND
     1    1   15 1   
     2    1   22 1   
     3    1   23 1   
     4    1   24 1   
     5    2   15 1   
     6    2   25 1   
     7    2   26 1   
     8    2   27 1   
     9    3   15 1   
    10    3   28 1   
    11    3   29 1   
    12    3   30 1   
    13    4    5 1   
    14    4   15 1   
    15    4   31 1   
    16    4   32 1   
    17    5   14 1   
    18    5   33 1   
    19    5   34 1   
    20    6    7 1   
    21    6   10 1   
    22    6   35 1   
    23    6   36 1   
    24    7   18 1   
    25    7   37 1   
    26    7   38 1   
    27    8    9 1   
    28    8   16 1   
    29    8   39 1   
    30    8   40 1   
    31    9   17 1   
    32    9   41 1   
    33    9   42 1   
    34   10   17 1   
    35   10   43 1   
    36   10   44 1   
    37   11   12 1   
    38   12   13 1   
    39   12   14 1   
    40   12   16 1   
    41   17   45 1   
    42   17   46 1   
    43   18   19 1   
    44   18   47 1   
    45   18   48 1   
    46   19   20 1   
    47   19   49 1   
    48   19   50 1   
    49   20   21 1   
    50   20   51 1   
    51   20   52 1   
    52   21   53 1   
    53   21   54 1   
    54   21   55 1   
@<TRIPOS>SUBSTRUCTURE
     1 DPW         1 TEMP              0 ****  ****    0 ROOT
