@<TRIPOS>MOLECULE
DPW
   55    54     1     0     0
SMALL
bcc


@<TRIPOS>ATOM
      1 C1          0.6470    0.1890    0.0900 c3        1 DPW      0.078433
      2 C2          2.1610    0.4800    1.9830 c3        1 DPW      0.078433
      3 C3          2.9850   -0.4270   -0.1070 c3        1 DPW      0.078433
      4 C4          2.4110    1.9230   -0.0080 c3        1 DPW      0.090800
      5 C5          1.4580    3.0900    0.3220 c3        1 DPW      0.201400
      6 C10         4.0140    5.8510    8.6800 c3        1 DPW     -0.079400
      7 C11         4.6300    5.4550   10.0050 c3        1 DPW     -0.078400
      8 C6          1.6230    4.2630    4.5970 c3        1 DPW      0.163400
      9 C7          2.2360    3.8500    5.9230 c3        1 DPW     -0.081400
     10 C9          3.4320    4.6520    7.9630 c3        1 DPW     -0.077400
     11 O3         -0.3370    4.8100    2.6530 o         1 DPW     -0.820000
     12 P           0.2610    3.4750    2.6070 p5        1 DPW      1.435800
     13 O4         -0.3470    2.2030    2.1450 o         1 DPW     -0.820000
     14 O1          1.6250    3.5090    1.6240 os        1 DPW     -0.572200
     15 N           2.0350    0.5540    0.4970 n4        1 DPW     -0.580800
     16 O2          1.0870    3.1260    3.9660 os        1 DPW     -0.575200
     17 C8          2.8180    5.0490    6.6380 c3        1 DPW     -0.080400
     18 C12         5.2110    6.6540   10.7220 c3        1 DPW     -0.079400
     19 C13         5.8280    6.2570   12.0460 c3        1 DPW     -0.079400
     20 C14         6.4090    7.4560   12.7650 c3        1 DPW     -0.080400
     21 C15         7.0240    7.0660   14.0840 c3        1 DPW     -0.092100
     22 H1          0.4920   -0.9060    0.2680 hx        1 DPW      0.099922
     23 H1A        -0.1020    0.7700    0.7140 hx        1 DPW      0.099922
     24 H1B         0.5100    0.4260   -0.9950 hx        1 DPW      0.099922
     25 H2          1.9150   -0.5590    2.3190 hx        1 DPW      0.099922
     26 H2A         1.4280    1.2110    2.4520 hx        1 DPW      0.099922
     27 H2B         3.2050    0.7540    2.2800 hx        1 DPW      0.099922
     28 H3          4.0370   -0.1340    0.1470 hx        1 DPW      0.099922
     29 H3A         2.8550   -0.4390   -1.2210 hx        1 DPW      0.099922
     30 H3B         2.7750   -1.4500    0.3030 hx        1 DPW      0.099922
     31 H4          2.4890    1.8440   -1.1280 hx        1 DPW      0.078700
     32 H4A         3.4190    2.1680    0.4300 hx        1 DPW      0.078700
     33 H5          1.7790    3.9220   -0.3750 h1        1 DPW      0.053200
     34 H5A         0.3890    2.8090    0.1070 h1        1 DPW      0.053200
     35 H10         4.7930    6.3350    8.0330 hc        1 DPW      0.040200
     36 H10A        3.2090    6.6130    8.8530 hc        1 DPW      0.040200
     37 H11         3.8510    4.9710   10.6510 hc        1 DPW      0.038200
     38 H11A        5.4360    4.6930    9.8320 hc        1 DPW      0.038200
     39 H6          2.3970    4.7070    3.9140 h1        1 DPW      0.039200
     40 H6A         0.7990    5.0160    4.7460 h1        1 DPW      0.039200
     41 H7          3.0320    3.0830    5.7410 hc        1 DPW      0.043200
     42 H7A         1.4490    3.3650    6.5570 hc        1 DPW      0.043200
     43 H9          2.6520    4.1700    8.6090 hc        1 DPW      0.037200
     44 H9A         4.2370    3.8890    7.7910 hc        1 DPW      0.037200
     45 H8          2.0130    5.8120    6.8090 hc        1 DPW      0.041200
     46 H8A         3.5970    5.5320    5.9910 hc        1 DPW      0.041200
     47 H12         4.4050    7.4150   10.8960 hc        1 DPW      0.039700
     48 H12A        5.9890    7.1390   10.0750 hc        1 DPW      0.039700
     49 H13         6.6340    5.4970   11.8730 hc        1 DPW      0.038700
     50 H13A        5.0500    5.7730   12.6930 hc        1 DPW      0.038700
     51 H14         7.1850    7.9410   12.1160 hc        1 DPW      0.038200
     52 H14A        5.6010    8.2160   12.9370 hc        1 DPW      0.038200
     53 H15         7.4460    7.9640   14.5970 hc        1 DPW      0.032033
     54 H15A        6.2600    6.6030   14.7550 hc        1 DPW      0.032033
     55 H15B        7.8480    6.3280   13.9320 hc        1 DPW      0.032033
@<TRIPOS>BOND
     1    1   15 1   
     2    1   22 1   
     3    1   23 1   
     4    1   24 1   
     5    2   15 1   
     6    2   25 1   
     7    2   26 1   
     8    2   27 1   
     9    3   15 1   
    10    3   28 1   
    11    3   29 1   
    12    3   30 1   
    13    4    5 1   
    14    4   15 1   
    15    4   31 1   
    16    4   32 1   
    17    5   14 1   
    18    5   33 1   
    19    5   34 1   
    20    6    7 1   
    21    6   10 1   
    22    6   35 1   
    23    6   36 1   
    24    7   18 1   
    25    7   37 1   
    26    7   38 1   
    27    8    9 1   
    28    8   16 1   
    29    8   39 1   
    30    8   40 1   
    31    9   17 1   
    32    9   41 1   
    33    9   42 1   
    34   10   17 1   
    35   10   43 1   
    36   10   44 1   
    37   11   12 1   
    38   12   13 1   
    39   12   14 1   
    40   12   16 1   
    41   17   45 1   
    42   17   46 1   
    43   18   19 1   
    44   18   47 1   
    45   18   48 1   
    46   19   20 1   
    47   19   49 1   
    48   19   50 1   
    49   20   21 1   
    50   20   51 1   
    51   20   52 1   
    52   21   53 1   
    53   21   54 1   
    54   21   55 1   
@<TRIPOS>SUBSTRUCTURE
     1 DPW         1 TEMP              0 ****  ****    0 ROOT
