@<TRIPOS>MOLECULE
DPW
   55    53     1     0     0
SMALL
bcc


@<TRIPOS>ATOM
      1 C1         -2.6910   -7.6950   -1.4310 c3        1 DPW      0.091100
      2 C2         -1.0880   -8.3030    0.2100 c3        1 DPW      0.091100
      3 C3         -0.6600   -8.6880   -2.1050 c3        1 DPW      0.091100
      4 C4         -0.6700   -6.4510   -1.2600 c3        1 DPW      0.081800
      5 C5         -1.4400   -5.4600   -0.3720 c3        1 DPW      0.220400
      6 C10         0.3730    4.4420    0.6490 c3        1 DPW     -0.079400
      7 C11         1.5730    5.4070    0.8080 c3        1 DPW     -0.078400
      8 C6         -1.0160   -0.4010    0.6640 c3        1 DPW      0.163400
      9 C7          0.1510    0.5730    0.8960 c3        1 DPW     -0.081400
     10 C9          0.8400    2.9780    0.9610 c3        1 DPW     -0.077400
     11 O3         -2.7200   -2.6250   -0.4670 o         1 DPW     -0.884600
     12 P          -1.4800   -2.9470    0.3070 p3        1 DPW      1.859800
     13 O4         -1.8450   -3.2740    1.7240 os        1 DPW     -1.179000
     14 O1         -0.7530   -4.2000   -0.3550 os        1 DPW     -0.565900
     15 N          -1.2830   -7.7880   -1.1500 n4        1 DPW     -0.591800
     16 O2         -0.4950   -1.6850    0.2860 os        1 DPW     -0.576900
     17 C8         -0.3270    1.9970    0.6940 c3        1 DPW     -0.079400
     18 C12         1.1470    6.8590    0.3760 c3        1 DPW     -0.079400
     19 C13         2.3300    7.7900    0.5070 c3        1 DPW     -0.079400
     20 C14         1.9150    9.1890    0.1060 c3        1 DPW     -0.080400
     21 C15         3.1350   10.1200    0.1430 c3        1 DPW     -0.092100
     22 H1         -3.0370   -8.5830   -1.6650 hx        1 DPW      0.096700
     23 H1A        -3.1660   -7.3550   -0.6320 hx        1 DPW      0.096700
     24 H1B        -2.8350   -7.0810   -2.1830 hx        1 DPW      0.096700
     25 H2         -1.6860   -7.8270    0.8310 hx        1 DPW      0.096700
     26 H2A        -0.1500   -8.1600    0.4830 hx        1 DPW      0.096700
     27 H2B        -1.2950   -9.2730    0.2300 hx        1 DPW      0.096700
     28 H3         -1.0880   -9.5550   -2.0570 hx        1 DPW      0.096700
     29 H3A         0.3010   -8.7820   -1.8920 hx        1 DPW      0.096700
     30 H3B        -0.7610   -8.3250   -3.0090 hx        1 DPW      0.096700
     31 H4         -0.7050   -6.1510   -2.1900 hx        1 DPW      0.088700
     32 H4A         0.2600   -6.4950   -0.9660 hx        1 DPW      0.088700
     33 H5         -1.4960   -5.8160    0.5490 h1        1 DPW      0.037700
     34 H5A        -2.3440   -5.3350   -0.7290 h1        1 DPW      0.037700
     35 H10        -0.3390    4.6990    1.2740 hc        1 DPW      0.039200
     36 H10A        0.0370    4.4890   -0.2620 hc        1 DPW      0.039200
     37 H11         1.8610    5.4170    1.7410 hc        1 DPW      0.038700
     38 H11A        2.3200    5.1000    0.2350 hc        1 DPW      0.038700
     39 H6         -1.5930   -0.0560   -0.0540 h1        1 DPW      0.038200
     40 H6A        -1.5450   -0.4900    1.5020 h1        1 DPW      0.038200
     41 H7          0.8660    0.3780    0.2620 hc        1 DPW      0.045200
     42 H7A         0.4880    0.4670    1.8100 hc        1 DPW      0.045200
     43 H9          1.6000    2.7480    0.3840 hc        1 DPW      0.037700
     44 H9A         1.1150    2.9150    1.9110 hc        1 DPW      0.037700
     45 H8         -0.6420    2.1080   -0.2290 hc        1 DPW      0.040200
     46 H8A        -1.0610    2.1860    1.3150 hc        1 DPW      0.040200
     47 H12         0.4110    7.1760    0.9610 hc        1 DPW      0.039200
     48 H12A        0.8440    6.8470   -0.5480 hc        1 DPW      0.039200
     49 H13         2.6350    7.7950    1.4180 hc        1 DPW      0.038700
     50 H13A        3.0450    7.4860   -0.0710 hc        1 DPW      0.038700
     51 H14         1.2320    9.5190    0.7320 hc        1 DPW      0.038200
     52 H14A        1.5450    9.1710   -0.8000 hc        1 DPW      0.038200
     53 H15         3.5390   10.0950    1.0410 hc        1 DPW      0.031700
     54 H15A        2.8540   11.0300   -0.0620 hc        1 DPW      0.031700
     55 H15B        3.7950    9.8230   -0.5230 hc        1 DPW      0.031700
@<TRIPOS>BOND
     1    1   15 1   
     2    1   22 1   
     3    1   23 1   
     4    1   24 1   
     5    2   15 1   
     6    2   25 1   
     7    2   26 1   
     8    2   27 1   
     9    3   15 1   
    10    3   28 1   
    11    3   29 1   
    12    3   30 1   
    13    4    5 1   
    14    4   15 1   
    15    4   31 1   
    16    4   32 1   
    17    5   14 1   
    18    5   33 1   
    19    5   34 1   
    20    6    7 1   
    21    6   10 1   
    22    6   35 1   
    23    6   36 1   
    24    7   18 1   
    25    7   37 1   
    26    7   38 1   
    27    8    9 1   
    28    8   16 1   
    29    8   39 1   
    30    8   40 1   
    31    9   17 1   
    32    9   41 1   
    33    9   42 1   
    34   10   17 1   
    35   10   43 1   
    36   10   44 1   
    37   11   12 1   
    38   12   14 1   
    39   12   16 1   
    40   17   45 1   
    41   17   46 1   
    42   18   19 1   
    43   18   47 1   
    44   18   48 1   
    45   19   20 1   
    46   19   49 1   
    47   19   50 1   
    48   20   21 1   
    49   20   51 1   
    50   20   52 1   
    51   21   53 1   
    52   21   54 1   
    53   21   55 1   
@<TRIPOS>SUBSTRUCTURE
     1 DPW         1 TEMP              0 ****  ****    0 ROOT
