@<TRIPOS>MOLECULE
DPX
   44    44     1     0     0
SMALL
bcc


@<TRIPOS>ATOM
      1 C4          0.0000    0.0000    0.0000 c2        1 DPX     -0.442200
      2 C5          1.3240    0.0000    0.0000 c2        1 DPX     -0.032600
      3 O21         3.3490   -3.9210    2.6840 o         1 DPX     -0.614000
      4 O22         5.2240   -2.7640    4.1180 os        1 DPX     -0.461800
      5 O26         4.9330   -5.3750    4.0420 o         1 DPX     -0.450833
      6 O25         6.9070   -4.2400    2.9570 o         1 DPX     -0.450833
      7 O24         6.8580   -4.3090    5.4790 o         1 DPX     -0.450833
      8 P23         6.0000   -4.1730    4.1240 p5        1 DPX      0.850900
      9 P19         4.3910   -2.6940    2.7440 p5        1 DPX      0.945800
     10 O20         5.3230   -2.7850    1.5980 o         1 DPX     -0.614000
     11 O18         3.5860   -1.3040    2.6710 os        1 DPX     -0.475200
     12 C17         2.8690   -1.3030    1.4360 c3        1 DPX      0.226400
     13 C16         2.0790    0.0000    1.3030 c3        1 DPX      0.245300
     14 C15        -0.7530    0.2790    1.2750 c3        1 DPX      0.113100
     15 N3         -0.7010   -0.2590   -1.1860 ny        1 DPX      0.101200
     16 O27         2.9790    1.1090    1.3340 oh        1 DPX     -0.585800
     17 S1          2.2050    0.0020   -1.5260 sh        1 DPX     -0.451400
     18 C6         -2.1570   -0.0980   -1.2250 c3        1 DPX      0.089100
     19 C7         -2.6480   -0.3140   -2.6320 ca        1 DPX     -0.528900
     20 C8         -2.6010    0.7160   -3.5730 ca        1 DPX      0.478200
     21 N9         -3.0390    0.4830   -4.8070 nb        1 DPX     -0.650000
     22 C10        -3.5210   -0.6990   -5.1360 ca        1 DPX      0.468300
     23 N11        -3.5850   -1.6900   -4.2710 nb        1 DPX     -0.637000
     24 C12        -3.1620   -1.5350   -3.0240 ca        1 DPX      0.413200
     25 N13        -2.0950    1.9580   -3.2300 nv        1 DPX     -0.590500
     26 C14        -4.0150   -0.9210   -6.5430 c3        1 DPX     -0.001400
     27 H171        2.1860   -2.1440    1.4140 h1        1 DPX      0.025700
     28 H172        3.5690   -1.3860    0.6130 h1        1 DPX      0.025700
     29 H16         1.3780    0.0820    2.1250 h1        1 DPX     -0.005300
     30 H151       -0.6800   -0.5790    1.9330 hc        1 DPX     -0.005300
     31 H152       -1.7940    0.4710    1.0460 hc        1 DPX     -0.005300
     32 H153       -0.3250    1.1460    1.7650 hc        1 DPX     -0.005300
     33 HN3        -0.3180    0.3380   -1.8920 hn        1 DPX      0.211800
     34 HOR         2.8080    1.6310    2.1000 ho        1 DPX      0.367000
     35 HS1         2.7680    1.1890   -1.7120 hs        1 DPX      0.131800
     36 H61        -2.4190    0.9010   -0.9000 hx        1 DPX      0.038700
     37 H62        -2.6190   -0.8240   -0.5660 hx        1 DPX      0.038700
     38 H12        -3.0630   -2.3970   -2.3750 h4        1 DPX     -0.028900
     39 HND1       -1.5460    2.4730   -3.8900 hn        1 DPX      0.261800
     40 HND2       -2.3240    2.3640   -2.3450 hn        1 DPX      0.261800
     41 H141       -3.2930   -1.5180   -7.0880 hc        1 DPX     -0.005300
     42 H142       -4.9650   -1.4410   -6.5140 hc        1 DPX     -0.005300
     43 H143       -4.1410    0.0340   -7.0370 hc        1 DPX     -0.005300
     44 H32        -0.5000   -1.2040   -1.4480 hn        1 DPX      0.211800
@<TRIPOS>BOND
     1    1    2 2   
     2    1   14 1   
     3    1   15 1   
     4    2   13 1   
     5    2   17 1   
     6    3    9 1   
     7    4    8 1   
     8    4    9 1   
     9    5    8 1   
    10    6    8 1   
    11    7    8 1   
    12    9   10 1   
    13    9   11 1   
    14   11   12 1   
    15   12   13 1   
    16   12   27 1   
    17   12   28 1   
    18   13   16 1   
    19   13   29 1   
    20   14   30 1   
    21   14   31 1   
    22   14   32 1   
    23   15   18 1   
    24   15   33 1   
    25   15   44 1   
    26   16   34 1   
    27   17   35 1   
    28   18   19 1   
    29   18   36 1   
    30   18   37 1   
    31   19   20 ar  
    32   19   24 ar  
    33   20   21 ar  
    34   20   25 1   
    35   21   22 ar  
    36   22   23 ar  
    37   22   26 1   
    38   23   24 ar  
    39   24   38 1   
    40   25   39 1   
    41   25   40 1   
    42   26   41 1   
    43   26   42 1   
    44   26   43 1   
@<TRIPOS>SUBSTRUCTURE
     1 DPX         1 TEMP              0 ****  ****    0 ROOT
