@<TRIPOS>MOLECULE
DPY
   34    31     1     0     0
SMALL
bcc


@<TRIPOS>ATOM
      1 P           2.0010    2.3660    2.5660 p4        1 DPY      1.700200
      2 O1P         3.2790    1.9770    3.3080 o         1 DPY     -0.943000
      3 O2P         0.8350    2.1410    3.4430 os        1 DPY     -1.264000
      4 O5'         1.8640    1.4900    1.2770 os        1 DPY     -0.578200
      5 C1         -0.4050   -1.1360   -0.6180 c1        1 DPY     -0.107100
      6 C2          0.3770   -2.1790   -0.1040 cg        1 DPY      0.328600
      7 C7          1.7710   -2.4560   -0.6930 c         1 DPY      0.884800
      8 O71         1.8810   -2.9290   -1.8580 o         1 DPY     -0.853300
      9 O72         2.8060   -2.3130    0.0330 o         1 DPY     -0.853300
     10 N3         -0.1460   -3.0250    0.8610 n1        1 DPY     -0.469800
     11 C4         -1.4350   -2.8410    1.3170 cg        1 DPY     -0.009200
     12 C8         -2.0010   -3.7570    2.4080 c         1 DPY      0.880800
     13 O81        -2.4740   -4.8620    2.1040 o         1 DPY     -0.866800
     14 O82        -1.9580   -3.3890    3.6490 o         1 DPY     -0.866800
     15 C5         -2.2200   -1.7950    0.8020 c1        1 DPY     -0.167500
     16 C6         -1.7030   -0.9510   -0.1590 c1        1 DPY     -0.040500
     17 C2'        -0.8680    0.9190   -2.0850 c3        1 DPY     -0.104400
     18 C5'         0.6410    1.5730    0.5110 c3        1 DPY      0.229400
     19 C4'         0.9680    1.6830   -0.9340 c3        1 DPY      0.069100
     20 O4'         1.2640    0.1950   -1.5550 os        1 DPY     -0.441600
     21 C1'         0.0980   -0.3260   -1.8160 c3        1 DPY      0.156200
     22 C3'        -0.0740    2.1730   -1.6120 c3        1 DPY      0.141100
     23 O3'         0.3900    2.9570   -2.7800 oh        1 DPY     -0.673800
     24 O3P         2.0660    3.8180    2.1810 o         1 DPY     -0.991800
     25 H5         -3.1590   -1.6610    1.1350 ha        1 DPY      0.047500
     26 H6         -2.3040   -0.2880   -0.6170 ha        1 DPY      0.070500
     27 H2'1       -1.0680    0.9870   -3.0230 hc        1 DPY      0.045700
     28 H2'2       -1.7050    0.8240   -1.5610 hc        1 DPY      0.045700
     29 H5'1        0.1300    2.3620    0.7920 h1        1 DPY     -0.000300
     30 H5'2        0.1160    0.7810    0.6600 h1        1 DPY     -0.000300
     31 H4'         1.7000    2.2230   -1.0490 h1        1 DPY      0.051700
     32 H1'         0.1510   -0.8990   -2.6200 h1        1 DPY      0.065700
     33 H3'        -0.6370    2.7350   -1.0210 h1        1 DPY      0.025700
     34 H3T        -0.1800    3.6020   -2.9440 ho        1 DPY      0.489000
@<TRIPOS>BOND
     1    1    2 1   
     2    1    4 1   
     3    1   24 2   
     4    4   18 1   
     5    5   16 3   
     6    5   21 1   
     7    6    7 1   
     8    6   10 3   
     9    7    8 1   
    10    7    9 1   
    11   11   12 1   
    12   11   15 3   
    13   12   13 1   
    14   12   14 1   
    15   15   25 1   
    16   16   26 1   
    17   17   21 1   
    18   17   22 1   
    19   17   27 1   
    20   17   28 1   
    21   18   19 1   
    22   18   29 1   
    23   18   30 1   
    24   19   20 1   
    25   19   22 1   
    26   19   31 1   
    27   20   21 1   
    28   21   32 1   
    29   22   23 1   
    30   22   33 1   
    31   23   34 1   
@<TRIPOS>SUBSTRUCTURE
     1 DPY         1 TEMP              0 ****  ****    0 ROOT
