@<TRIPOS>MOLECULE
DPY
   34    35     1     0     0
SMALL
bcc


@<TRIPOS>ATOM
      1 P           5.3350   -3.2660    1.2680 p5        1 DPY      1.331900
      2 O1P         5.9300   -4.3060    0.3560 o         1 DPY     -0.943500
      3 O2P         5.9130   -3.2210    2.6580 o         1 DPY     -0.943500
      4 O5'         3.7230   -3.8270    1.5170 os        1 DPY     -0.578200
      5 C1         -1.2180   -1.1870    3.1760 ca        1 DPY     -0.206600
      6 C2         -2.5500   -0.7100    3.0140 ca        1 DPY      0.389800
      7 C7         -3.1300   -0.4800    1.6080 c         1 DPY      0.826100
      8 O71        -3.0930    0.6860    1.1210 o         1 DPY     -0.853300
      9 O72        -3.6270   -1.4690    0.9950 o         1 DPY     -0.853300
     10 N3         -3.3640   -0.4430    4.0640 nb        1 DPY     -0.670000
     11 C4         -2.8950   -0.6420    5.3170 ca        1 DPY      0.377800
     12 C8         -3.7750   -0.3540    6.5360 c         1 DPY      0.822100
     13 O81        -3.7090    0.7870    7.0820 o         1 DPY     -0.866800
     14 O82        -4.4990   -1.2830    7.0030 o         1 DPY     -0.866800
     15 C5         -1.5890   -1.1200    5.5610 ca        1 DPY     -0.290300
     16 C6         -0.7550   -1.3920    4.4790 ca        1 DPY     -0.098000
     17 C2'         0.5490   -0.2740    1.5980 c3        1 DPY     -0.104400
     18 C5'         2.9550   -3.0650    2.3680 c3        1 DPY      0.229400
     19 C4'         1.8120   -2.3570    1.6100 c3        1 DPY      0.069100
     20 O4'         0.5610   -2.5680    2.2990 os        1 DPY     -0.441600
     21 C1'        -0.3310   -1.4690    2.0020 c3        1 DPY      0.190400
     22 C3'         1.9770   -0.8270    1.4970 c3        1 DPY      0.141100
     23 O3'         2.5580   -0.4350    0.2720 oh        1 DPY     -0.673800
     24 O3P         5.0720   -1.9130    0.6430 o         1 DPY     -0.943500
     25 H5         -1.2500   -1.2730    6.5910 ha        1 DPY      0.105000
     26 H6          0.2630   -1.7810    4.6320 ha        1 DPY      0.128000
     27 H2'1        0.2120    0.1420    0.6180 hc        1 DPY      0.045700
     28 H2'2        0.4930    0.5390    2.3590 hc        1 DPY      0.045700
     29 H5'1        2.4790   -3.7360    3.1440 h1        1 DPY     -0.000300
     30 H5'2        3.5910   -2.2990    2.8950 h1        1 DPY     -0.000300
     31 H4'         1.7180   -2.8010    0.5820 h1        1 DPY      0.051700
     32 H1'        -0.9740   -1.7900    1.1320 h1        1 DPY      0.065700
     33 H3'         2.6100   -0.4410    2.3430 h1        1 DPY      0.025700
     34 H3T         3.4280   -0.8940    0.2260 ho        1 DPY      0.489000
@<TRIPOS>BOND
     1    1    2 1   
     2    1    3 1   
     3    1    4 1   
     4    1   24 1   
     5    4   18 1   
     6    5    6 ar  
     7    5   16 ar  
     8    5   21 1   
     9    6    7 1   
    10    6   10 ar  
    11    7    8 1   
    12    7    9 1   
    13   10   11 ar  
    14   11   12 1   
    15   11   15 ar  
    16   12   13 1   
    17   12   14 1   
    18   15   16 ar  
    19   15   25 1   
    20   16   26 1   
    21   17   21 1   
    22   17   22 1   
    23   17   27 1   
    24   17   28 1   
    25   18   19 1   
    26   18   29 1   
    27   18   30 1   
    28   19   20 1   
    29   19   22 1   
    30   19   31 1   
    31   20   21 1   
    32   21   32 1   
    33   22   23 1   
    34   22   33 1   
    35   23   34 1   
@<TRIPOS>SUBSTRUCTURE
     1 DPY         1 TEMP              0 ****  ****    0 ROOT
