@<TRIPOS>MOLECULE
DPZ
   24    25     1     0     0
SMALL
bcc


@<TRIPOS>ATOM
      1 N1         -0.0490   -0.1330    0.0120 n         1 DPZ     -0.352500
      2 C2          1.3370   -0.0330   -0.0360 c         1 DPZ      0.678100
      3 O3          1.9450   -0.0790   -1.1250 o         1 DPZ     -0.624500
      4 C4          2.0790   -0.0130    1.2680 ca        1 DPZ     -0.037600
      5 C5          3.4940   -0.0380    1.3410 ca        1 DPZ      0.020600
      6 C6          4.1420   -0.0200    2.5850 ca        1 DPZ     -0.074000
      7 C7          3.3690    0.0240    3.7630 ca        1 DPZ     -0.024400
      8 C8          1.9680    0.0510    3.7070 ca        1 DPZ     -0.008000
      9 C9          1.3410    0.0350    2.4540 ca        1 DPZ     -0.068600
     10 C10        -0.1580    0.0600    2.4030 c         1 DPZ      0.672100
     11 O11        -0.8400    0.0590    3.4330 o         1 DPZ     -0.512500
     12 N12        -0.7460    0.2240    1.1300 n         1 DPZ     -0.367500
     13 N13         4.0370    0.0440    5.0670 n4        1 DPZ     -0.712000
     14 N14         4.2880   -0.0760    0.1120 n4        1 DPZ     -0.716000
     15 H1         -0.5450    0.0800   -0.8500 hn        1 DPZ      0.390500
     16 H6          5.2470   -0.0420    2.6440 ha        1 DPZ      0.184000
     17 H8          1.3220    0.0860    4.6120 ha        1 DPZ      0.225000
     18 H12        -1.7240   -0.0520    1.0700 hn        1 DPZ      0.377500
     19 H131        4.6160   -0.8010    5.1810 hn        1 DPZ      0.488467
     20 H132        4.6380    0.8780    5.1440 hn        1 DPZ      0.488467
     21 H141        4.2470    0.8480   -0.3500 hn        1 DPZ      0.495133
     22 H142        3.8650   -0.7610   -0.5510 hn        1 DPZ      0.495133
     23 H133        3.3370    0.0700    5.8250 hn        1 DPZ      0.488467
     24 H143        5.2640   -0.3300    0.3010 hn        1 DPZ      0.495133
@<TRIPOS>BOND
     1    1    2 1   
     2    1   12 1   
     3    1   15 1   
     4    2    3 2   
     5    2    4 1   
     6    4    5 ar  
     7    4    9 ar  
     8    5    6 ar  
     9    5   14 1   
    10    6    7 ar  
    11    6   16 1   
    12    7    8 ar  
    13    7   13 1   
    14    8    9 ar  
    15    8   17 1   
    16    9   10 1   
    17   10   11 2   
    18   10   12 1   
    19   12   18 1   
    20   13   19 1   
    21   13   20 1   
    22   13   23 1   
    23   14   21 1   
    24   14   22 1   
    25   14   24 1   
@<TRIPOS>SUBSTRUCTURE
     1 DPZ         1 TEMP              0 ****  ****    0 ROOT
