@<TRIPOS>MOLECULE
DPZ
   22    23     1     0     0
SMALL
bcc


@<TRIPOS>ATOM
      1 N1          0.1550   -0.1680   -2.6520 n         1 DPZ     -0.399500
      2 C2          1.0940    0.0280   -1.5950 c         1 DPZ      0.703100
      3 O3          2.2860    0.1570   -1.9420 o         1 DPZ     -0.649500
      4 C4          0.6030   -0.0110   -0.2120 ca        1 DPZ     -0.263600
      5 C5          1.4780   -0.0410    0.9120 ca        1 DPZ      0.293600
      6 C6          0.9140    0.0050    2.2170 ca        1 DPZ     -0.296000
      7 C7         -0.4720    0.0630    2.4180 ca        1 DPZ      0.230600
      8 C8         -1.3330    0.0510    1.2820 ca        1 DPZ     -0.204000
      9 C9         -0.7890    0.0150    0.0150 ca        1 DPZ     -0.020600
     10 C10        -1.7180   -0.0240   -1.1470 c         1 DPZ      0.674100
     11 O11        -2.9540   -0.1110   -1.0370 o         1 DPZ     -0.602500
     12 N12        -1.1670    0.1340   -2.4450 n         1 DPZ     -0.400500
     13 N13        -1.0050    0.1920    3.6910 nh        1 DPZ     -0.839200
     14 N14         2.8370   -0.1690    0.7820 nh        1 DPZ     -0.855200
     15 H1          0.4660    0.2540   -3.5200 hn        1 DPZ      0.308500
     16 H6          1.5890   -0.0020    3.0880 ha        1 DPZ      0.137000
     17 H8         -2.4280    0.0760    1.4030 ha        1 DPZ      0.163000
     18 H12        -1.7350   -0.2910   -3.1680 hn        1 DPZ      0.311500
     19 H131       -0.4190   -0.0660    4.4490 hn        1 DPZ      0.412800
     20 H132       -1.9680   -0.0270    3.7940 hn        1 DPZ      0.412800
     21 H141        3.4030    0.0000    1.5760 hn        1 DPZ      0.440800
     22 H142        3.2540   -0.0720   -0.1160 hn        1 DPZ      0.440800
@<TRIPOS>BOND
     1    1    2 1   
     2    1   12 1   
     3    1   15 1   
     4    2    3 2   
     5    2    4 1   
     6    4    5 ar  
     7    4    9 ar  
     8    5    6 ar  
     9    5   14 1   
    10    6    7 ar  
    11    6   16 1   
    12    7    8 ar  
    13    7   13 1   
    14    8    9 ar  
    15    8   17 1   
    16    9   10 1   
    17   10   11 2   
    18   10   12 1   
    19   12   18 1   
    20   13   19 1   
    21   13   20 1   
    22   14   21 1   
    23   14   22 1   
@<TRIPOS>SUBSTRUCTURE
     1 DPZ         1 TEMP              0 ****  ****    0 ROOT
