@<TRIPOS>MOLECULE
DPZ
   22    23     1     0     0
SMALL
bcc


@<TRIPOS>ATOM
      1 N1         -0.0780   -0.0000    0.0080 ns        1 DPZ     -0.400500
      2 C2          1.3480    0.0660   -0.0280 c         1 DPZ      0.703100
      3 O3          1.8620    0.1310   -1.1640 o         1 DPZ     -0.650500
      4 C4          2.0810   -0.0220    1.2400 ca        1 DPZ     -0.267600
      5 C5          3.4970   -0.1780    1.3000 ca        1 DPZ      0.302600
      6 C6          4.1300   -0.1810    2.5750 ca        1 DPZ     -0.302000
      7 C7          3.3930   -0.0790    3.7620 ca        1 DPZ      0.234600
      8 C8          1.9750    0.0530    3.6840 ca        1 DPZ     -0.207000
      9 C9          1.3590    0.0750    2.4490 ca        1 DPZ     -0.018600
     10 C10        -0.1240    0.1860    2.4080 c         1 DPZ      0.674100
     11 O11        -0.8420    0.1950    3.4220 o         1 DPZ     -0.601500
     12 N12        -0.7420    0.3850    1.1450 ns        1 DPZ     -0.400500
     13 N13         4.0130   -0.1660    4.9970 nv        1 DPZ     -0.842200
     14 N14         4.2620   -0.3530    0.1800 nv        1 DPZ     -0.863200
     15 H1         -0.5000    0.4470   -0.7970 hn        1 DPZ      0.308500
     16 H6          5.2250   -0.2860    2.6230 ha        1 DPZ      0.137000
     17 H8          1.3640    0.1270    4.5980 ha        1 DPZ      0.163000
     18 H12        -1.6960    0.0470    1.1180 hn        1 DPZ      0.311500
     19 H131        4.9910   -0.0040    5.0230 hn        1 DPZ      0.414300
     20 H132        3.4960    0.1550    5.7810 hn        1 DPZ      0.414300
     21 H141        3.8570   -0.2580   -0.7220 hn        1 DPZ      0.445300
     22 H142        5.2470   -0.3420    0.2640 hn        1 DPZ      0.445300
@<TRIPOS>BOND
     1    1    2 1   
     2    1   12 1   
     3    1   15 1   
     4    2    3 2   
     5    2    4 1   
     6    4    5 ar  
     7    4    9 ar  
     8    5    6 ar  
     9    5   14 1   
    10    6    7 ar  
    11    6   16 1   
    12    7    8 ar  
    13    7   13 1   
    14    8    9 ar  
    15    8   17 1   
    16    9   10 1   
    17   10   11 2   
    18   10   12 1   
    19   12   18 1   
    20   13   19 1   
    21   13   20 1   
    22   14   21 1   
    23   14   22 1   
@<TRIPOS>SUBSTRUCTURE
     1 DPZ         1 TEMP              0 ****  ****    0 ROOT
