@<TRIPOS>MOLECULE
DPZ
   22    19     1     0     0
SMALL
bcc


@<TRIPOS>ATOM
      1 N1         -2.2570   -0.0070   -1.9410 n2        1 DPZ     -0.247000
      2 C2         -0.8990   -0.0070   -1.9410 c1        1 DPZ      0.340000
      3 O3         -0.2920    0.0390   -2.9920 o         1 DPZ     -0.375000
      4 C4         -0.2030   -0.0070   -0.7350 c1        1 DPZ     -0.247000
      5 C5          1.2100   -0.0070   -0.7340 c2        1 DPZ      0.221000
      6 C6          1.9010   -0.0070    0.4640 c1        1 DPZ     -0.302000
      7 C7          1.2100   -0.0070    1.6610 c1        1 DPZ      0.153000
      8 C8         -0.1740   -0.0070    1.6610 c1        1 DPZ     -0.207000
      9 C9         -0.8810   -0.0070    0.4370 c1        1 DPZ      0.002000
     10 C10        -2.2720   -0.0070    0.4330 c2        1 DPZ      0.311000
     11 O11        -2.8820   -0.0390    1.4830 o         1 DPZ     -0.326000
     12 N12        -2.9490   -0.0070   -0.7460 n2        1 DPZ     -0.247000
     13 N13         1.8380    0.6630    2.7430 n3        1 DPZ     -0.351000
     14 N14         2.1110   -0.6380   -1.6300 n3        1 DPZ     -0.372000
     15 H1         -2.7130   -0.0070   -2.7310 hn        1 DPZ      0.222000
     16 H6          2.8780   -0.0070    0.4640 ha        1 DPZ      0.137000
     17 H8         -0.6620   -0.0070    2.5060 ha        1 DPZ      0.163000
     18 H12        -3.8610   -0.0070   -0.7480 hn        1 DPZ      0.225000
     19 H131        2.0610    0.2020    3.4970 hn        1 DPZ      0.209500
     20 H132        2.0320    1.5520    2.6780 hn        1 DPZ      0.209500
     21 H141        2.0700   -1.5400   -1.7570 hn        1 DPZ      0.240500
     22 H142        2.7350   -0.1430   -2.0730 hn        1 DPZ      0.240500
@<TRIPOS>BOND
     1    1    2 1   
     2    1   15 1   
     3    2    3 1   
     4    4    5 1   
     5    4    9 1   
     6    5    6 1   
     7    5   14 1   
     8    6   16 1   
     9    7    8 1   
    10    7   13 1   
    11    8   17 1   
    12    9   10 1   
    13   10   11 1   
    14   10   12 1   
    15   12   18 1   
    16   13   19 1   
    17   13   20 1   
    18   14   21 1   
    19   14   22 1   
@<TRIPOS>SUBSTRUCTURE
     1 DPZ         1 TEMP              0 ****  ****    0 ROOT
