@<TRIPOS>MOLECULE
DQ1
   58    59     1     0     0
SMALL
bcc


@<TRIPOS>ATOM
      1 C1         -2.3340    1.4250    1.4920 c2        1 DQ1      0.241000
      2 N1         -2.3960    2.7210    1.1050 n2        1 DQ1     -0.367000
      3 O1         -6.0080   -5.0930    2.0520 os        1 DQ1     -0.239000
      4 C2         -1.2010    0.5070    1.0490 c3        1 DQ1     -0.161000
      5 N2         -3.3170    0.8690    2.2330 n3        1 DQ1     -0.296000
      6 O2         -6.9570   -4.3090    4.5080 oh        1 DQ1     -0.250000
      7 C3          0.2700   -1.1580    2.0550 c2        1 DQ1     -0.299000
      8 O3        -11.4030   -8.6520    1.9960 o         1 DQ1     -0.361000
      9 C4         -2.1610   -0.8440    5.0000 c2        1 DQ1     -0.113000
     10 N4         -3.3830   -1.2070    5.1260 n2        1 DQ1     -0.166000
     11 O4        -10.4490   -9.4510    3.8520 os        1 DQ1     -0.276000
     12 C5         -5.3600   -5.6840    0.9310 c3        1 DQ1     -0.070000
     13 N5         -0.0810    2.5750    0.1940 n2        1 DQ1     -0.311000
     14 C6         -8.8860   -6.9160    1.7000 cx        1 DQ1     -0.185500
     15 C7         -8.5680   -8.1720    0.9530 cx        1 DQ1     -0.185500
     16 C8         -9.0190   -8.2520    2.3920 cx        1 DQ1     -0.189000
     17 C9        -10.3760   -8.7640    2.6710 c2        1 DQ1      0.333000
     18 C10       -11.5620  -10.6720    5.5360 c3        1 DQ1     -0.218000
     19 C11       -11.7400   -9.9800    4.2060 c3        1 DQ1     -0.011000
     20 C12        -1.3040    3.2140    0.3780 c2        1 DQ1      0.273000
     21 C13        -3.9690   -2.1990    4.3030 ca        1 DQ1     -0.031000
     22 C14        -5.1570   -2.8000    4.7720 ca        1 DQ1     -0.106000
     23 C15        -5.8000   -3.7670    3.9960 ca        1 DQ1      0.056000
     24 C16        -5.2700   -4.1430    2.7410 ca        1 DQ1     -0.008000
     25 C17        -4.0990   -3.5450    2.2750 ca        1 DQ1     -0.156000
     26 C18        -3.4530   -2.5840    3.0470 ca        1 DQ1     -0.179000
     27 C19         1.3630   -0.5740    1.3850 c2        1 DQ1      0.049000
     28 C20         0.0130    1.3040    0.6290 c2        1 DQ1      0.140000
     29 C21         1.2540    0.6200    0.6910 c2        1 DQ1     -0.287000
     30 C22        -0.9890   -0.6370    1.9540 c1        1 DQ1     -0.289000
     31 HN2        -4.0870    1.4000    2.5660 hn        1 DQ1      0.267000
     32 HN2A       -3.1750   -0.0700    2.5590 hn        1 DQ1      0.267000
     33 HN3        -2.2520    5.0060    0.0440 hn        1 DQ1      0.250500
     34 HN3A       -0.6690    4.9040   -0.5980 hn        1 DQ1      0.250500
     35 H4          0.4440   -2.0460    2.6800 ha        1 DQ1      0.135000
     36 H4A        -1.8060   -0.0590    5.6950 h4        1 DQ1      0.133000
     37 HN4        -1.4160   -1.2150    4.2660 h4        1 DQ1      0.133000
     38 H5         -4.3690   -6.1090    1.2210 h1        1 DQ1      0.085000
     39 H5A        -5.2400   -4.9330    0.1130 h1        1 DQ1      0.085000
     40 H5B        -6.0670   -6.4960    0.6210 h1        1 DQ1      0.085000
     41 H6         -7.2620   -4.9960    3.8960 ho        1 DQ1      0.230000
     42 H6A        -9.8070   -6.3620    1.4420 hc        1 DQ1      0.125250
     43 H7         -8.0630   -6.2440    2.0130 hc        1 DQ1      0.125250
     44 H7A        -9.2630   -8.5140    0.1640 hc        1 DQ1      0.125250
     45 H8         -7.5160   -8.4190    0.7240 hc        1 DQ1      0.125250
     46 H8A        -8.2850   -8.5300    3.1740 hc        1 DQ1      0.152000
     47 H10       -12.4710   -9.1320    4.2680 h1        1 DQ1      0.090500
     48 H10A      -10.8120  -11.4940    5.4530 hc        1 DQ1      0.087333
     49 H10B      -11.2070   -9.9500    6.3090 hc        1 DQ1      0.087333
     50 H11       -12.5410  -11.1000    5.8560 hc        1 DQ1      0.087333
     51 H11A      -12.0700  -10.6890    3.4030 h1        1 DQ1      0.090500
     52 H14        -5.5900   -2.5260    5.7470 ha        1 DQ1      0.165000
     53 H17        -2.5210   -2.1200    2.6550 ha        1 DQ1      0.194000
     54 H18        -3.6760   -3.8290    1.3010 ha        1 DQ1      0.138000
     55 H19         2.3530   -1.0600    1.4390 ha        1 DQ1      0.125000
     56 H21         2.1450    1.0840    0.2420 ha        1 DQ1      0.150000
     57 H22        -1.5650   -0.0090    0.0930 hc        1 DQ1      0.192000
     58 N3         -1.4470    4.4670   -0.1640 n3        1 DQ1     -0.321000
@<TRIPOS>BOND
     1    1    2 1   
     2    1    4 1   
     3    1    5 1   
     4    2   20 1   
     5    3   12 1   
     6    3   24 1   
     7    4   28 1   
     8    4   30 1   
     9    4   57 1   
    10    5   31 1   
    11    5   32 1   
    12    6   23 1   
    13    6   41 1   
    14    7   27 1   
    15    7   30 1   
    16    7   35 1   
    17    8   17 1   
    18    9   10 1   
    19    9   36 1   
    20    9   37 1   
    21   10   21 1   
    22   11   17 1   
    23   11   19 1   
    24   12   38 1   
    25   12   39 1   
    26   12   40 1   
    27   13   20 1   
    28   13   28 1   
    29   14   15 1   
    30   14   16 1   
    31   14   42 1   
    32   14   43 1   
    33   15   16 1   
    34   15   44 1   
    35   15   45 1   
    36   16   17 1   
    37   16   46 1   
    38   18   19 1   
    39   18   48 1   
    40   18   49 1   
    41   18   50 1   
    42   19   47 1   
    43   19   51 1   
    44   20   58 1   
    45   21   22 1   
    46   21   26 1   
    47   22   23 1   
    48   22   52 1   
    49   23   24 1   
    50   24   25 1   
    51   25   26 1   
    52   25   54 1   
    53   26   53 1   
    54   27   29 1   
    55   27   55 1   
    56   28   29 1   
    57   29   56 1   
    58   33   58 1   
    59   34   58 1   
@<TRIPOS>SUBSTRUCTURE
     1 DQ1         1 TEMP              0 ****  ****    0 ROOT
