@<TRIPOS>MOLECULE
DQ1
   58    58     1     0     0
SMALL
bcc


@<TRIPOS>ATOM
      1 C1         -1.9360   -3.4860    2.5290 c2        1 DQ1      0.241000
      2 N1         -1.1820   -4.6130    2.5180 n2        1 DQ1     -0.378000
      3 O1        -11.5640   -1.5180    1.6620 os        1 DQ1     -0.232000
      4 C2         -1.3060   -2.0990    2.4860 c3        1 DQ1     -0.158000
      5 N2         -3.2820   -3.5530    2.5090 n3        1 DQ1     -0.287000
      6 O2        -10.2060   -3.7800    2.4160 oh        1 DQ1     -0.263000
      7 C3         -1.5820    0.0460    3.6150 c2        1 DQ1     -0.298000
      8 O3         -5.4360   -7.9770    1.7910 o         1 DQ1     -0.263000
      9 C4         -5.3030   -0.4950    2.8410 c2        1 DQ1     -0.121000
     10 N4         -6.0120   -1.4910    2.4640 n2        1 DQ1     -0.191000
     11 O4         -4.4550   -6.4410    3.0840 os        1 DQ1     -0.264000
     12 C5        -12.2460   -0.3310    1.2760 c3        1 DQ1     -0.068000
     13 N5          0.8760   -3.2590    2.8800 n2        1 DQ1     -0.312000
     14 C6         -8.0820   -6.4450    2.1460 cx        1 DQ1     -0.176000
     15 C7         -8.0480   -7.2860    3.3800 cx        1 DQ1     -0.176000
     16 C8         -6.8620   -6.4100    3.0380 cx        1 DQ1     -0.215000
     17 C9         -5.6290   -7.0620    2.5760 c2        1 DQ1      0.355000
     18 C10        -1.9350   -8.3510    1.4170 c3        1 DQ1     -0.276000
     19 C11        -3.5230   -7.2240    3.6060 c1        1 DQ1      0.011000
     20 C12         0.2040   -4.4460    2.5880 c2        1 DQ1      0.275000
     21 C13        -7.4140   -1.4110    2.2900 ca        1 DQ1     -0.005000
     22 C14        -8.1620   -2.5960    2.4570 ca        1 DQ1     -0.123000
     23 C15        -9.5410   -2.5870    2.2380 ca        1 DQ1      0.062000
     24 C16       -10.1960   -1.3970    1.8490 ca        1 DQ1     -0.005000
     25 C17        -9.4590   -0.2250    1.6790 ca        1 DQ1     -0.152000
     26 C18        -8.0850   -0.2330    1.9010 ca        1 DQ1     -0.156000
     27 C19        -0.1820    0.1310    3.7630 c2        1 DQ1      0.047000
     28 C20         0.1310   -2.1420    2.9530 c2        1 DQ1      0.142000
     29 C21         0.6610   -0.9190    3.4450 c2        1 DQ1     -0.288000
     30 C22        -2.1730   -1.0410    3.0380 c1        1 DQ1     -0.286000
     31 HN2        -3.7680   -4.4210    2.5170 hn        1 DQ1      0.273500
     32 HN2A       -3.7900   -2.6920    2.5780 hn        1 DQ1      0.273500
     33 HN3         0.5250   -6.4550    2.2910 hn        1 DQ1      0.251500
     34 HN3A        1.9470   -5.5290    2.5320 hn        1 DQ1      0.251500
     35 H4         -2.2030    0.8720    3.9890 ha        1 DQ1      0.132000
     36 H4A        -4.1900   -0.6460    2.9350 h4        1 DQ1      0.153000
     37 HN4        -5.6790    0.5160    3.0930 h4        1 DQ1      0.153000
     38 H5        -11.8660    0.0380    0.2920 h1        1 DQ1      0.085667
     39 H5A       -12.1370    0.4580    2.0600 h1        1 DQ1      0.085667
     40 H5B       -13.3130   -0.6600    1.1910 h1        1 DQ1      0.085667
     41 H6        -11.1470   -3.6280    2.2420 ho        1 DQ1      0.238000
     42 H6A        -8.7270   -5.5440    2.1150 hc        1 DQ1      0.132500
     43 H7         -7.9990   -6.9390    1.1600 hc        1 DQ1      0.132500
     44 H7A        -8.6640   -7.0020    4.2520 hc        1 DQ1      0.132500
     45 H8         -7.9400   -8.3820    3.2800 hc        1 DQ1      0.132500
     46 H8A        -6.6710   -5.5040    3.6480 hc        1 DQ1      0.154000
     47 H10        -3.0250   -8.4540    1.6350 hc        1 DQ1      0.070500
     48 H10A       -1.7940   -8.0770    0.3500 hc        1 DQ1      0.070500
     49 H10B       -1.4260   -9.3160    1.6270 hc        1 DQ1      0.070500
     50 H11        -1.5040   -7.5560    2.0660 hc        1 DQ1      0.070500
     51 H11A       -2.6760   -6.5530    3.9100 ha        1 DQ1      0.039000
     52 H14        -7.6780   -3.5390    2.7560 ha        1 DQ1      0.153000
     53 H17        -7.5190    0.7000    1.7530 ha        1 DQ1      0.137000
     54 H18        -9.9530    0.7080    1.3720 ha        1 DQ1      0.139000
     55 H19         0.2620    1.0530    4.1770 ha        1 DQ1      0.123000
     56 H21         1.7410   -0.8430    3.6360 ha        1 DQ1      0.149000
     57 H22        -1.2520   -1.8090    1.3780 hc        1 DQ1      0.191000
     58 N3          0.9660   -5.5710    2.3960 n3        1 DQ1     -0.322000
@<TRIPOS>BOND
     1    1    2 1   
     2    1    4 1   
     3    1    5 1   
     4    2   20 1   
     5    3   12 1   
     6    3   24 1   
     7    4   28 1   
     8    4   30 1   
     9    4   57 1   
    10    5   31 1   
    11    5   32 1   
    12    6   23 1   
    13    6   41 1   
    14    7   27 1   
    15    7   30 1   
    16    7   35 1   
    17    8   17 1   
    18    9   10 1   
    19    9   36 1   
    20    9   37 1   
    21   10   21 1   
    22   11   17 1   
    23   11   19 1   
    24   12   38 1   
    25   12   39 1   
    26   12   40 1   
    27   13   20 1   
    28   13   28 1   
    29   14   15 1   
    30   14   16 1   
    31   14   42 1   
    32   14   43 1   
    33   15   16 1   
    34   15   44 1   
    35   15   45 1   
    36   16   17 1   
    37   16   46 1   
    38   18   47 1   
    39   18   48 1   
    40   18   49 1   
    41   18   50 1   
    42   19   51 1   
    43   20   58 1   
    44   21   22 1   
    45   21   26 1   
    46   22   23 1   
    47   22   52 1   
    48   23   24 1   
    49   24   25 1   
    50   25   26 1   
    51   25   54 1   
    52   26   53 1   
    53   27   29 1   
    54   27   55 1   
    55   28   29 1   
    56   29   56 1   
    57   33   58 1   
    58   34   58 1   
@<TRIPOS>SUBSTRUCTURE
     1 DQ1         1 TEMP              0 ****  ****    0 ROOT
