@<TRIPOS>MOLECULE
DQ1
   58    60     1     0     0
SMALL
bcc


@<TRIPOS>ATOM
      1 C1          5.9400    1.3750    1.4580 ca        1 DQ1      0.735200
      2 N1          6.9480    2.2510    1.2550 nb        1 DQ1     -0.829000
      3 O1         -3.4840   -4.0310   -0.1460 os        1 DQ1     -0.304900
      4 C2          5.3250    0.6420    0.3530 ca        1 DQ1     -0.341600
      5 N2          5.5340    1.1370    2.7590 nh        1 DQ1     -0.951500
      6 O2         -3.4720   -1.4370   -0.0190 os        1 DQ1     -0.304900
      7 C3          3.7370   -0.9330   -0.5890 ca        1 DQ1     -0.148300
      8 O3         -7.3010    1.7520    1.5790 o         1 DQ1     -0.539000
      9 C4          2.6190   -1.9190   -0.4190 c3        1 DQ1      0.230100
     10 N4          1.4160   -1.3160    0.1230 nh        1 DQ1     -0.721600
     11 O4         -6.9660    3.2470   -0.0480 os        1 DQ1     -0.444900
     12 C5         -3.4980   -5.4520   -0.1800 c3        1 DQ1      0.111700
     13 N5          6.9150    1.7510   -1.1590 nb        1 DQ1     -0.795000
     14 C6         -3.4930   -0.0260    0.2290 c3        1 DQ1      0.127400
     15 C7         -4.9630    0.3430    0.3430 c3        1 DQ1     -0.085400
     16 C8         -5.1050    1.8450    0.4620 c3        1 DQ1     -0.127400
     17 C9         -6.5260    2.2230    0.7440 c         1 DQ1      0.633100
     18 C10        -8.5570    4.8080   -0.8210 c3        1 DQ1     -0.100100
     19 C11        -8.3180    3.6910    0.1660 c3        1 DQ1      0.138400
     20 C12         7.3950    2.4150   -0.0640 ca        1 DQ1      0.912900
     21 C13         0.2120   -2.0340   -0.0210 ca        1 DQ1      0.138600
     22 C14        -1.0200   -1.3320    0.0050 ca        1 DQ1     -0.235000
     23 C15        -2.2240   -2.0260   -0.0290 ca        1 DQ1      0.138100
     24 C16        -2.2320   -3.4450   -0.1070 ca        1 DQ1      0.067100
     25 C17        -1.0210   -4.1310   -0.1470 ca        1 DQ1     -0.145000
     26 C18         0.1890   -3.4390   -0.1060 ca        1 DQ1     -0.183000
     27 C19         4.2760   -0.7010   -1.8770 ca        1 DQ1     -0.084000
     28 C20         5.8770    0.8820   -0.9440 ca        1 DQ1      0.490600
     29 C21         5.3150    0.1740   -2.0590 ca        1 DQ1     -0.201300
     30 C22         4.2590   -0.2710    0.5030 ca        1 DQ1     -0.052000
     31 HN2         5.8750    1.7270    3.4810 hn        1 DQ1      0.430800
     32 HN2A        4.6370    0.7380    2.8920 hn        1 DQ1      0.430800
     33 HN3         8.8680    3.3560   -1.1280 hn        1 DQ1      0.426800
     34 HN3A        8.8980    3.6740    0.5310 hn        1 DQ1      0.426800
     35 H4          2.4170   -2.4300   -1.4070 h1        1 DQ1      0.047200
     36 H4A         2.9480   -2.7180    0.3090 h1        1 DQ1      0.047200
     37 HN4         1.3210   -0.3510   -0.1270 hn        1 DQ1      0.391800
     38 H5         -4.5900   -5.7000   -0.1830 h1        1 DQ1      0.042367
     39 H5A        -3.0060   -5.8320   -1.1090 h1        1 DQ1      0.042367
     40 H5B        -3.0010   -5.8770    0.7260 h1        1 DQ1      0.042367
     41 H6         -2.9430    0.2050    1.1790 h1        1 DQ1      0.038700
     42 H6A        -3.0080    0.5090   -0.6290 h1        1 DQ1      0.038700
     43 H7         -5.5130   -0.0320   -0.5590 hc        1 DQ1      0.076700
     44 H7A        -5.4120   -0.1610    1.2400 hc        1 DQ1      0.076700
     45 H8         -4.4820    2.2320    1.3130 hc        1 DQ1      0.077200
     46 H8A        -4.7580    2.3490   -0.4790 hc        1 DQ1      0.077200
     47 H10        -8.4250    4.4420   -1.8670 hc        1 DQ1      0.048033
     48 H10A       -9.5990    5.1870   -0.6940 hc        1 DQ1      0.048033
     49 H10B       -7.8390    5.6450   -0.6490 hc        1 DQ1      0.048033
     50 H11        -9.0110    2.8260   -0.0020 h1        1 DQ1      0.051700
     51 H11A       -8.4170    4.0390    1.2270 h1        1 DQ1      0.051700
     52 H14        -1.0190   -0.2340    0.0600 ha        1 DQ1      0.138000
     53 H17        -1.0040   -5.2290   -0.2090 ha        1 DQ1      0.139000
     54 H18         1.1250   -4.0150   -0.1300 ha        1 DQ1      0.136000
     55 H19         3.8500   -1.2370   -2.7400 ha        1 DQ1      0.136000
     56 H21         5.7340    0.3500   -3.0620 ha        1 DQ1      0.154000
     57 H22         3.8280   -0.4780    1.4950 ha        1 DQ1      0.135000
     58 N3          8.3740    3.3940   -0.2660 nh        1 DQ1     -0.927500
@<TRIPOS>BOND
     1    1    2 ar  
     2    1    4 ar  
     3    1    5 1   
     4    2   20 ar  
     5    3   12 1   
     6    3   24 1   
     7    4   28 ar  
     8    4   30 ar  
     9    5   31 1   
    10    5   32 1   
    11    6   14 1   
    12    6   23 1   
    13    7    9 1   
    14    7   27 ar  
    15    7   30 ar  
    16    8   17 2   
    17    9   10 1   
    18    9   35 1   
    19    9   36 1   
    20   10   21 1   
    21   10   37 1   
    22   11   17 1   
    23   11   19 1   
    24   12   38 1   
    25   12   39 1   
    26   12   40 1   
    27   13   20 ar  
    28   13   28 ar  
    29   14   15 1   
    30   14   41 1   
    31   14   42 1   
    32   15   16 1   
    33   15   43 1   
    34   15   44 1   
    35   16   17 1   
    36   16   45 1   
    37   16   46 1   
    38   18   19 1   
    39   18   47 1   
    40   18   48 1   
    41   18   49 1   
    42   19   50 1   
    43   19   51 1   
    44   20   58 1   
    45   21   22 ar  
    46   21   26 ar  
    47   22   23 ar  
    48   22   52 1   
    49   23   24 ar  
    50   24   25 ar  
    51   25   26 ar  
    52   25   53 1   
    53   26   54 1   
    54   27   29 ar  
    55   27   55 1   
    56   28   29 ar  
    57   29   56 1   
    58   30   57 1   
    59   33   58 1   
    60   34   58 1   
@<TRIPOS>SUBSTRUCTURE
     1 DQ1         1 TEMP              0 ****  ****    0 ROOT
