@<TRIPOS>MOLECULE
DQ1
   58    54     1     0     0
SMALL
bcc


@<TRIPOS>ATOM
      1 C1          6.3200    4.6860    0.7750 c1        1 DQ1      0.214000
      2 N1          7.6670    4.5240    0.6740 n1        1 DQ1     -0.302000
      3 O1         -4.5330    1.1020    0.5450 os        1 DQ1     -0.227000
      4 C2          5.5180    3.6080    1.0580 c1        1 DQ1     -0.211000
      5 N2          6.0230    5.9790    0.2160 n3        1 DQ1     -0.348000
      6 O2         -2.7460   -1.1610    0.6430 os        1 DQ1     -0.231000
      7 C3          3.2690    2.6540    1.3170 c1        1 DQ1     -0.143000
      8 N3          9.6600    3.0840    0.9390 n3        1 DQ1     -0.326000
      9 O3         -4.8150   -5.5680   -0.6070 o         1 DQ1     -0.353000
     10 C4          1.7720    2.6820    1.5130 c2        1 DQ1     -0.010000
     11 N4          1.1300    1.7720    0.5480 n3        1 DQ1     -0.283000
     12 O4         -4.5880   -6.0750   -2.8360 os        1 DQ1     -0.283000
     13 C5         -5.2940    1.8290    1.6080 c3        1 DQ1     -0.079000
     14 N5          7.4370    2.2140    1.1340 n1        1 DQ1     -0.269000
     15 C6         -2.8730   -1.8050   -0.6590 c3        1 DQ1     -0.024000
     16 C7         -3.6590   -3.1280   -0.5030 c3        1 DQ1     -0.164000
     17 C8         -3.6950   -3.8760   -1.8740 c3        1 DQ1     -0.155000
     18 C9         -4.4420   -5.2050   -1.7160 c2        1 DQ1      0.303000
     19 C10        -5.5350   -8.0660   -3.8340 c3        1 DQ1     -0.218000
     20 C11        -5.3030   -7.2790   -2.5430 c3        1 DQ1     -0.012000
     21 C12         8.2260    3.2810    0.8550 c1        1 DQ1      0.195000
     22 C13        -0.2670    1.6010    0.5700 c2        1 DQ1      0.065000
     23 C14        -0.8140    0.3140    0.5650 c2        1 DQ1     -0.191000
     24 C15        -2.1900    0.1480    0.5920 c2        1 DQ1      0.065000
     25 C16        -3.0380    1.2790    0.6260 c2        1 DQ1     -0.016000
     26 C17        -2.4930    2.5490    0.6310 c1        1 DQ1     -0.092000
     27 C18        -1.1050    2.7160    0.6030 c1        1 DQ1     -0.184000
     28 C19         3.8430    1.3820    1.5020 c1        1 DQ1     -0.083000
     29 C20         6.0750    2.3730    1.2370 c1        1 DQ1      0.098000
     30 C21         5.2340    1.2310    1.4640 c1        1 DQ1     -0.136000
     31 C22         4.0900    3.7660    1.0960 c2        1 DQ1     -0.051000
     32 HN2         6.6950    6.5700    0.0540 hn        1 DQ1      0.225500
     33 HN2A        5.1590    6.2210    0.0660 hn        1 DQ1      0.225500
     34 HN3         9.9990    2.2480    0.9940 hn        1 DQ1      0.223000
     35 HN3A       10.2220    3.8000    0.8910 hn        1 DQ1      0.223000
     36 H4          1.4240    3.6410    1.3630 h4        1 DQ1      0.087000
     37 H4A         1.5490    2.3830    2.4590 h4        1 DQ1      0.087000
     38 HN4         1.6370    1.2540    0.0120 hn        1 DQ1      0.195000
     39 H5         -5.0140    1.5190    2.4750 h1        1 DQ1      0.084000
     40 H5A        -6.2600    1.6560    1.4940 h1        1 DQ1      0.084000
     41 H5B        -5.1210    2.7990    1.5340 h1        1 DQ1      0.084000
     42 H6         -3.3660   -1.1950   -1.2900 h1        1 DQ1      0.088500
     43 H6A        -1.9710   -1.9970   -1.0220 h1        1 DQ1      0.088500
     44 H7         -4.5790   -2.9300   -0.2110 hc        1 DQ1      0.109500
     45 H7A        -3.2100   -3.7020    0.1790 hc        1 DQ1      0.109500
     46 H8         -2.7810   -4.0500   -2.1720 hc        1 DQ1      0.119000
     47 H8A        -4.1600   -3.3120   -2.5450 hc        1 DQ1      0.119000
     48 H10        -4.6690   -8.3170   -4.2260 hc        1 DQ1      0.087333
     49 H10A       -6.0440   -8.8660   -3.6360 hc        1 DQ1      0.087333
     50 H10B       -6.0410   -7.5020   -4.4790 hc        1 DQ1      0.087333
     51 H11        -6.1640   -7.0550   -2.1420 h1        1 DQ1      0.091000
     52 H11A       -4.7710   -7.8350   -1.9030 h1        1 DQ1      0.091000
     53 H14        -0.1960   -0.5090    0.4060 ha        1 DQ1      0.148000
     54 H17        -3.0770    3.3310    0.6530 ha        1 DQ1      0.147000
     55 H18        -0.7250    3.6010    0.6070 ha        1 DQ1      0.138000
     56 H19         3.2730    0.6070    1.6850 ha        1 DQ1      0.136000
     57 H21         5.6280    0.3580    1.5910 ha        1 DQ1      0.154000
     58 H22         3.6910    4.6700    1.0240 ha        1 DQ1      0.135000
@<TRIPOS>BOND
     1    1    4 1   
     2    1    5 1   
     3    2   21 1   
     4    3   13 1   
     5    3   25 1   
     6    4   31 1   
     7    5   32 1   
     8    5   33 1   
     9    6   15 1   
    10    6   24 1   
    11    7   28 1   
    12    7   31 1   
    13    8   21 1   
    14    8   34 1   
    15    8   35 1   
    16    9   18 1   
    17   10   11 1   
    18   10   36 1   
    19   10   37 1   
    20   11   22 1   
    21   11   38 1   
    22   12   18 1   
    23   12   20 1   
    24   13   39 1   
    25   13   40 1   
    26   13   41 1   
    27   14   29 1   
    28   15   16 1   
    29   15   42 1   
    30   15   43 1   
    31   16   17 1   
    32   16   44 1   
    33   16   45 1   
    34   17   18 1   
    35   17   46 1   
    36   17   47 1   
    37   19   20 1   
    38   19   48 1   
    39   19   49 1   
    40   19   50 1   
    41   20   51 1   
    42   20   52 1   
    43   22   23 1   
    44   22   27 1   
    45   23   24 1   
    46   23   53 1   
    47   24   25 1   
    48   25   26 1   
    49   26   54 1   
    50   27   55 1   
    51   28   56 1   
    52   29   30 1   
    53   30   57 1   
    54   31   58 1   
@<TRIPOS>SUBSTRUCTURE
     1 DQ1         1 TEMP              0 ****  ****    0 ROOT
