@<TRIPOS>MOLECULE
DQ1
   58    60     1     0     0
SMALL
bcc


@<TRIPOS>ATOM
      1 C1         -0.5400   -3.8870    1.1850 c2        1 DQ1      0.073000
      2 N1          0.0890   -3.3890    0.0110 n2        1 DQ1     -0.328000
      3 O1         -9.7100   -0.3040    3.3600 os        1 DQ1     -0.221000
      4 C2         -1.0520   -2.8490    2.1990 c3        1 DQ1     -0.096000
      5 N2         -0.6320   -5.1460    1.4720 n2        1 DQ1     -0.266000
      6 O2         -9.5620   -2.8720    2.2850 oh        1 DQ1     -0.257000
      7 C3         -3.0510   -2.6130    3.6470 c2        1 DQ1     -0.149000
      8 O3         -6.0960   -7.8420    1.0000 o         1 DQ1     -0.353000
      9 C4         -4.0020   -3.1120    4.7020 c3        1 DQ1     -0.006000
     10 N4         -5.2650   -3.6210    4.2320 n7        1 DQ1     -0.262000
     11 O4         -5.3320   -6.3760    2.5100 os        1 DQ1     -0.296000
     12 C5         -9.5520    1.1120    3.3280 c3        1 DQ1     -0.073000
     13 N5         -0.9990   -1.1970    0.3390 n2        1 DQ1     -0.216000
     14 C6         -8.8830   -7.5140    2.0910 cx        1 DQ1     -0.183000
     15 C7         -8.7350   -6.1410    1.5160 cx        1 DQ1     -0.183000
     16 C8         -7.6810   -6.6780    2.4580 cx        1 DQ1     -0.202000
     17 C9         -6.3620   -7.0480    1.9050 c2        1 DQ1      0.334000
     18 C10        -3.5020   -7.9530    2.7460 c3        1 DQ1     -0.243000
     19 C11        -3.9940   -6.6870    2.0900 c3        1 DQ1     -0.014000
     20 C12        -0.0930   -2.1110   -0.3210 c2        1 DQ1      0.190000
     21 C13        -6.2790   -2.7170    3.8800 c2        1 DQ1     -0.032000
     22 C14        -7.3730   -3.1460    3.1440 c2        1 DQ1     -0.106000
     23 C15        -8.5110   -2.2910    2.9620 c2        1 DQ1      0.032000
     24 C16        -8.5320   -1.0200    3.4730 c2        1 DQ1     -0.084000
     25 C17        -7.3530   -0.4780    4.1830 c3        1 DQ1     -0.177000
     26 C18        -6.2040   -1.3540    4.3230 c1        1 DQ1     -0.123000
     27 C19        -3.2340   -1.2550    3.1750 c2        1 DQ1     -0.057000
     28 C20        -1.4880   -1.5800    1.4870 c2        1 DQ1      0.092000
     29 C21        -2.4910   -0.7560    2.1690 c2        1 DQ1     -0.179000
     30 C22        -2.0490   -3.3740    3.1660 c2        1 DQ1     -0.096000
     31 HN2        -0.2440   -5.7840    0.8080 hn        1 DQ1      0.161000
     32 HN2A       -3.4100   -5.7880    2.4310 h1        1 DQ1      0.106500
     33 HN3         1.0770   -2.2050   -1.9970 hn        1 DQ1      0.224500
     34 HN3A        0.2810   -0.7300   -1.7860 hn        1 DQ1      0.224500
     35 H4         -5.1810   -4.3980    3.6030 hn        1 DQ1      0.207000
     36 H4A        -3.5110   -3.9610    5.2630 h1        1 DQ1      0.112000
     37 HN4        -4.2020   -2.2710    5.4280 h1        1 DQ1      0.112000
     38 H5         -9.1570    1.4810    4.3060 h1        1 DQ1      0.084000
     39 H5A       -10.5910    1.4880    3.1550 h1        1 DQ1      0.084000
     40 H5B        -8.8740    1.4170    2.4940 h1        1 DQ1      0.084000
     41 H6        -10.2440   -2.1930    2.1640 ho        1 DQ1      0.233000
     42 H6A        -8.7300   -8.3890    1.4310 hc        1 DQ1      0.127750
     43 H7         -9.6430   -7.7010    2.8700 hc        1 DQ1      0.127750
     44 H7A        -8.4840   -6.0390    0.4450 hc        1 DQ1      0.127750
     45 H8         -9.3780   -5.3150    1.8740 hc        1 DQ1      0.127750
     46 H8A        -7.6100   -6.2550    3.4810 hc        1 DQ1      0.152000
     47 H10        -1.8890   -4.4050    3.5240 ha        1 DQ1      0.162000
     48 H10A       -2.4270   -8.1090    2.4900 hc        1 DQ1      0.089000
     49 H10B       -3.6040   -7.8870    3.8560 hc        1 DQ1      0.089000
     50 H11        -4.0940   -8.8290    2.3850 hc        1 DQ1      0.089000
     51 H11A       -3.9580   -6.7710    0.9720 h1        1 DQ1      0.106500
     52 H14        -7.4260   -4.1460    2.6790 ha        1 DQ1      0.161000
     53 H17        -7.6490   -0.1750    5.2350 hc        1 DQ1      0.165000
     54 H18        -6.9930    0.4660    3.6730 hc        1 DQ1      0.165000
     55 H19        -4.0240   -0.6590    3.6720 ha        1 DQ1      0.176000
     56 H21        -2.6390    0.2700    1.7960 ha        1 DQ1      0.154000
     57 H22        -0.1390   -2.5580    2.8160 hc        1 DQ1      0.153000
     58 N3          0.6360   -1.5640   -1.3780 n8        1 DQ1     -0.324000
@<TRIPOS>BOND
     1    1    2 1   
     2    1    4 1   
     3    1    5 1   
     4    2   20 1   
     5    3   12 1   
     6    3   24 1   
     7    4   28 1   
     8    4   30 1   
     9    4   57 1   
    10    5   31 1   
    11    6   23 1   
    12    6   41 1   
    13    7    9 1   
    14    7   27 1   
    15    7   30 1   
    16    8   17 1   
    17    9   10 1   
    18    9   36 1   
    19    9   37 1   
    20   10   21 1   
    21   10   35 1   
    22   11   17 1   
    23   11   19 1   
    24   12   38 1   
    25   12   39 1   
    26   12   40 1   
    27   13   20 1   
    28   13   28 1   
    29   14   15 1   
    30   14   16 1   
    31   14   42 1   
    32   14   43 1   
    33   15   16 1   
    34   15   44 1   
    35   15   45 1   
    36   16   17 1   
    37   16   46 1   
    38   18   19 1   
    39   18   48 1   
    40   18   49 1   
    41   18   50 1   
    42   19   32 1   
    43   19   51 1   
    44   20   58 1   
    45   21   22 1   
    46   21   26 1   
    47   22   23 1   
    48   22   52 1   
    49   23   24 1   
    50   24   25 1   
    51   25   26 1   
    52   25   53 1   
    53   25   54 1   
    54   27   29 1   
    55   27   55 1   
    56   28   29 1   
    57   29   56 1   
    58   30   47 1   
    59   33   58 1   
    60   34   58 1   
@<TRIPOS>SUBSTRUCTURE
     1 DQ1         1 TEMP              0 ****  ****    0 ROOT
