@<TRIPOS>MOLECULE
DQ6
   52    54     1     0     0
SMALL
bcc


@<TRIPOS>ATOM
      1 CAA         0.5410   -0.7350   -0.4820 c3        1 DQ6     -0.054800
      2 CAV         1.8830   -0.1330   -0.3030 ca        1 DQ6     -0.076300
      3 CAR         2.5360   -0.2130    0.9300 ca        1 DQ6     -0.130000
      4 CAL         2.5110    0.5150   -1.3730 ca        1 DQ6     -0.127000
      5 CAK         3.7720    1.0780   -1.1970 ca        1 DQ6     -0.124000
      6 CAQ         4.4180    0.9960    0.0360 ca        1 DQ6     -0.124000
      7 CAY         3.8130    0.3370    1.1130 ca        1 DQ6     -0.076300
      8 CBA         4.4930    0.2670    2.4710 c3        1 DQ6      0.096900
      9 CAX         4.0290   -0.9550    3.2370 ca        1 DQ6     -0.080800
     10 CAO         3.7350   -0.9000    4.6050 ca        1 DQ6     -0.135500
     11 CAI         3.3710   -2.0550    5.3000 ca        1 DQ6     -0.138750
     12 CAF         3.2980   -3.2800    4.6390 ca        1 DQ6     -0.134500
     13 CAJ         3.5890   -3.3470    3.2760 ca        1 DQ6     -0.138750
     14 CAP         3.9540   -2.1950    2.5810 ca        1 DQ6     -0.135500
     15 CAT         6.0150    0.1020    2.2660 c3        1 DQ6     -0.082400
     16 CB          6.8210   -0.0930    3.5360 c3        1 DQ6     -0.099400
     17 CA          7.5350   -1.4290    3.6140 c3        1 DQ6     -0.069500
     18 C           8.7080   -1.3800    4.7130 c         1 DQ6      0.934600
     19 OXT         9.4070   -0.3540    4.7030 o         1 DQ6     -0.762800
     20 O           8.7890   -2.4090    5.4340 o         1 DQ6     -0.762800
     21 N           6.6260   -2.5690    3.9330 n4        1 DQ6     -0.832600
     22 CAW         4.1360    1.5430    3.2030 ca        1 DQ6     -0.080800
     23 CAM         2.7840    1.7970    3.4880 ca        1 DQ6     -0.135500
     24 CAG         2.3970    2.9700    4.1300 ca        1 DQ6     -0.138750
     25 CAE         3.3560    3.9140    4.4980 ca        1 DQ6     -0.134500
     26 CAH         4.6990    3.6750    4.2170 ca        1 DQ6     -0.138750
     27 CAN         5.0880    2.4980    3.5720 ca        1 DQ6     -0.135500
     28 HAA1       -0.0970   -0.0910   -1.1370 hc        1 DQ6      0.045700
     29 HAA2        0.6350   -1.7400   -0.9660 hc        1 DQ6      0.045700
     30 HAA3        0.0220   -0.8650    0.4990 hc        1 DQ6      0.045700
     31 HAR         2.0270   -0.7160    1.7680 ha        1 DQ6      0.137000
     32 HAL         2.0040    0.5840   -2.3470 ha        1 DQ6      0.135000
     33 HAK         4.2620    1.5980   -2.0340 ha        1 DQ6      0.135000
     34 HAQ         5.4030    1.4730    0.1440 ha        1 DQ6      0.136000
     35 HAT1        6.1660   -0.7670    1.5700 hc        1 DQ6      0.050700
     36 HAT2        6.4090    1.0110    1.7390 hc        1 DQ6      0.050700
     37 HAO         3.7810    0.0630    5.1410 ha        1 DQ6      0.148000
     38 HAP         4.1590   -2.2470    1.4990 ha        1 DQ6      0.148000
     39 HAI         3.1340   -1.9930    6.3730 ha        1 DQ6      0.140500
     40 HAF         2.9980   -4.1870    5.1850 ha        1 DQ6      0.140000
     41 HAJ         3.5100   -4.3060    2.7420 ha        1 DQ6      0.140500
     42 HB1C        7.6450    0.6790    3.5870 hc        1 DQ6      0.089200
     43 HB2C        6.1790    0.0710    4.4420 hc        1 DQ6      0.089200
     44 HA          8.0390   -1.6630    2.6350 hx        1 DQ6      0.085700
     45 HN1         5.8370   -2.2430    4.4980 hn        1 DQ6      0.446133
     46 HN2         7.1890   -3.2390    4.5010 hn        1 DQ6      0.446133
     47 HAM         2.0220    1.0590    3.1920 ha        1 DQ6      0.148000
     48 HAN         6.1580    2.3460    3.3670 ha        1 DQ6      0.148000
     49 HAG         1.3340    3.1520    4.3430 ha        1 DQ6      0.140500
     50 HAE         3.0530    4.8420    5.0040 ha        1 DQ6      0.140000
     51 HAH         5.4630    4.4130    4.5030 ha        1 DQ6      0.140500
     52 HN3         6.2640   -3.0140    3.0940 hn        1 DQ6      0.446133
@<TRIPOS>BOND
     1    1    2 1   
     2    1   28 1   
     3    1   29 1   
     4    1   30 1   
     5    2    3 ar  
     6    2    4 ar  
     7    3    7 ar  
     8    3   31 1   
     9    4    5 ar  
    10    4   32 1   
    11    5    6 ar  
    12    5   33 1   
    13    6    7 ar  
    14    6   34 1   
    15    7    8 1   
    16    8    9 1   
    17    8   15 1   
    18    8   22 1   
    19    9   10 ar  
    20    9   14 ar  
    21   10   11 ar  
    22   10   37 1   
    23   11   12 ar  
    24   11   39 1   
    25   12   13 ar  
    26   12   40 1   
    27   13   14 ar  
    28   13   41 1   
    29   14   38 1   
    30   15   16 1   
    31   15   35 1   
    32   15   36 1   
    33   16   17 1   
    34   16   42 1   
    35   16   43 1   
    36   17   18 1   
    37   17   21 1   
    38   17   44 1   
    39   18   19 1   
    40   18   20 1   
    41   21   45 1   
    42   21   46 1   
    43   21   52 1   
    44   22   23 ar  
    45   22   27 ar  
    46   23   24 ar  
    47   23   47 1   
    48   24   25 ar  
    49   24   49 1   
    50   25   26 ar  
    51   25   50 1   
    52   26   27 ar  
    53   26   51 1   
    54   27   48 1   
@<TRIPOS>SUBSTRUCTURE
     1 DQ6         1 TEMP              0 ****  ****    0 ROOT
