@<TRIPOS>MOLECULE
DQ6
   51    53     1     0     0
SMALL
bcc


@<TRIPOS>ATOM
      1 CAA         5.3260   -0.8610   -0.3680 c3        1 DQ6     -0.046800
      2 CAV         4.1450   -0.7470    0.5190 ca        1 DQ6     -0.089300
      3 CAR         2.9020   -0.3960   -0.0150 ca        1 DQ6     -0.123000
      4 CAL         4.2570   -1.0010    1.8910 ca        1 DQ6     -0.140000
      5 CAK         3.1330   -0.8970    2.7040 ca        1 DQ6     -0.137000
      6 CAQ         1.8950   -0.5470    2.1660 ca        1 DQ6     -0.124000
      7 CAY         1.7610   -0.2970    0.7940 ca        1 DQ6     -0.054300
      8 CBA         0.4280    0.0790    0.1630 c3        1 DQ6      0.086900
      9 CAX         0.2770   -0.7680   -1.0850 ca        1 DQ6     -0.060300
     10 CAO         0.6830   -0.2900   -2.3390 ca        1 DQ6     -0.119500
     11 CAI         0.5790   -1.0890   -3.4770 ca        1 DQ6     -0.136750
     12 CAF         0.0710   -2.3820   -3.3810 ca        1 DQ6     -0.139500
     13 CAJ        -0.3340   -2.8700   -2.1400 ca        1 DQ6     -0.136750
     14 CAP        -0.2320   -2.0720   -1.0010 ca        1 DQ6     -0.119500
     15 CAT        -0.7220   -0.1900    1.1580 c3        1 DQ6     -0.069400
     16 CB         -2.1160   -0.0600    0.5850 c3        1 DQ6     -0.072400
     17 CA         -3.1760   -0.6190    1.5380 c3        1 DQ6      0.016500
     18 C          -4.5800   -0.1060    1.0680 c         1 DQ6      0.888600
     19 OXT        -4.7070    1.1290    0.8430 o         1 DQ6     -0.842300
     20 O          -5.5130   -0.9530    0.9610 o         1 DQ6     -0.842300
     21 N          -3.0940   -2.0650    1.7050 n3        1 DQ6     -0.896800
     22 CAW         0.4130    1.5600   -0.1570 ca        1 DQ6     -0.060300
     23 CAM         1.3040    2.4450    0.4600 ca        1 DQ6     -0.119500
     24 CAG         1.2500    3.8130    0.1910 ca        1 DQ6     -0.136750
     25 CAE         0.2970    4.3170   -0.6920 ca        1 DQ6     -0.139500
     26 CAH        -0.6030    3.4450   -1.3040 ca        1 DQ6     -0.136750
     27 CAN        -0.5460    2.0790   -1.0400 ca        1 DQ6     -0.119500
     28 HAA1        5.3400   -0.0300   -1.1160 hc        1 DQ6      0.037367
     29 HAA2        6.2770   -0.8260    0.2180 hc        1 DQ6      0.037367
     30 HAA3        5.2920   -1.8310   -0.9260 hc        1 DQ6      0.037367
     31 HAR         2.8210   -0.1950   -1.0950 ha        1 DQ6      0.139000
     32 HAL         5.2290   -1.2800    2.3210 ha        1 DQ6      0.119000
     33 HAK         3.2180   -1.0940    3.7830 ha        1 DQ6      0.123000
     34 HAQ         1.0300   -0.4710    2.8430 ha        1 DQ6      0.148000
     35 HAT1       -0.5860   -1.2190    1.5840 hc        1 DQ6      0.047700
     36 HAT2       -0.6230    0.5410    2.0050 hc        1 DQ6      0.047700
     37 HAO         1.0840    0.7320   -2.4340 ha        1 DQ6      0.145750
     38 HAP        -0.5770   -2.4720   -0.0330 ha        1 DQ6      0.145750
     39 HAI         0.8950   -0.6920   -4.4520 ha        1 DQ6      0.123750
     40 HAF        -0.0170   -3.0110   -4.2780 ha        1 DQ6      0.119000
     41 HAJ        -0.7470   -3.8860   -2.0550 ha        1 DQ6      0.123750
     42 HB1C       -2.3680    1.0240    0.4190 hc        1 DQ6      0.055700
     43 HB2C       -2.1840   -0.5780   -0.4070 hc        1 DQ6      0.055700
     44 HA         -3.0020   -0.1690    2.5590 h1        1 DQ6      0.040700
     45 HN1        -3.9390   -2.3570    2.1710 hn        1 DQ6      0.331300
     46 HN2        -3.1170   -2.4900    0.7940 hn        1 DQ6      0.331300
     47 HAM         2.0540    2.0680    1.1720 ha        1 DQ6      0.145750
     48 HAN        -1.2720    1.3970   -1.5160 ha        1 DQ6      0.145750
     49 HAG         1.9570    4.4930    0.6860 ha        1 DQ6      0.123750
     50 HAE         0.2480    5.3950   -0.8970 ha        1 DQ6      0.119000
     51 HAH        -1.3730    3.8350   -1.9850 ha        1 DQ6      0.123750
@<TRIPOS>BOND
     1    1    2 1   
     2    1   28 1   
     3    1   29 1   
     4    1   30 1   
     5    2    3 ar  
     6    2    4 ar  
     7    3    7 ar  
     8    3   31 1   
     9    4    5 ar  
    10    4   32 1   
    11    5    6 ar  
    12    5   33 1   
    13    6    7 ar  
    14    6   34 1   
    15    7    8 1   
    16    8    9 1   
    17    8   15 1   
    18    8   22 1   
    19    9   10 ar  
    20    9   14 ar  
    21   10   11 ar  
    22   10   37 1   
    23   11   12 ar  
    24   11   39 1   
    25   12   13 ar  
    26   12   40 1   
    27   13   14 ar  
    28   13   41 1   
    29   14   38 1   
    30   15   16 1   
    31   15   35 1   
    32   15   36 1   
    33   16   17 1   
    34   16   42 1   
    35   16   43 1   
    36   17   18 1   
    37   17   21 1   
    38   17   44 1   
    39   18   19 1   
    40   18   20 1   
    41   21   45 1   
    42   21   46 1   
    43   22   23 ar  
    44   22   27 ar  
    45   23   24 ar  
    46   23   47 1   
    47   24   25 ar  
    48   24   49 1   
    49   25   26 ar  
    50   25   50 1   
    51   26   27 ar  
    52   26   51 1   
    53   27   48 1   
@<TRIPOS>SUBSTRUCTURE
     1 DQ6         1 TEMP              0 ****  ****    0 ROOT
