@<TRIPOS>MOLECULE
DQ6
   52    54     1     0     0
SMALL
bcc


@<TRIPOS>ATOM
      1 CAA         0.5010   -0.7650   -0.4280 c3        1 DQ6     -0.054800
      2 CAV         1.8420   -0.1570   -0.2690 ca        1 DQ6     -0.076300
      3 CAR         2.5130   -0.2290    0.9560 ca        1 DQ6     -0.130000
      4 CAL         2.4510    0.4910   -1.3490 ca        1 DQ6     -0.127000
      5 CAK         3.7110    1.0620   -1.1930 ca        1 DQ6     -0.124000
      6 CAQ         4.3740    0.9880    0.0320 ca        1 DQ6     -0.124000
      7 CAY         3.7880    0.3290    1.1190 ca        1 DQ6     -0.076300
      8 CBA         4.4880    0.2670    2.4670 c3        1 DQ6      0.096900
      9 CAX         4.0420   -0.9560    3.2440 ca        1 DQ6     -0.080800
     10 CAO         3.7670   -0.8980    4.6160 ca        1 DQ6     -0.135500
     11 CAI         3.4200   -2.0530    5.3190 ca        1 DQ6     -0.138750
     12 CAF         3.3440   -3.2800    4.6630 ca        1 DQ6     -0.134500
     13 CAJ         3.6170   -3.3490    3.2960 ca        1 DQ6     -0.138750
     14 CAP         3.9650   -2.1980    2.5920 ca        1 DQ6     -0.135500
     15 CAT         6.0080    0.1100    2.2420 c3        1 DQ6     -0.082400
     16 CB          6.8330   -0.0760    3.5020 c3        1 DQ6     -0.099400
     17 CA          7.5550   -1.4070    3.5730 c3        1 DQ6     -0.069500
     18 C           8.7430   -1.3480    4.6560 c         1 DQ6      0.934600
     19 OXT         9.4360   -0.3180    4.6330 o         1 DQ6     -0.762800
     20 O           8.8400   -2.3740    5.3790 o         1 DQ6     -0.762800
     21 N           6.6570   -2.5520    3.9090 n4        1 DQ6     -0.832600
     22 CAW         4.1330    1.5430    3.2010 ca        1 DQ6     -0.080800
     23 CAM         2.7840    1.7900    3.5040 ca        1 DQ6     -0.135500
     24 CAG         2.3990    2.9620    4.1480 ca        1 DQ6     -0.138750
     25 CAE         3.3570    3.9140    4.5000 ca        1 DQ6     -0.134500
     26 CAH         4.6970    3.6810    4.2010 ca        1 DQ6     -0.138750
     27 CAN         5.0840    2.5060    3.5540 ca        1 DQ6     -0.135500
     28 HAA1       -0.1660   -0.0980   -1.0290 hc        1 DQ6      0.045367
     29 HAA2        0.0170   -0.9470    0.5630 hc        1 DQ6      0.045367
     30 HAA3        0.5860   -1.7450   -0.9630 hc        1 DQ6      0.045367
     31 HAR         2.0180   -0.7320    1.8030 ha        1 DQ6      0.137000
     32 HAL         1.9300    0.5530   -2.3160 ha        1 DQ6      0.135000
     33 HAK         4.1870    1.5820   -2.0380 ha        1 DQ6      0.135000
     34 HAQ         5.3580    1.4710    0.1250 ha        1 DQ6      0.136000
     35 HAT1        6.1540   -0.7590    1.5470 hc        1 DQ6      0.050700
     36 HAT2        6.3890    1.0200    1.7070 hc        1 DQ6      0.050700
     37 HAO         3.8140    0.0670    5.1480 ha        1 DQ6      0.148000
     38 HAP         4.1550   -2.2520    1.5080 ha        1 DQ6      0.148000
     39 HAI         3.1970   -1.9890    6.3950 ha        1 DQ6      0.140500
     40 HAF         3.0570   -4.1880    5.2160 ha        1 DQ6      0.140000
     41 HAJ         3.5350   -4.3110    2.7660 ha        1 DQ6      0.140500
     42 HB1C        6.2020    0.0870    4.4160 hc        1 DQ6      0.089200
     43 HB2C        7.6520    0.7010    3.5380 hc        1 DQ6      0.089200
     44 HA          8.0470   -1.6410    2.5880 hx        1 DQ6      0.085700
     45 HN1         7.2330   -3.2160    4.4700 hn        1 DQ6      0.446133
     46 HN2         6.2870   -3.0020    3.0760 hn        1 DQ6      0.446133
     47 HAM         2.0220    1.0460    3.2210 ha        1 DQ6      0.148000
     48 HAN         6.1520    2.3590    3.3350 ha        1 DQ6      0.148000
     49 HAG         1.3370    3.1390    4.3750 ha        1 DQ6      0.140500
     50 HAE         3.0550    4.8410    5.0070 ha        1 DQ6      0.140000
     51 HAH         5.4600    4.4250    4.4740 ha        1 DQ6      0.140500
     52 HN3         5.8740   -2.2290    4.4840 hn        1 DQ6      0.446133
@<TRIPOS>BOND
     1    1    2 1   
     2    1   28 1   
     3    1   29 1   
     4    1   30 1   
     5    2    3 ar  
     6    2    4 ar  
     7    3    7 ar  
     8    3   31 1   
     9    4    5 ar  
    10    4   32 1   
    11    5    6 ar  
    12    5   33 1   
    13    6    7 ar  
    14    6   34 1   
    15    7    8 1   
    16    8    9 1   
    17    8   15 1   
    18    8   22 1   
    19    9   10 ar  
    20    9   14 ar  
    21   10   11 ar  
    22   10   37 1   
    23   11   12 ar  
    24   11   39 1   
    25   12   13 ar  
    26   12   40 1   
    27   13   14 ar  
    28   13   41 1   
    29   14   38 1   
    30   15   16 1   
    31   15   35 1   
    32   15   36 1   
    33   16   17 1   
    34   16   42 1   
    35   16   43 1   
    36   17   18 1   
    37   17   21 1   
    38   17   44 1   
    39   18   19 1   
    40   18   20 1   
    41   21   45 1   
    42   21   46 1   
    43   21   52 1   
    44   22   23 ar  
    45   22   27 ar  
    46   23   24 ar  
    47   23   47 1   
    48   24   25 ar  
    49   24   49 1   
    50   25   26 ar  
    51   25   50 1   
    52   26   27 ar  
    53   26   51 1   
    54   27   48 1   
@<TRIPOS>SUBSTRUCTURE
     1 DQ6         1 TEMP              0 ****  ****    0 ROOT
