@<TRIPOS>MOLECULE
DQ6
   51    47     1     0     0
SMALL
bcc


@<TRIPOS>ATOM
      1 CAA        -0.3660    0.4120   -4.5800 c3        1 DQ6     -0.196000
      2 CAV        -1.0370   -0.0320   -3.3000 c2        1 DQ6     -0.058000
      3 CAR        -0.3350   -0.0070   -2.1050 c2        1 DQ6     -0.103000
      4 CAL        -2.3710   -0.4110   -3.3120 c1        1 DQ6     -0.147000
      5 CAK        -3.0020   -0.7640   -2.1290 c1        1 DQ6     -0.143833
      6 CAQ        -2.3000   -0.7380   -0.9340 c1        1 DQ6     -0.143833
      7 CAY        -0.9660   -0.3600   -0.9220 c1        1 DQ6     -0.069000
      8 CBA        -0.1850   -0.3880    0.3720 c3        1 DQ6      0.070000
      9 CAX        -0.7240   -1.4840    1.2620 c2        1 DQ6     -0.046500
     10 CAO        -1.4240   -1.1610    2.4140 c1        1 DQ6     -0.124000
     11 CAI        -1.9170   -2.1660    3.2300 c1        1 DQ6     -0.143833
     12 CAF        -1.7110   -3.4950    2.8950 c1        1 DQ6     -0.143833
     13 CAJ        -1.0110   -3.8190    1.7430 c1        1 DQ6     -0.139000
     14 CAP        -0.5170   -2.8130    0.9270 c2        1 DQ6     -0.119000
     15 CAT         1.2760   -0.6520    0.0740 c3        1 DQ6     -0.164000
     16 CB          2.0290    0.6590    0.0390 c3        1 DQ6     -0.141000
     17 CA          3.4480    0.4130   -0.4220 c3        1 DQ6     -0.120000
     18 C           3.6200    0.9430   -1.8260 c2        1 DQ6      0.294000
     19 OXT         3.9410    0.1610   -2.7590 o         1 DQ6     -0.582000
     20 O           3.4810    2.1730   -2.0560 o         1 DQ6     -0.582000
     21 N           4.3520    1.0790    0.4500 n3        1 DQ6     -0.320000
     22 CAW        -0.3230    0.9450    1.0740 c2        1 DQ6     -0.046500
     23 CAM         0.0230    1.0600    2.4110 c2        1 DQ6     -0.119000
     24 CAG        -0.2090    2.2480    3.0870 c1        1 DQ6     -0.139000
     25 CAE        -0.7850    3.3200    2.4260 c1        1 DQ6     -0.143833
     26 CAH        -1.1310    3.2050    1.0890 c1        1 DQ6     -0.143833
     27 CAN        -0.9000    2.0170    0.4130 c1        1 DQ6     -0.124000
     28 HAA1        0.1860   -0.3190   -4.9300 hc        1 DQ6      0.094667
     29 HAA2        0.2000    1.1920   -4.3990 hc        1 DQ6      0.094667
     30 HAA3       -1.0490    0.6500   -5.2410 hc        1 DQ6      0.094667
     31 HAR         0.6100    0.2370   -2.0990 ha        1 DQ6      0.203000
     32 HAL        -2.8590   -0.4500   -4.1560 ha        1 DQ6      0.115000
     33 HAK        -3.9360   -1.0450   -2.1400 ha        1 DQ6      0.117000
     34 HAQ        -2.7460   -0.9800   -0.1010 ha        1 DQ6      0.117000
     35 HAT1        1.3560   -1.0970   -0.7940 hc        1 DQ6      0.108000
     36 HAT2        1.6520   -1.2260    0.7710 hc        1 DQ6      0.108000
     37 HAO        -1.5690   -0.2250    2.6500 ha        1 DQ6      0.142500
     38 HAP        -0.0420   -3.0410    0.1050 ha        1 DQ6      0.150500
     39 HAI        -2.4230   -1.9380    4.0340 ha        1 DQ6      0.117000
     40 HAF        -2.0590   -4.2030    3.4700 ha        1 DQ6      0.117000
     41 HAJ        -0.8660   -4.7550    1.5070 ha        1 DQ6      0.121500
     42 HB1C        2.0410    1.0520    0.9350 hc        1 DQ6      0.076500
     43 HB2C        1.5870    1.2730   -0.5800 hc        1 DQ6      0.076500
     44 HA          3.6320   -0.5470   -0.4110 h1        1 DQ6      0.085000
     45 HN1         4.5430    0.5380    1.1640 hn        1 DQ6      0.126500
     46 HN2         3.9710    1.8560    0.7500 hn        1 DQ6      0.126500
     47 HAM         0.4290    0.3050    2.8770 ha        1 DQ6      0.150500
     48 HAN        -1.1350    1.9400   -0.5320 ha        1 DQ6      0.142500
     49 HAG         0.0350    2.3300    4.0290 ha        1 DQ6      0.121500
     50 HAE        -0.9480    4.1570    2.9020 ha        1 DQ6      0.117000
     51 HAH        -1.5660    3.9500    0.6320 ha        1 DQ6      0.117000
@<TRIPOS>BOND
     1    1    2 1   
     2    1   28 1   
     3    1   29 1   
     4    1   30 1   
     5    2    3 1   
     6    2    4 1   
     7    3    7 1   
     8    3   31 1   
     9    4   32 1   
    10    5    6 1   
    11    5   33 1   
    12    6   34 1   
    13    7    8 1   
    14    8    9 1   
    15    8   15 1   
    16    8   22 1   
    17    9   10 1   
    18    9   14 1   
    19   10   37 1   
    20   11   12 1   
    21   11   39 1   
    22   12   40 1   
    23   13   14 1   
    24   13   41 1   
    25   14   38 1   
    26   15   16 1   
    27   15   35 1   
    28   15   36 1   
    29   16   17 1   
    30   16   42 1   
    31   16   43 1   
    32   17   18 1   
    33   17   21 1   
    34   17   44 1   
    35   18   19 1   
    36   18   20 1   
    37   21   45 1   
    38   21   46 1   
    39   22   23 1   
    40   22   27 1   
    41   23   24 1   
    42   23   47 1   
    43   24   49 1   
    44   25   26 1   
    45   25   50 1   
    46   26   51 1   
    47   27   48 1   
@<TRIPOS>SUBSTRUCTURE
     1 DQ6         1 TEMP              0 ****  ****    0 ROOT
