@<TRIPOS>MOLECULE
DQ6
   52    54     1     0     0
SMALL
bcc


@<TRIPOS>ATOM
      1 CAA         0.5070   -0.7690   -0.4350 c3        1 DQ6     -0.054800
      2 CAV         1.8480   -0.1600   -0.2740 ca        1 DQ6     -0.076300
      3 CAR         2.5160   -0.2310    0.9520 ca        1 DQ6     -0.130000
      4 CAL         2.4600    0.4860   -1.3540 ca        1 DQ6     -0.127000
      5 CAK         3.7190    1.0570   -1.1960 ca        1 DQ6     -0.124000
      6 CAQ         4.3800    0.9840    0.0300 ca        1 DQ6     -0.124000
      7 CAY         3.7920    0.3270    1.1170 ca        1 DQ6     -0.076300
      8 CBA         4.4890    0.2670    2.4670 c3        1 DQ6      0.096900
      9 CAX         4.0400   -0.9540    3.2440 ca        1 DQ6     -0.080800
     10 CAO         3.7620   -0.8940    4.6160 ca        1 DQ6     -0.135500
     11 CAI         3.4130   -2.0480    5.3200 ca        1 DQ6     -0.138750
     12 CAF         3.3380   -3.2770    4.6650 ca        1 DQ6     -0.134500
     13 CAJ         3.6140   -3.3480    3.2990 ca        1 DQ6     -0.138750
     14 CAP         3.9640   -2.1980    2.5950 ca        1 DQ6     -0.135500
     15 CAT         6.0080    0.1090    2.2450 c3        1 DQ6     -0.082400
     16 CB          6.8310   -0.0760    3.5060 c3        1 DQ6     -0.099400
     17 CA          7.5530   -1.4080    3.5820 c3        1 DQ6     -0.069500
     18 C           8.7380   -1.3470    4.6670 c         1 DQ6      0.934600
     19 OXT         9.4320   -0.3180    4.6440 o         1 DQ6     -0.762800
     20 O           8.8330   -2.3730    5.3920 o         1 DQ6     -0.762800
     21 N           6.6530   -2.5510    3.9170 nz        1 DQ6     -0.832600
     22 CAW         4.1330    1.5440    3.1980 ca        1 DQ6     -0.080800
     23 CAM         2.7830    1.7920    3.4980 ca        1 DQ6     -0.135500
     24 CAG         2.3980    2.9660    4.1390 ca        1 DQ6     -0.138750
     25 CAE         3.3560    3.9170    4.4910 ca        1 DQ6     -0.134500
     26 CAH         4.6960    3.6830    4.1960 ca        1 DQ6     -0.138750
     27 CAN         5.0840    2.5070    3.5510 ca        1 DQ6     -0.135500
     28 HAA1        0.0080   -0.9170    0.5540 hc        1 DQ6      0.045367
     29 HAA2        0.5980   -1.7660   -0.9340 hc        1 DQ6      0.045367
     30 HAA3       -0.1480   -0.1200   -1.0680 hc        1 DQ6      0.045367
     31 HAR         2.0200   -0.7330    1.7980 ha        1 DQ6      0.137000
     32 HAL         1.9410    0.5470   -2.3220 ha        1 DQ6      0.135000
     33 HAK         4.1970    1.5760   -2.0410 ha        1 DQ6      0.135000
     34 HAQ         5.3640    1.4670    0.1250 ha        1 DQ6      0.136000
     35 HAT1        6.1560   -0.7620    1.5520 hc        1 DQ6      0.050700
     36 HAT2        6.3920    1.0170    1.7090 hc        1 DQ6      0.050700
     37 HAO         3.8090    0.0710    5.1460 ha        1 DQ6      0.148000
     38 HAP         4.1560   -2.2540    1.5110 ha        1 DQ6      0.148000
     39 HAI         3.1880   -1.9820    6.3960 ha        1 DQ6      0.140500
     40 HAF         3.0490   -4.1830    5.2190 ha        1 DQ6      0.140000
     41 HAJ         3.5330   -4.3100    2.7710 ha        1 DQ6      0.140500
     42 HB1C        6.1980    0.0880    4.4190 hc        1 DQ6      0.089200
     43 HB2C        7.6510    0.7010    3.5440 hc        1 DQ6      0.089200
     44 HA          8.0470   -1.6430    2.5980 hx        1 DQ6      0.085700
     45 HN1         5.8690   -2.2270    4.4900 hn        1 DQ6      0.446133
     46 HN2         7.2270   -3.2150    4.4810 hn        1 DQ6      0.446133
     47 HAM         2.0220    1.0490    3.2140 ha        1 DQ6      0.148000
     48 HAN         6.1520    2.3590    3.3340 ha        1 DQ6      0.148000
     49 HAG         1.3360    3.1440    4.3640 ha        1 DQ6      0.140500
     50 HAE         3.0530    4.8460    4.9970 ha        1 DQ6      0.140000
     51 HAH         5.4600    4.4270    4.4690 ha        1 DQ6      0.140500
     52 HN3         6.2840   -3.0020    3.0840 hn        1 DQ6      0.446133
@<TRIPOS>BOND
     1    1    2 1   
     2    1   28 1   
     3    1   29 1   
     4    1   30 1   
     5    2    3 ar  
     6    2    4 ar  
     7    3    7 ar  
     8    3   31 1   
     9    4    5 ar  
    10    4   32 1   
    11    5    6 ar  
    12    5   33 1   
    13    6    7 ar  
    14    6   34 1   
    15    7    8 1   
    16    8    9 1   
    17    8   15 1   
    18    8   22 1   
    19    9   10 ar  
    20    9   14 ar  
    21   10   11 ar  
    22   10   37 1   
    23   11   12 ar  
    24   11   39 1   
    25   12   13 ar  
    26   12   40 1   
    27   13   14 ar  
    28   13   41 1   
    29   14   38 1   
    30   15   16 1   
    31   15   35 1   
    32   15   36 1   
    33   16   17 1   
    34   16   42 1   
    35   16   43 1   
    36   17   18 1   
    37   17   21 1   
    38   17   44 1   
    39   18   19 1   
    40   18   20 1   
    41   21   45 1   
    42   21   46 1   
    43   21   52 1   
    44   22   23 ar  
    45   22   27 ar  
    46   23   24 ar  
    47   23   47 1   
    48   24   25 ar  
    49   24   49 1   
    50   25   26 ar  
    51   25   50 1   
    52   26   27 ar  
    53   26   51 1   
    54   27   48 1   
@<TRIPOS>SUBSTRUCTURE
     1 DQ6         1 TEMP              0 ****  ****    0 ROOT
