@<TRIPOS>MOLECULE
DQ7
   52    54     1     0     0
SMALL
bcc


@<TRIPOS>ATOM
      1 N           1.9500    1.2000    1.8950 n4        1 DQ7     -0.064000
      2 CA          2.5260    1.7370    0.6250 c3        1 DQ7     -0.207000
      3 CB          2.9670    0.6480   -0.3250 c3        1 DQ7     -0.226000
      4 C           3.7500    2.6990    0.9800 c2        1 DQ7      0.345000
      5 OXT         4.4910    3.0190    0.0330 o         1 DQ7     -0.507000
      6 O           3.8330    3.0360    2.1920 o         1 DQ7     -0.507000
      7 CAO         1.2440   -4.3560    4.6310 cv        1 DQ7     -0.067000
      8 CAW         0.7020   -5.4760    5.3380 c2        1 DQ7     -0.107000
      9 CAP         0.4690   -5.3110    6.6630 c2        1 DQ7     -0.113000
     10 CAJ         0.7710   -4.0620    7.3410 c2        1 DQ7     -0.130000
     11 CAE         1.4580   -3.0600    6.7500 c2        1 DQ7     -0.118000
     12 CAI         1.9730   -3.2500    5.3950 cy        1 DQ7     -0.040000
     13 CAF         1.5070   -0.0080    4.6460 ca        1 DQ7     -0.136500
     14 CAL         0.7750    1.1790    4.6550 ca        1 DQ7     -0.152000
     15 CAR        -0.4410    1.2580    3.9730 ca        1 DQ7     -0.153000
     16 CAX        -0.9190    0.1450    3.2800 ca        1 DQ7     -0.152000
     17 CAQ        -0.1910   -1.0440    3.2730 ca        1 DQ7     -0.136500
     18 CAK         1.0290   -1.1350    3.9580 ca        1 DQ7     -0.045000
     19 CAN         3.5000   -3.1480    5.1560 cy        1 DQ7     -0.105000
     20 CAH         5.8610    0.3930    2.3950 c2        1 DQ7     -0.268000
     21 CAD         6.4050   -0.8630    2.7400 c1        1 DQ7     -0.099000
     22 CAG         5.5970   -2.0370    3.0190 c3        1 DQ7     -0.166000
     23 CAM         4.1170   -1.9200    2.9450 c2        1 DQ7     -0.154000
     24 CAV         3.2870   -2.3850    3.8680 cv        1 DQ7     -0.130000
     25 CAT         1.1330   -3.6740    3.4630 cv        1 DQ7     -0.143000
     26 CAZ         1.7800   -2.3910    3.9950 cy        1 DQ7     -0.001000
     27 HN1         2.1040    0.0500   -0.7020 hc        1 DQ7      0.099000
     28 HN2         2.2290    1.8600    2.6540 hn        1 DQ7      0.243333
     29 HA          0.9340    1.1210    1.8620 hn        1 DQ7      0.243333
     30 HB1C        1.7400    2.3840    0.1450 hx        1 DQ7      0.127000
     31 HB2C        3.7090   -0.0360    0.1540 hc        1 DQ7      0.099000
     32 HAT1        3.4750    1.1510   -1.1900 hc        1 DQ7      0.099000
     33 HAT2        0.7740   -3.8920    2.4680 ha        1 DQ7      0.156000
     34 HAD         5.9100   -2.4060    4.0400 hc        1 DQ7      0.136500
     35 HAN         4.7650    0.5660    2.3880 ha        1 DQ7      0.076000
     36 HAA1        4.0040   -4.1310    5.0290 hc        1 DQ7      0.109000
     37 HAA2        7.7580    1.3380    2.0590 ha        1 DQ7      0.144000
     38 HAA3        6.2360    2.4090    1.7800 ha        1 DQ7      0.144000
     39 HAF         4.0180   -2.5540    5.9420 hc        1 DQ7      0.109000
     40 HAL         2.4590   -0.0740    5.1970 ha        1 DQ7      0.153500
     41 HAR         1.1510    2.0500    5.2150 ha        1 DQ7      0.149500
     42 HAX        -1.0280    2.1880    3.9990 ha        1 DQ7      0.147000
     43 HAQ        -1.8860    0.1970    2.7570 ha        1 DQ7      0.149500
     44 HAE        -0.5880   -1.9270    2.7460 ha        1 DQ7      0.153500
     45 HAJ         1.6930   -2.1190    7.2670 ha        1 DQ7      0.136000
     46 HAP         0.4140   -3.9660    8.3780 ha        1 DQ7      0.133000
     47 HAW         0.0290   -6.1160    7.2700 ha        1 DQ7      0.135000
     48 HAO         0.4670   -6.4040    4.7990 ha        1 DQ7      0.141000
     49 CAA         6.6610    1.4290    2.0680 c2        1 DQ7      0.012000
     50 HAM         3.7310   -1.4130    2.0440 ha        1 DQ7      0.106000
     51 HN3         2.3490    0.2840    2.1150 hn        1 DQ7      0.243333
     52 HAG         5.9330   -2.8290    2.2830 hc        1 DQ7      0.136500
@<TRIPOS>BOND
     1    1    2 1   
     2    1   28 1   
     3    1   29 1   
     4    1   51 1   
     5    2    3 1   
     6    2    4 1   
     7    2   30 1   
     8    3   27 1   
     9    3   31 1   
    10    3   32 1   
    11    4    5 1   
    12    4    6 1   
    13    7    8 1   
    14    7   12 1   
    15    7   25 1   
    16    8    9 1   
    17    8   48 1   
    18    9   10 1   
    19    9   47 1   
    20   10   11 1   
    21   10   46 1   
    22   11   12 1   
    23   11   45 1   
    24   12   19 1   
    25   12   26 1   
    26   13   14 1   
    27   13   18 1   
    28   13   40 1   
    29   14   15 1   
    30   14   41 1   
    31   15   16 1   
    32   15   42 1   
    33   16   17 1   
    34   16   43 1   
    35   17   18 1   
    36   17   44 1   
    37   18   26 1   
    38   19   24 1   
    39   19   36 1   
    40   19   39 1   
    41   20   21 1   
    42   20   35 1   
    43   20   49 1   
    44   21   22 1   
    45   22   23 1   
    46   22   34 1   
    47   22   52 1   
    48   23   24 1   
    49   23   50 1   
    50   24   26 1   
    51   25   26 1   
    52   25   33 1   
    53   37   49 1   
    54   38   49 1   
@<TRIPOS>SUBSTRUCTURE
     1 DQ7         1 TEMP              0 ****  ****    0 ROOT
