@<TRIPOS>MOLECULE
DQ7
   51    51     1     0     0
SMALL
bcc


@<TRIPOS>ATOM
      1 N           1.9300    0.7850   -0.2340 n3        1 DQ7     -0.316000
      2 CA          2.4850   -0.2690    0.6080 c3        1 DQ7     -0.097000
      3 CB          1.9020   -0.2890    1.9880 c2        1 DQ7     -0.091000
      4 C           4.0410   -0.2230    0.7510 c2        1 DQ7      0.305000
      5 OXT         4.6300   -1.2050    1.2860 o         1 DQ7     -0.578500
      6 O           4.6620    0.7840    0.3010 o         1 DQ7     -0.578500
      7 CAO        -0.4520   -3.1070    3.1210 ca        1 DQ7     -0.120000
      8 CAW        -1.3390   -4.1780    3.2170 ca        1 DQ7     -0.140750
      9 CAP        -1.4430   -4.9010    4.4050 ca        1 DQ7     -0.142500
     10 CAJ        -0.6550   -4.5440    5.4980 ca        1 DQ7     -0.140750
     11 CAE         0.2340   -3.4750    5.4040 ca        1 DQ7     -0.120000
     12 CAI         0.3500   -2.7460    4.2140 ca        1 DQ7     -0.047500
     13 CAF         1.4460    0.8060    4.9130 ca        1 DQ7     -0.120000
     14 CAL         0.8590    1.9910    5.3500 ca        1 DQ7     -0.140750
     15 CAR        -0.5280    2.0830    5.4740 ca        1 DQ7     -0.142500
     16 CAX        -1.3210    0.9850    5.1520 ca        1 DQ7     -0.140750
     17 CAQ        -0.7340   -0.2020    4.7110 ca        1 DQ7     -0.120000
     18 CAK         0.6560   -0.3100    4.5930 ca        1 DQ7     -0.047500
     19 CAN         2.6950   -1.5530    6.1950 c2        1 DQ7     -0.269000
     20 CAH        10.1400   -0.0320    1.2950 c1        1 DQ7     -0.037000
     21 CAD         8.7910   -0.0420    1.2370 c1        1 DQ7     -0.295000
     22 CAG         7.5880   -0.1090    1.0570 c1        1 DQ7     -0.030000
     23 CAM         3.6470   -2.6190    4.1920 c3        1 DQ7     -0.209000
     24 CAV         2.5660   -1.8950    4.9080 c2        1 DQ7     -0.058000
     25 CAT         1.7320   -1.4340    2.6550 c2        1 DQ7     -0.207000
     26 CAZ         1.3160   -1.5790    4.0970 c3        1 DQ7      0.098000
     27 HN1        -0.3820   -2.5410    2.1790 ha        1 DQ7      0.146500
     28 HN2         2.5390    0.8840   -1.0290 hn        1 DQ7      0.131000
     29 HA          1.9750    1.6560    0.2650 hn        1 DQ7      0.131000
     30 HB1C        2.2490   -1.2450    0.0880 h1        1 DQ7      0.097000
     31 HB2C        1.6750    0.6910    2.4380 ha        1 DQ7      0.118000
     32 HAT1        4.0490   -1.9960    3.3420 hc        1 DQ7      0.102333
     33 HAT2        1.9850   -2.3940    2.1720 ha        1 DQ7      0.137000
     34 HAG         4.4910   -2.8650    4.8810 hc        1 DQ7      0.102333
     35 HAD         6.5150   -0.1660    0.9030 ha        1 DQ7      0.309000
     36 HAN         3.6000   -1.7890    6.7690 ha        1 DQ7      0.107000
     37 HAA1       11.6100    1.2650    2.0050 hc        1 DQ7      0.084667
     38 HAA2       11.5780   -0.3810    2.7630 hc        1 DQ7      0.084667
     39 HAA3       10.3680    0.8760    3.2770 hc        1 DQ7      0.084667
     40 HAF         1.9220   -1.0060    6.7480 ha        1 DQ7      0.107000
     41 HAL         2.5410    0.7390    4.8090 ha        1 DQ7      0.146500
     42 HAR         1.4920    2.8560    5.5910 ha        1 DQ7      0.121250
     43 HAX        -0.9900    3.0180    5.8190 ha        1 DQ7      0.118000
     44 HAQ        -2.4150    1.0510    5.2380 ha        1 DQ7      0.121250
     45 HAE        -1.3790   -1.0550    4.4490 ha        1 DQ7      0.146500
     46 HAJ         0.8530   -3.2030    6.2730 ha        1 DQ7      0.146500
     47 HAP        -0.7310   -5.1090    6.4380 ha        1 DQ7      0.121250
     48 HAW        -2.1400   -5.7470    4.4780 ha        1 DQ7      0.118000
     49 HAO        -1.9570   -4.4520    2.3500 ha        1 DQ7      0.121250
     50 CAA        10.9330    0.4630    2.4020 c3        1 DQ7     -0.217000
     51 HAM         3.2530   -3.5720    3.7600 hc        1 DQ7      0.102333
@<TRIPOS>BOND
     1    1    2 1   
     2    1   28 1   
     3    1   29 1   
     4    2    3 1   
     5    2    4 1   
     6    2   30 1   
     7    3   25 1   
     8    3   31 1   
     9    4    5 1   
    10    4    6 1   
    11    7    8 1   
    12    7   12 1   
    13    7   27 1   
    14    8    9 1   
    15    8   49 1   
    16    9   10 1   
    17    9   48 1   
    18   10   11 1   
    19   10   47 1   
    20   11   12 1   
    21   11   46 1   
    22   12   26 1   
    23   13   14 1   
    24   13   18 1   
    25   13   41 1   
    26   14   15 1   
    27   14   42 1   
    28   15   16 1   
    29   15   43 1   
    30   16   17 1   
    31   16   44 1   
    32   17   18 1   
    33   17   45 1   
    34   18   26 1   
    35   19   24 1   
    36   19   36 1   
    37   19   40 1   
    38   20   21 1   
    39   20   50 1   
    40   21   22 1   
    41   22   35 1   
    42   23   24 1   
    43   23   32 1   
    44   23   34 1   
    45   23   51 1   
    46   24   26 1   
    47   25   26 1   
    48   25   33 1   
    49   37   50 1   
    50   38   50 1   
    51   39   50 1   
@<TRIPOS>SUBSTRUCTURE
     1 DQ7         1 TEMP              0 ****  ****    0 ROOT
