@<TRIPOS>MOLECULE
DQ7
   51    53     1     0     0
SMALL
bcc


@<TRIPOS>ATOM
      1 N           4.4330   -1.3130    0.4250 n3        1 DQ7     -0.886800
      2 CA          3.2290   -0.8950    1.1370 c3        1 DQ7      0.023500
      3 CB          2.0330   -0.7180    0.1920 c3        1 DQ7     -0.058400
      4 C           3.4150    0.4090    1.9770 c         1 DQ7      0.882600
      5 OXT         2.5130    0.7080    2.8140 o         1 DQ7     -0.845800
      6 O           4.4570    1.0980    1.7940 o         1 DQ7     -0.845800
      7 CAO        -1.7770   -0.7560    2.3460 ca        1 DQ7     -0.121750
      8 CAW        -2.9330   -1.1060    3.0430 ca        1 DQ7     -0.139250
      9 CAP        -4.0910   -1.4640    2.3550 ca        1 DQ7     -0.145000
     10 CAJ        -4.0880   -1.4650    0.9620 ca        1 DQ7     -0.139250
     11 CAE        -2.9330   -1.1170    0.2630 ca        1 DQ7     -0.121750
     12 CAI        -1.7580   -0.7690    0.9440 ca        1 DQ7     -0.053800
     13 CAF        -0.0720   -0.3140   -2.3260 ca        1 DQ7     -0.121750
     14 CAL        -0.0040   -0.9550   -3.5630 ca        1 DQ7     -0.139250
     15 CAR        -0.3180   -2.3080   -3.6730 ca        1 DQ7     -0.145000
     16 CAX        -0.6940   -3.0220   -2.5350 ca        1 DQ7     -0.139250
     17 CAQ        -0.7640   -2.3830   -1.3000 ca        1 DQ7     -0.121750
     18 CAK        -0.4660   -1.0160   -1.1800 ca        1 DQ7     -0.053800
     19 CAN        -1.5720    1.7300   -0.6990 ca        1 DQ7     -0.130000
     20 CAH        -1.6930    3.1160   -0.8150 ca        1 DQ7     -0.107300
     21 CAD        -0.7800    3.9410   -0.1460 ca        1 DQ7     -0.141000
     22 CAG         0.2260    3.3730    0.6280 ca        1 DQ7     -0.130000
     23 CAM         0.3430    1.9860    0.7480 ca        1 DQ7     -0.107000
     24 CAV        -0.5550    1.1500    0.0750 ca        1 DQ7     -0.076300
     25 CAT         0.7320   -0.8690    0.9540 c3        1 DQ7     -0.086400
     26 CAZ        -0.5050   -0.3610    0.1850 c3        1 DQ7      0.090900
     27 HN1         4.5880   -0.6760   -0.3370 hn        1 DQ7      0.331300
     28 HN2         5.2100   -1.1920    1.0540 hn        1 DQ7      0.331300
     29 HA          2.9890   -1.7230    1.8660 h1        1 DQ7      0.043700
     30 HB1C        2.0850    0.2970   -0.2820 hc        1 DQ7      0.034700
     31 HB2C        2.0660   -1.4750   -0.6360 hc        1 DQ7      0.034700
     32 HAT1        0.5660   -1.9550    1.1850 hc        1 DQ7      0.071200
     33 HAT2        0.8310   -0.3240    1.9350 hc        1 DQ7      0.071200
     34 HAG         0.9460    4.0150    1.1590 ha        1 DQ7      0.139000
     35 HAD        -0.8640    5.0330   -0.2340 ha        1 DQ7      0.114000
     36 HAN        -2.2880    1.0770   -1.2210 ha        1 DQ7      0.124000
     37 HAA1       -3.6820    3.8880   -0.9820 hc        1 DQ7      0.031367
     38 HAA2       -2.4690    4.6840   -2.0670 hc        1 DQ7      0.031367
     39 HAA3       -3.0820    3.0230   -2.4560 hc        1 DQ7      0.031367
     40 HAF         0.2000    0.7510   -2.2500 ha        1 DQ7      0.145750
     41 HAL         0.3090   -0.3890   -4.4510 ha        1 DQ7      0.120500
     42 HAR        -0.2600   -2.8120   -4.6470 ha        1 DQ7      0.116500
     43 HAX        -0.9290   -4.0930   -2.6100 ha        1 DQ7      0.120500
     44 HAQ        -1.0500   -2.9530   -0.4020 ha        1 DQ7      0.145750
     45 HAE        -2.9490   -1.1180   -0.8380 ha        1 DQ7      0.145750
     46 HAJ        -4.9970   -1.7380    0.4090 ha        1 DQ7      0.120500
     47 HAP        -5.0000   -1.7400    2.9070 ha        1 DQ7      0.116500
     48 HAW        -2.9270   -1.0930    4.1420 ha        1 DQ7      0.120500
     49 HAO        -0.8780   -0.4600    2.9120 ha        1 DQ7      0.145750
     50 CAA        -2.7830    3.7070   -1.6250 c3        1 DQ7     -0.040800
     51 HAM         1.1590    1.5780    1.3850 ha        1 DQ7      0.216000
@<TRIPOS>BOND
     1    1    2 1   
     2    1   27 1   
     3    1   28 1   
     4    2    3 1   
     5    2    4 1   
     6    2   29 1   
     7    3   25 1   
     8    3   30 1   
     9    3   31 1   
    10    4    5 1   
    11    4    6 1   
    12    7    8 ar  
    13    7   12 ar  
    14    7   49 1   
    15    8    9 ar  
    16    8   48 1   
    17    9   10 ar  
    18    9   47 1   
    19   10   11 ar  
    20   10   46 1   
    21   11   12 ar  
    22   11   45 1   
    23   12   26 1   
    24   13   14 ar  
    25   13   18 ar  
    26   13   40 1   
    27   14   15 ar  
    28   14   41 1   
    29   15   16 ar  
    30   15   42 1   
    31   16   17 ar  
    32   16   43 1   
    33   17   18 ar  
    34   17   44 1   
    35   18   26 1   
    36   19   20 ar  
    37   19   24 ar  
    38   19   36 1   
    39   20   21 ar  
    40   20   50 1   
    41   21   22 ar  
    42   21   35 1   
    43   22   23 ar  
    44   22   34 1   
    45   23   24 ar  
    46   23   51 1   
    47   24   26 1   
    48   25   26 1   
    49   25   32 1   
    50   25   33 1   
    51   37   50 1   
    52   38   50 1   
    53   39   50 1   
@<TRIPOS>SUBSTRUCTURE
     1 DQ7         1 TEMP              0 ****  ****    0 ROOT
