@<TRIPOS>MOLECULE
DQ7
   51    44     1     0     0
SMALL
bcc


@<TRIPOS>ATOM
      1 N          -3.0060    1.0810   -3.0270 n3        1 DQ7     -0.896800
      2 CA         -1.5920    1.2300   -2.9980 c3        1 DQ7      0.016500
      3 CB         -1.1100    1.1870   -1.5640 c3        1 DQ7     -0.072400
      4 C          -1.2120    2.5550   -3.6180 c         1 DQ7      0.888600
      5 OXT        -0.5670    2.5810   -4.6980 o         1 DQ7     -0.842300
      6 O          -1.5780    3.6310   -3.0770 o         1 DQ7     -0.842300
      7 CAO        -0.5930   -2.7290    0.0330 c1        1 DQ7     -0.075400
      8 CAW        -1.0810   -3.8670    0.6560 c1        1 DQ7     -0.075400
      9 CAP        -1.2100   -3.9000    2.0360 c1        1 DQ7     -0.075400
     10 CAJ        -0.8530   -2.7960    2.7920 c1        1 DQ7     -0.075400
     11 CAE        -0.3650   -1.6580    2.1690 c1        1 DQ7     -0.061500
     12 CAI        -0.2360   -1.6240    0.7900 c1        1 DQ7     -0.024100
     13 CAF        -2.0730    0.5820    1.2100 c1        1 DQ7     -0.061500
     14 CAL        -2.8060    1.3920    2.0640 c1        1 DQ7     -0.075400
     15 CAR        -2.1770    2.4090    2.7640 c1        1 DQ7     -0.075400
     16 CAX        -0.8150    2.6170    2.6100 c1        1 DQ7     -0.075400
     17 CAQ        -0.0820    1.8070    1.7570 c1        1 DQ7     -0.075400
     18 CAK        -0.7120    0.7890    1.0570 c1        1 DQ7     -0.024100
     19 CAN         2.3070   -0.9890   -0.0330 c1        1 DQ7     -0.061500
     20 CAH         3.6590   -0.7260   -0.1900 c1        1 DQ7     -0.059100
     21 CAD         4.1000    0.5820   -0.3230 c1        1 DQ7     -0.079500
     22 CAG         3.1890    1.6260   -0.3010 c1        1 DQ7     -0.075400
     23 CAM         1.8360    1.3620   -0.1440 c1        1 DQ7     -0.075400
     24 CAV         1.3960    0.0550   -0.0100 c1        1 DQ7     -0.024100
     25 CAA         4.6440   -1.8700   -0.2970 c3        1 DQ7     -0.080000
     26 CAT        -0.7570   -0.2380   -1.1930 c3        1 DQ7     -0.069400
     27 CAZ        -0.0770   -0.2540    0.1610 c3        1 DQ7     -0.015700
     28 HN1        -3.3730    1.7480   -3.5370 hn        1 DQ7      0.331300
     29 HN2        -3.2200    0.2680   -3.3890 hn        1 DQ7      0.331300
     30 HA         -1.1780    0.5030   -3.5030 h1        1 DQ7      0.039700
     31 HB1C       -1.8180    1.5120   -0.9730 hc        1 DQ7      0.056200
     32 HB2C       -0.3190    1.7540   -1.4690 hc        1 DQ7      0.056200
     33 HAT1       -0.1530   -0.6110   -1.8660 hc        1 DQ7      0.047700
     34 HAT2       -1.5730   -0.7770   -1.1550 hc        1 DQ7      0.047700
     35 HAM         1.1950    2.0980   -0.1280 ha        1 DQ7      0.072600
     36 HAG         3.4990    2.5460   -0.3950 ha        1 DQ7      0.072600
     37 HAD         5.0510    0.7660   -0.4440 ha        1 DQ7      0.061500
     38 HAN         1.9960   -1.9100    0.0610 ha        1 DQ7      0.085833
     39 HAA1        4.3110   -2.5280   -0.9440 hc        1 DQ7      0.035367
     40 HAA2        4.7460   -2.2970    0.5790 hc        1 DQ7      0.035367
     41 HAA3        5.5120   -1.5270   -0.5970 hc        1 DQ7      0.035367
     42 HAF        -2.5160   -0.1350    0.7170 ha        1 DQ7      0.085833
     43 HAL        -3.7650    1.2460    2.1720 ha        1 DQ7      0.072600
     44 HAR        -2.6930    2.9800    3.3650 ha        1 DQ7      0.072600
     45 HAX        -0.3720    3.3340    3.1030 ha        1 DQ7      0.072600
     46 HAQ         0.8760    1.9530    1.6490 ha        1 DQ7      0.072600
     47 HAE        -0.0940   -0.8870    2.7040 ha        1 DQ7      0.085833
     48 HAJ        -0.9540   -2.8160    3.7640 ha        1 DQ7      0.072600
     49 HAP        -1.5730   -4.6950    2.4730 ha        1 DQ7      0.072600
     50 HAW        -1.3340   -4.6450    0.1230 ha        1 DQ7      0.072600
     51 HAO        -0.4770   -2.7150   -0.9360 ha        1 DQ7      0.072600
@<TRIPOS>BOND
     1    1    2 1   
     2    1   28 1   
     3    1   29 1   
     4    2    3 1   
     5    2    4 1   
     6    2   30 1   
     7    3   26 1   
     8    3   31 1   
     9    3   32 1   
    10    4    5 1   
    11    4    6 1   
    12    7    8 3   
    13    7   51 1   
    14    8   50 1   
    15    9   10 3   
    16    9   49 1   
    17   10   48 1   
    18   11   12 3   
    19   11   47 1   
    20   12   27 1   
    21   13   18 3   
    22   13   42 1   
    23   14   15 3   
    24   14   43 1   
    25   15   44 1   
    26   16   17 3   
    27   16   45 1   
    28   17   46 1   
    29   18   27 1   
    30   19   24 3   
    31   19   38 1   
    32   20   21 3   
    33   20   25 1   
    34   21   37 1   
    35   22   23 3   
    36   22   36 1   
    37   23   35 1   
    38   24   27 1   
    39   25   39 1   
    40   25   40 1   
    41   25   41 1   
    42   26   27 1   
    43   26   33 1   
    44   26   34 1   
@<TRIPOS>SUBSTRUCTURE
     1 DQ7         1 TEMP              0 ****  ****    0 ROOT
