@<TRIPOS>MOLECULE
DQ8
   50    52     1     0     0
SMALL
bcc


@<TRIPOS>ATOM
      1 CAA         0.2980    0.5550    0.2050 c3        1 DQ8     -0.200100
      2 CAU         1.6990    0.0620    0.1300 c         1 DQ8      0.625700
      3 OAC         2.3800   -0.1660    1.1500 o         1 DQ8     -0.640100
      4 CAV         2.2910   -0.1690   -1.2040 ca        1 DQ8     -0.196600
      5 CAQ         3.6780   -0.0300   -1.3340 ca        1 DQ8     -0.111000
      6 CAK         1.5320   -0.5590   -2.3110 ca        1 DQ8     -0.068000
      7 CAJ         2.1730   -0.8340   -3.5200 ca        1 DQ8     -0.126000
      8 CAP         3.5610   -0.7600   -3.6220 ca        1 DQ8     -0.070000
      9 CAY         4.3350   -0.3850   -2.5120 ca        1 DQ8     -0.094300
     10 CAZ         5.8340   -0.3170   -2.5940 c3        1 DQ8      0.258000
     11 CAX         6.2330    1.0490   -3.0770 ca        1 DQ8     -0.109800
     12 CAN         6.3390    1.2960   -4.4530 ca        1 DQ8     -0.115250
     13 CAH         6.6780    2.5660   -4.9160 ca        1 DQ8     -0.124000
     14 CAE         6.9170    3.6010   -4.0110 ca        1 DQ8     -0.104500
     15 CAI         6.8070    3.3630   -2.6420 ca        1 DQ8     -0.124000
     16 CAO         6.4590    2.0960   -2.1750 ca        1 DQ8     -0.115250
     17 SAT         6.5980   -0.4070   -0.8980 ss        1 DQ8     -0.357200
     18 CAS         6.3360   -2.0670   -0.3460 c3        1 DQ8     -0.061300
     19 CAR         6.0480   -2.0920    1.1440 c3        1 DQ8      0.118800
     20 NAB         4.9970   -1.1230    1.5540 n4        1 DQ8     -0.844600
     21 CAW         6.4510   -1.4390   -3.3660 ca        1 DQ8     -0.109800
     22 CAL         7.7310   -1.2820   -3.9220 ca        1 DQ8     -0.115250
     23 CAF         8.3360   -2.3290   -4.6150 ca        1 DQ8     -0.124000
     24 CAD         7.6770   -3.5500   -4.7610 ca        1 DQ8     -0.104500
     25 CAG         6.4090   -3.7190   -4.2040 ca        1 DQ8     -0.124000
     26 CAM         5.8020   -2.6740   -3.5090 ca        1 DQ8     -0.115250
     27 HAA1        0.1500    1.4070   -0.5040 hc        1 DQ8      0.084700
     28 HAA2       -0.4040   -0.2700   -0.0770 hc        1 DQ8      0.084700
     29 HAA3        0.0510    0.8930    1.2430 hc        1 DQ8      0.084700
     30 HAQ         4.2520    0.4070   -0.5020 ha        1 DQ8      0.131000
     31 HAK         0.4370   -0.6510   -2.2310 ha        1 DQ8      0.152000
     32 HAJ         1.5760   -1.1170   -4.4020 ha        1 DQ8      0.160000
     33 HAP         4.0580   -0.9920   -4.5800 ha        1 DQ8      0.162000
     34 HAN         6.1540    0.4810   -5.1710 ha        1 DQ8      0.139750
     35 HAO         6.3630    1.9380   -1.0880 ha        1 DQ8      0.139750
     36 HAH         6.7570    2.7490   -5.9980 ha        1 DQ8      0.146750
     37 HAE         7.1890    4.6030   -4.3780 ha        1 DQ8      0.149500
     38 HAI         6.9940    4.1770   -1.9250 ha        1 DQ8      0.146750
     39 HAS1        7.2640   -2.6720   -0.5210 h1        1 DQ8      0.110700
     40 HAS2        5.5120   -2.5500   -0.9300 h1        1 DQ8      0.110700
     41 HAR1        5.7090   -3.1250    1.4460 hx        1 DQ8      0.109200
     42 HAR2        6.9880   -1.8390    1.7180 hx        1 DQ8      0.109200
     43 HAB1        4.8750   -1.1250    2.5690 hn        1 DQ8      0.469467
     44 HAB2        5.2680   -0.1770    1.2380 hn        1 DQ8      0.469467
     45 HAL         8.2650   -0.3250   -3.8080 ha        1 DQ8      0.139750
     46 HAM         4.7990   -2.8320   -3.0830 ha        1 DQ8      0.139750
     47 HAF         9.3380   -2.1880   -5.0500 ha        1 DQ8      0.146750
     48 HAD         8.1530   -4.3740   -5.3130 ha        1 DQ8      0.149500
     49 HAG         5.8830   -4.6790   -4.3160 ha        1 DQ8      0.146750
     50 HAB3        4.0880   -1.3410    1.1110 hn        1 DQ8      0.469467
@<TRIPOS>BOND
     1    1    2 1   
     2    1   27 1   
     3    1   28 1   
     4    1   29 1   
     5    2    3 2   
     6    2    4 1   
     7    4    5 ar  
     8    4    6 ar  
     9    5    9 ar  
    10    5   30 1   
    11    6    7 ar  
    12    6   31 1   
    13    7    8 ar  
    14    7   32 1   
    15    8    9 ar  
    16    8   33 1   
    17    9   10 1   
    18   10   11 1   
    19   10   17 1   
    20   10   21 1   
    21   11   12 ar  
    22   11   16 ar  
    23   12   13 ar  
    24   12   34 1   
    25   13   14 ar  
    26   13   36 1   
    27   14   15 ar  
    28   14   37 1   
    29   15   16 ar  
    30   15   38 1   
    31   16   35 1   
    32   17   18 1   
    33   18   19 1   
    34   18   39 1   
    35   18   40 1   
    36   19   20 1   
    37   19   41 1   
    38   19   42 1   
    39   20   43 1   
    40   20   44 1   
    41   20   50 1   
    42   21   22 ar  
    43   21   26 ar  
    44   22   23 ar  
    45   22   45 1   
    46   23   24 ar  
    47   23   47 1   
    48   24   25 ar  
    49   24   48 1   
    50   25   26 ar  
    51   25   49 1   
    52   26   46 1   
@<TRIPOS>SUBSTRUCTURE
     1 DQ8         1 TEMP              0 ****  ****    0 ROOT
