@<TRIPOS>MOLECULE
DQ8
   50    52     1     0     0
SMALL
bcc


@<TRIPOS>ATOM
      1 CAA         0.2500    0.4550    0.1470 c3        1 DQ8     -0.200100
      2 CAU         1.6610   -0.0110    0.0880 c         1 DQ8      0.625700
      3 OAC         2.3340   -0.2290    1.1160 o         1 DQ8     -0.641100
      4 CAV         2.2740   -0.2260   -1.2390 ca        1 DQ8     -0.196600
      5 CAQ         3.6610   -0.0590   -1.3510 ca        1 DQ8     -0.111000
      6 CAK         1.5380   -0.6270   -2.3570 ca        1 DQ8     -0.068000
      7 CAJ         2.1990   -0.8850   -3.5580 ca        1 DQ8     -0.126000
      8 CAP         3.5870   -0.7840   -3.6430 ca        1 DQ8     -0.070000
      9 CAY         4.3390   -0.3980   -2.5220 ca        1 DQ8     -0.094300
     10 CAZ         5.8370   -0.3000   -2.5830 c3        1 DQ8      0.258000
     11 CAX         6.2150    1.0750   -3.0580 ca        1 DQ8     -0.109800
     12 CAN         6.3350    1.3280   -4.4320 ca        1 DQ8     -0.115250
     13 CAH         6.6550    2.6050   -4.8860 ca        1 DQ8     -0.124000
     14 CAE         6.8620    3.6420   -3.9760 ca        1 DQ8     -0.104500
     15 CAI         6.7390    3.3980   -2.6090 ca        1 DQ8     -0.124000
     16 CAO         6.4090    2.1230   -2.1500 ca        1 DQ8     -0.115250
     17 SAT         6.5810   -0.3810   -0.8790 ss        1 DQ8     -0.357200
     18 CAS         6.3450   -2.0470   -0.3340 c3        1 DQ8     -0.061300
     19 CAR         6.0390   -2.0820    1.1510 c3        1 DQ8      0.118800
     20 NAB         4.9630   -1.1350    1.5510 nz        1 DQ8     -0.844600
     21 CAW         6.4860   -1.4080   -3.3510 ca        1 DQ8     -0.109800
     22 CAL         7.7700   -1.2250   -3.8900 ca        1 DQ8     -0.115250
     23 CAF         8.4040   -2.2580   -4.5780 ca        1 DQ8     -0.124000
     24 CAD         7.7700   -3.4900   -4.7350 ca        1 DQ8     -0.104500
     25 CAG         6.5000   -3.6860   -4.1960 ca        1 DQ8     -0.124000
     26 CAM         5.8630   -2.6550   -3.5060 ca        1 DQ8     -0.115250
     27 HAA1        0.0940    1.3060   -0.5620 hc        1 DQ8      0.084700
     28 HAA2       -0.4320   -0.3830   -0.1470 hc        1 DQ8      0.084700
     29 HAA3       -0.0170    0.7840    1.1820 hc        1 DQ8      0.084700
     30 HAQ         4.2150    0.3870   -0.5100 ha        1 DQ8      0.131000
     31 HAK         0.4440   -0.7410   -2.2920 ha        1 DQ8      0.152000
     32 HAJ         1.6190   -1.1770   -4.4490 ha        1 DQ8      0.160000
     33 HAP         4.1010   -1.0030   -4.5940 ha        1 DQ8      0.162000
     34 HAN         6.1760    0.5110   -5.1540 ha        1 DQ8      0.139750
     35 HAO         6.3020    1.9610   -1.0650 ha        1 DQ8      0.139750
     36 HAH         6.7450    2.7930   -5.9670 ha        1 DQ8      0.146750
     37 HAE         7.1190    4.6500   -4.3370 ha        1 DQ8      0.149500
     38 HAI         6.9000    4.2130   -1.8870 ha        1 DQ8      0.146750
     39 HAS1        7.2870   -2.6330   -0.4990 h1        1 DQ8      0.110700
     40 HAS2        5.5380   -2.5440   -0.9300 h1        1 DQ8      0.110700
     41 HAR1        5.7160   -3.1230    1.4470 hx        1 DQ8      0.109200
     42 HAR2        6.9650   -1.8130    1.7390 hx        1 DQ8      0.109200
     43 HAB1        4.8290   -1.1430    2.5640 hn        1 DQ8      0.469467
     44 HAB2        5.2200   -0.1840    1.2410 hn        1 DQ8      0.469467
     45 HAL         8.2830   -0.2570   -3.7650 ha        1 DQ8      0.139750
     46 HAM         4.8580   -2.8340   -3.0940 ha        1 DQ8      0.139750
     47 HAF         9.4090   -2.0960   -4.9990 ha        1 DQ8      0.146750
     48 HAD         8.2700   -4.3040   -5.2840 ha        1 DQ8      0.149500
     49 HAG         5.9930   -4.6550   -4.3170 ha        1 DQ8      0.146750
     50 HAB3        4.0640   -1.3700    1.0960 hn        1 DQ8      0.469467
@<TRIPOS>BOND
     1    1    2 1   
     2    1   27 1   
     3    1   28 1   
     4    1   29 1   
     5    2    3 2   
     6    2    4 1   
     7    4    5 ar  
     8    4    6 ar  
     9    5    9 ar  
    10    5   30 1   
    11    6    7 ar  
    12    6   31 1   
    13    7    8 ar  
    14    7   32 1   
    15    8    9 ar  
    16    8   33 1   
    17    9   10 1   
    18   10   11 1   
    19   10   17 1   
    20   10   21 1   
    21   11   12 ar  
    22   11   16 ar  
    23   12   13 ar  
    24   12   34 1   
    25   13   14 ar  
    26   13   36 1   
    27   14   15 ar  
    28   14   37 1   
    29   15   16 ar  
    30   15   38 1   
    31   16   35 1   
    32   17   18 1   
    33   18   19 1   
    34   18   39 1   
    35   18   40 1   
    36   19   20 1   
    37   19   41 1   
    38   19   42 1   
    39   20   43 1   
    40   20   44 1   
    41   20   50 1   
    42   21   22 ar  
    43   21   26 ar  
    44   22   23 ar  
    45   22   45 1   
    46   23   24 ar  
    47   23   47 1   
    48   24   25 ar  
    49   24   48 1   
    50   25   26 ar  
    51   25   49 1   
    52   26   46 1   
@<TRIPOS>SUBSTRUCTURE
     1 DQ8         1 TEMP              0 ****  ****    0 ROOT
