@<TRIPOS>MOLECULE
DQ8
   50    52     1     0     0
SMALL
bcc


@<TRIPOS>ATOM
      1 CAA         0.2780    0.5480    0.1670 c3        1 DQ8     -0.200100
      2 CAU         1.6790    0.0520    0.1010 c         1 DQ8      0.625700
      3 OAC         2.3500   -0.1850    1.1260 o         1 DQ8     -0.640100
      4 CAV         2.2830   -0.1700   -1.2290 ca        1 DQ8     -0.196600
      5 CAQ         3.6720   -0.0330   -1.3440 ca        1 DQ8     -0.111000
      6 CAK         1.5340   -0.5500   -2.3460 ca        1 DQ8     -0.068000
      7 CAJ         2.1860   -0.8160   -3.5510 ca        1 DQ8     -0.126000
      8 CAP         3.5760   -0.7440   -3.6390 ca        1 DQ8     -0.070000
      9 CAY         4.3390   -0.3800   -2.5190 ca        1 DQ8     -0.094300
     10 CAZ         5.8390   -0.3150   -2.5850 c3        1 DQ8      0.258000
     11 CAX         6.2450    1.0540   -3.0540 ca        1 DQ8     -0.109800
     12 CAN         6.3660    1.3120   -4.4270 ca        1 DQ8     -0.115250
     13 CAH         6.7120    2.5840   -4.8760 ca        1 DQ8     -0.124000
     14 CAE         6.9440    3.6120   -3.9620 ca        1 DQ8     -0.104500
     15 CAI         6.8200    3.3640   -2.5950 ca        1 DQ8     -0.124000
     16 CAO         6.4640    2.0940   -2.1410 ca        1 DQ8     -0.115250
     17 SAT         6.5870   -0.4200   -0.8830 ss        1 DQ8     -0.357200
     18 CAS         6.3150   -2.0830   -0.3460 c3        1 DQ8     -0.061300
     19 CAR         6.0130   -2.1190    1.1400 c3        1 DQ8      0.118800
     20 NAB         4.9600   -1.1510    1.5480 n4        1 DQ8     -0.844600
     21 CAW         6.4610   -1.4320   -3.3610 ca        1 DQ8     -0.109800
     22 CAL         7.7470   -1.2740   -3.9030 ca        1 DQ8     -0.115250
     23 CAF         8.3560   -2.3170   -4.5980 ca        1 DQ8     -0.124000
     24 CAD         7.6960   -3.5340   -4.7600 ca        1 DQ8     -0.104500
     25 CAG         6.4230   -3.7050   -4.2160 ca        1 DQ8     -0.124000
     26 CAM         5.8110   -2.6650   -3.5200 ca        1 DQ8     -0.115250
     27 HAA1        0.0220    0.8780    1.2040 hc        1 DQ8      0.084700
     28 HAA2        0.1390    1.4050   -0.5370 hc        1 DQ8      0.084700
     29 HAA3       -0.4230   -0.2730   -0.1290 hc        1 DQ8      0.084700
     30 HAQ         4.2390    0.3970   -0.5030 ha        1 DQ8      0.131000
     31 HAK         0.4380   -0.6400   -2.2780 ha        1 DQ8      0.152000
     32 HAJ         1.5970   -1.0910   -4.4410 ha        1 DQ8      0.160000
     33 HAP         4.0810   -0.9700   -4.5940 ha        1 DQ8      0.162000
     34 HAN         6.1870    0.5030   -5.1530 ha        1 DQ8      0.139750
     35 HAO         6.3570    1.9280   -1.0560 ha        1 DQ8      0.139750
     36 HAH         6.8030    2.7760   -5.9560 ha        1 DQ8      0.146750
     37 HAE         7.2220    4.6160   -4.3180 ha        1 DQ8      0.149500
     38 HAI         7.0010    4.1720   -1.8700 ha        1 DQ8      0.146750
     39 HAS1        5.4960   -2.5600   -0.9420 h1        1 DQ8      0.110700
     40 HAS2        7.2440   -2.6890   -0.5170 h1        1 DQ8      0.110700
     41 HAR1        5.6690   -3.1540    1.4320 hx        1 DQ8      0.109200
     42 HAR2        6.9480   -1.8730    1.7260 hx        1 DQ8      0.109200
     43 HAB1        5.2370   -0.2040    1.2410 hn        1 DQ8      0.469467
     44 HAB2        4.0550   -1.3630    1.0950 hn        1 DQ8      0.469467
     45 HAL         8.2820   -0.3190   -3.7750 ha        1 DQ8      0.139750
     46 HAM         4.8030   -2.8240   -3.1050 ha        1 DQ8      0.139750
     47 HAF         9.3630   -2.1740   -5.0220 ha        1 DQ8      0.146750
     48 HAD         8.1760   -4.3560   -5.3140 ha        1 DQ8      0.149500
     49 HAG         5.8950   -4.6630   -4.3410 ha        1 DQ8      0.146750
     50 HAB3        4.8290   -1.1600    2.5610 hn        1 DQ8      0.469467
@<TRIPOS>BOND
     1    1    2 1   
     2    1   27 1   
     3    1   28 1   
     4    1   29 1   
     5    2    3 2   
     6    2    4 1   
     7    4    5 ar  
     8    4    6 ar  
     9    5    9 ar  
    10    5   30 1   
    11    6    7 ar  
    12    6   31 1   
    13    7    8 ar  
    14    7   32 1   
    15    8    9 ar  
    16    8   33 1   
    17    9   10 1   
    18   10   11 1   
    19   10   17 1   
    20   10   21 1   
    21   11   12 ar  
    22   11   16 ar  
    23   12   13 ar  
    24   12   34 1   
    25   13   14 ar  
    26   13   36 1   
    27   14   15 ar  
    28   14   37 1   
    29   15   16 ar  
    30   15   38 1   
    31   16   35 1   
    32   17   18 1   
    33   18   19 1   
    34   18   39 1   
    35   18   40 1   
    36   19   20 1   
    37   19   41 1   
    38   19   42 1   
    39   20   43 1   
    40   20   44 1   
    41   20   50 1   
    42   21   22 ar  
    43   21   26 ar  
    44   22   23 ar  
    45   22   45 1   
    46   23   24 ar  
    47   23   47 1   
    48   24   25 ar  
    49   24   48 1   
    50   25   26 ar  
    51   25   49 1   
    52   26   46 1   
@<TRIPOS>SUBSTRUCTURE
     1 DQ8         1 TEMP              0 ****  ****    0 ROOT
