@<TRIPOS>MOLECULE
DQ8
   49    45     1     0     0
SMALL
bcc


@<TRIPOS>ATOM
      1 CAA        -4.9500    1.6960    2.3170 c3        1 DQ8     -0.266000
      2 CAU        -3.9590    0.5580    2.2050 c2        1 DQ8      0.267000
      3 OAC        -3.8060   -0.2090    3.1350 o         1 DQ8     -0.293000
      4 CAV        -3.1960    0.3430    0.9150 c2        1 DQ8     -0.156000
      5 CAQ        -1.8100    0.3460    0.9210 c2        1 DQ8     -0.068000
      6 CAK        -3.8840    0.0970   -0.2630 c1        1 DQ8     -0.087000
      7 CAJ        -3.1850   -0.1480   -1.4350 c1        1 DQ8     -0.125500
      8 CAP        -1.7990   -0.1460   -1.4290 c1        1 DQ8     -0.125500
      9 CAY        -1.1110    0.1010   -0.2510 c1        1 DQ8     -0.089000
     10 CAZ         0.3970    0.2180   -0.2690 c3        1 DQ8     -0.002000
     11 CAX         0.7990    1.4470   -1.0530 c2        1 DQ8     -0.074000
     12 CAN         0.8840    2.6760   -0.4190 c2        1 DQ8     -0.107500
     13 CAH         1.2590    3.8010   -1.1370 c1        1 DQ8     -0.131500
     14 CAE         1.5490    3.6970   -2.4880 c1        1 DQ8     -0.125500
     15 CAI         1.4640    2.4680   -3.1220 c1        1 DQ8     -0.125500
     16 CAO         1.0890    1.3430   -2.4050 c1        1 DQ8     -0.123500
     17 SAT         0.9990    0.3550    1.3930 ss        1 DQ8      0.053000
     18 CAS         1.5900   -1.2250    1.9400 c3        1 DQ8     -0.282000
     19 CAR         2.3110   -1.0640    3.2600 c3        1 DQ8     -0.069000
     20 NAB         3.0840   -2.2330    3.5250 n3        1 DQ8     -0.345000
     21 CAW         0.9910   -1.0120   -0.9200 c2        1 DQ8     -0.074000
     22 CAL         2.3340   -1.0350   -1.2620 c2        1 DQ8     -0.107500
     23 CAF         2.8820   -2.1680   -1.8440 c1        1 DQ8     -0.131500
     24 CAD         2.0860   -3.2770   -2.0840 c1        1 DQ8     -0.125500
     25 CAG         0.7430   -3.2540   -1.7420 c1        1 DQ8     -0.125500
     26 CAM         0.1960   -2.1220   -1.1600 c1        1 DQ8     -0.123500
     27 HAA1       -4.5290    2.5270    2.0120 hc        1 DQ8      0.103667
     28 HAA2       -5.2280    1.7950    3.2520 hc        1 DQ8      0.103667
     29 HAA3       -5.7330    1.5040    1.7610 hc        1 DQ8      0.103667
     30 HAQ        -1.3260    0.5190    1.7500 ha        1 DQ8      0.179000
     31 HAK        -4.8590    0.0950   -0.2670 ha        1 DQ8      0.135000
     32 HAJ        -3.6700   -0.3220   -2.2650 ha        1 DQ8      0.135167
     33 HAP        -1.3080   -0.3180   -2.2550 ha        1 DQ8      0.135167
     34 HAN         0.6800    2.7500    0.5320 ha        1 DQ8      0.153500
     35 HAO         1.0290    0.4760   -2.8520 ha        1 DQ8      0.139500
     36 HAH         1.3190    4.6670   -0.6900 ha        1 DQ8      0.135000
     37 HAE         1.8140    4.4900   -2.9930 ha        1 DQ8      0.135167
     38 HAI         1.6680    2.3940   -4.0740 ha        1 DQ8      0.135167
     39 HAS1        0.8330   -1.8350    2.0540 h1        1 DQ8      0.112500
     40 HAS2        2.2060   -1.5910    1.2740 h1        1 DQ8      0.112500
     41 HAR1        1.6560   -0.9360    3.9760 h1        1 DQ8      0.080000
     42 HAR2        2.9030   -0.2850    3.2150 h1        1 DQ8      0.080000
     43 HAB1        3.9640   -2.0660    3.3370 hn        1 DQ8      0.145000
     44 HAB2        2.9980   -2.4620    4.4080 hn        1 DQ8      0.145000
     45 HAL         2.8940   -0.2540   -1.0930 ha        1 DQ8      0.153500
     46 HAM        -0.7500   -2.1060   -0.9190 ha        1 DQ8      0.139500
     47 HAF         3.8270   -2.1840   -2.0850 ha        1 DQ8      0.135000
     48 HAD         2.4720   -4.0750   -2.4940 ha        1 DQ8      0.135167
     49 HAG         0.1830   -4.0360   -1.9110 ha        1 DQ8      0.135167
@<TRIPOS>BOND
     1    1    2 1   
     2    1   27 1   
     3    1   28 1   
     4    1   29 1   
     5    2    3 1   
     6    2    4 1   
     7    4    5 1   
     8    4    6 1   
     9    5    9 1   
    10    5   30 1   
    11    6   31 1   
    12    7    8 1   
    13    7   32 1   
    14    8   33 1   
    15    9   10 1   
    16   10   11 1   
    17   10   17 1   
    18   10   21 1   
    19   11   12 1   
    20   11   16 1   
    21   12   13 1   
    22   12   34 1   
    23   13   36 1   
    24   14   15 1   
    25   14   37 1   
    26   15   38 1   
    27   16   35 1   
    28   17   18 1   
    29   18   19 1   
    30   18   39 1   
    31   18   40 1   
    32   19   20 1   
    33   19   41 1   
    34   19   42 1   
    35   20   43 1   
    36   20   44 1   
    37   21   22 1   
    38   21   26 1   
    39   22   23 1   
    40   22   45 1   
    41   23   47 1   
    42   24   25 1   
    43   24   48 1   
    44   25   49 1   
    45   26   46 1   
@<TRIPOS>SUBSTRUCTURE
     1 DQ8         1 TEMP              0 ****  ****    0 ROOT
