@<TRIPOS>MOLECULE
DQ8
   49    51     1     0     0
SMALL
bcc


@<TRIPOS>ATOM
      1 CAA         4.9920   -2.3580   -0.1380 c3        1 DQ8     -0.198100
      2 CAU         3.9930   -1.3460    0.3280 c         1 DQ8      0.578700
      3 OAC         4.2180   -0.6260    1.3100 o         1 DQ8     -0.538100
      4 CAV         2.7270   -1.2500   -0.4310 ca        1 DQ8     -0.178600
      5 CAQ         1.6280   -0.6160    0.1660 ca        1 DQ8     -0.070000
      6 CAK         2.6070   -1.7720   -1.7230 ca        1 DQ8     -0.088000
      7 CAJ         1.3980   -1.6610   -2.4070 ca        1 DQ8     -0.147000
      8 CAP         0.3080   -1.0320   -1.8100 ca        1 DQ8     -0.087000
      9 CAY         0.4150   -0.4950   -0.5180 ca        1 DQ8     -0.091300
     10 CAZ        -0.7930    0.1310    0.1260 c3        1 DQ8      0.202000
     11 CAX        -1.6600   -0.9920    0.6390 ca        1 DQ8     -0.083300
     12 CAN        -2.6560   -1.5500   -0.1740 ca        1 DQ8     -0.114750
     13 CAH        -3.4370   -2.6070    0.2910 ca        1 DQ8     -0.132750
     14 CAE        -3.2300   -3.1220    1.5700 ca        1 DQ8     -0.123500
     15 CAI        -2.2320   -2.5800    2.3790 ca        1 DQ8     -0.132750
     16 CAO        -1.4450   -1.5270    1.9160 ca        1 DQ8     -0.114750
     17 SAT        -0.3970    1.0710    1.6460 ss        1 DQ8     -0.314200
     18 CAS         0.3010    2.6220    1.1760 c3        1 DQ8     -0.023300
     19 CAR         1.8230    2.5880    1.2010 c3        1 DQ8      0.155800
     20 NAB         2.4220    3.8850    0.9800 n3        1 DQ8     -0.915800
     21 CAW        -1.5200    1.0740   -0.7850 ca        1 DQ8     -0.083300
     22 CAL        -2.8720    1.3750   -0.5570 ca        1 DQ8     -0.114750
     23 CAF        -3.5450    2.2790   -1.3740 ca        1 DQ8     -0.132750
     24 CAD        -2.8790    2.9050   -2.4290 ca        1 DQ8     -0.123500
     25 CAG        -1.5340    2.6240   -2.6550 ca        1 DQ8     -0.132750
     26 CAM        -0.8570    1.7180   -1.8400 ca        1 DQ8     -0.114750
     27 HAA1        5.8030   -2.4800    0.6200 hc        1 DQ8      0.065033
     28 HAA2        4.4950   -3.3440   -0.3040 hc        1 DQ8      0.065033
     29 HAA3        5.4500   -2.0170   -1.0990 hc        1 DQ8      0.065033
     30 HAQ         1.7300   -0.2090    1.1910 ha        1 DQ8      0.177000
     31 HAK         3.4620   -2.2690   -2.2050 ha        1 DQ8      0.134000
     32 HAJ         1.3020   -2.0740   -3.4220 ha        1 DQ8      0.137000
     33 HAP        -0.6490   -0.9560   -2.3500 ha        1 DQ8      0.143000
     34 HAN        -2.8230   -1.1510   -1.1870 ha        1 DQ8      0.146500
     35 HAO        -0.6480   -1.1230    2.5650 ha        1 DQ8      0.146500
     36 HAH        -4.2160   -3.0350   -0.3560 ha        1 DQ8      0.134000
     37 HAE        -3.8480   -3.9540    1.9370 ha        1 DQ8      0.132500
     38 HAI        -2.0600   -2.9850    3.3880 ha        1 DQ8      0.134000
     39 HAS1       -0.0640    2.9500    0.1710 h1        1 DQ8      0.083700
     40 HAS2       -0.0890    3.3450    1.9370 h1        1 DQ8      0.083700
     41 HAR1        2.1470    2.1200    2.1790 h1        1 DQ8      0.040200
     42 HAR2        2.1870    1.9070    0.3760 h1        1 DQ8      0.040200
     43 HAB1        2.1040    4.5460    1.6600 hn        1 DQ8      0.348800
     44 HAB2        3.4190    3.8140    1.0310 hn        1 DQ8      0.348800
     45 HAL        -3.4010    0.8970    0.2830 ha        1 DQ8      0.146500
     46 HAM         0.2100    1.5150   -2.0280 ha        1 DQ8      0.146500
     47 HAF        -4.6050    2.5020   -1.1830 ha        1 DQ8      0.134000
     48 HAD        -3.4120    3.6190   -3.0730 ha        1 DQ8      0.132500
     49 HAG        -0.9970    3.1210   -3.4770 ha        1 DQ8      0.134000
@<TRIPOS>BOND
     1    1    2 1   
     2    1   27 1   
     3    1   28 1   
     4    1   29 1   
     5    2    3 2   
     6    2    4 1   
     7    4    5 ar  
     8    4    6 ar  
     9    5    9 ar  
    10    5   30 1   
    11    6    7 ar  
    12    6   31 1   
    13    7    8 ar  
    14    7   32 1   
    15    8    9 ar  
    16    8   33 1   
    17    9   10 1   
    18   10   11 1   
    19   10   17 1   
    20   10   21 1   
    21   11   12 ar  
    22   11   16 ar  
    23   12   13 ar  
    24   12   34 1   
    25   13   14 ar  
    26   13   36 1   
    27   14   15 ar  
    28   14   37 1   
    29   15   16 ar  
    30   15   38 1   
    31   16   35 1   
    32   17   18 1   
    33   18   19 1   
    34   18   39 1   
    35   18   40 1   
    36   19   20 1   
    37   19   41 1   
    38   19   42 1   
    39   20   43 1   
    40   20   44 1   
    41   21   22 ar  
    42   21   26 ar  
    43   22   23 ar  
    44   22   45 1   
    45   23   24 ar  
    46   23   47 1   
    47   24   25 ar  
    48   24   48 1   
    49   25   26 ar  
    50   25   49 1   
    51   26   46 1   
@<TRIPOS>SUBSTRUCTURE
     1 DQ8         1 TEMP              0 ****  ****    0 ROOT
