@<TRIPOS>MOLECULE
DQA
   22    22     1     0     0
SMALL
bcc


@<TRIPOS>ATOM
      1 C1         -0.7480    0.3260   -1.0490 c3        1 DQA      0.021800
      2 C2          0.7730    0.3530   -1.0040 c3        1 DQA     -0.135400
      3 C3          1.3400    0.3760    0.3830 c3        1 DQA      0.156100
      4 O3          1.0020    1.6410    0.9940 oh        1 DQA     -0.623800
      5 C4          0.8400   -0.7380    1.2790 c3        1 DQA      0.001100
      6 O4          1.4380   -2.0170    0.9080 oh        1 DQA     -0.585800
      7 C5         -0.6820   -0.7830    1.2580 c         1 DQA      0.563100
      8 C6         -1.3020   -0.8530   -0.1540 c3        1 DQA     -0.211400
      9 C          -1.3530    1.6610   -0.6710 c         1 DQA      0.936600
     10 O1         -1.1760    2.6650   -1.4100 o         1 DQA     -0.816300
     11 O2         -2.0750    1.7570    0.3570 o         1 DQA     -0.816300
     12 O5         -1.2900   -1.2300    2.2110 o         1 DQA     -0.588100
     13 O6         -1.1970    0.1950   -2.3640 oh        1 DQA     -0.570800
     14 H21         1.1110   -0.4400   -1.4660 hc        1 DQA      0.051200
     15 H22         1.0840    1.1480   -1.4810 hc        1 DQA      0.051200
     16 H3          2.3140    0.3110    0.3210 h1        1 DQA      0.045700
     17 HO3         1.7260    1.9900    1.3740 ho        1 DQA      0.455000
     18 H4          1.1690   -0.6350    2.1950 h1        1 DQA      0.132700
     19 HO4         1.5410   -2.5180    1.6340 ho        1 DQA      0.396000
     20 H61        -1.1440   -1.7230   -0.5730 hc        1 DQA      0.087200
     21 H62        -2.2790   -0.8380   -0.1120 hc        1 DQA      0.087200
     22 HO6        -1.0930   -0.6480   -2.6310 ho        1 DQA      0.363000
@<TRIPOS>BOND
     1    1    2 1   
     2    1    8 1   
     3    1    9 1   
     4    1   13 1   
     5    2    3 1   
     6    2   14 1   
     7    2   15 1   
     8    3    4 1   
     9    3    5 1   
    10    3   16 1   
    11    4   17 1   
    12    5    6 1   
    13    5    7 1   
    14    5   18 1   
    15    6   19 1   
    16    7    8 1   
    17    7   12 2   
    18    8   20 1   
    19    8   21 1   
    20    9   10 1   
    21    9   11 1   
    22   13   22 1   
@<TRIPOS>SUBSTRUCTURE
     1 DQA         1 TEMP              0 ****  ****    0 ROOT
