@<TRIPOS>MOLECULE
DQA
   22    22     1     0     0
SMALL
bcc


@<TRIPOS>ATOM
      1 C1         -0.1350   -0.2400   -0.9520 c3        1 DQA      0.021800
      2 C2          1.2000   -0.0360   -0.2380 c3        1 DQA     -0.074400
      3 C3          1.0780   -0.3070    1.2540 c3        1 DQA      0.132100
      4 O3          2.3520   -0.1000    1.8490 oh        1 DQA     -0.606800
      5 C4          0.0400    0.6440    1.8770 c3        1 DQA     -0.005900
      6 O4         -0.0260    0.4280    3.2780 oh        1 DQA     -0.617800
      7 C5         -1.2940    0.4610    1.1790 c         1 DQA      0.569100
      8 C6         -1.2630    0.5710   -0.3070 c3        1 DQA     -0.174400
      9 C           0.0170    0.2440   -2.4390 c         1 DQA      0.905600
     10 O1         -0.0800   -0.6500   -3.3240 o         1 DQA     -0.817800
     11 O2          0.2150    1.4690   -2.6400 o         1 DQA     -0.817800
     12 O5         -2.3130    0.2360    1.8460 o         1 DQA     -0.577100
     13 O6         -0.4790   -1.6170   -0.8900 oh        1 DQA     -0.640800
     14 H21         1.5460    1.0150   -0.4160 hc        1 DQA      0.067700
     15 H22         1.9590   -0.7330   -0.6740 hc        1 DQA      0.067700
     16 H3          0.7590   -1.3730    1.4310 h1        1 DQA      0.047700
     17 HO3         2.2050   -0.0930    2.8040 ho        1 DQA      0.401000
     18 H4          0.3850    1.7100    1.7590 h1        1 DQA      0.093700
     19 HO4        -0.7690   -0.1670    3.4470 ho        1 DQA      0.415000
     20 H61        -1.1050    1.6490   -0.5900 hc        1 DQA      0.088700
     21 H62        -2.2420    0.2310   -0.7330 hc        1 DQA      0.088700
     22 HO6        -0.4990   -1.9450   -1.8050 ho        1 DQA      0.434000
@<TRIPOS>BOND
     1    1    2 1   
     2    1    8 1   
     3    1    9 1   
     4    1   13 1   
     5    2    3 1   
     6    2   14 1   
     7    2   15 1   
     8    3    4 1   
     9    3    5 1   
    10    3   16 1   
    11    4   17 1   
    12    5    6 1   
    13    5    7 1   
    14    5   18 1   
    15    6   19 1   
    16    7    8 1   
    17    7   12 2   
    18    8   20 1   
    19    8   21 1   
    20    9   10 1   
    21    9   11 1   
    22   13   22 1   
@<TRIPOS>SUBSTRUCTURE
     1 DQA         1 TEMP              0 ****  ****    0 ROOT
