@<TRIPOS>MOLECULE
DQA
   22    22     1     0     0
SMALL
bcc


@<TRIPOS>ATOM
      1 C1         -0.0580    0.0220    0.0420 c3        1 DQA      0.021800
      2 C2          1.4550   -0.1850    0.0290 c3        1 DQA     -0.074400
      3 C3          2.0440   -0.0700    1.4260 c3        1 DQA      0.132100
      4 O3          3.4470   -0.2750    1.3370 oh        1 DQA     -0.606800
      5 C4          1.7470    1.3240    2.0080 c3        1 DQA     -0.005900
      6 O4          2.3490    1.4480    3.2870 oh        1 DQA     -0.617800
      7 C5          0.2480    1.5530    2.0270 c         1 DQA      0.569100
      8 C6         -0.4530    1.3330    0.7310 c3        1 DQA     -0.174400
      9 C          -0.5650    0.0870   -1.4430 c         1 DQA      0.905600
     10 O1         -1.3210   -0.8550   -1.8100 o         1 DQA     -0.817800
     11 O2         -0.1940    1.0580   -2.1490 o         1 DQA     -0.817800
     12 O5         -0.3090    1.9000    3.0780 o         1 DQA     -0.577100
     13 O6         -0.6590   -1.0540    0.7470 oh        1 DQA     -0.640800
     14 H21         1.6820   -1.2020   -0.3790 hc        1 DQA      0.067700
     15 H22         1.9160    0.5760   -0.6520 hc        1 DQA      0.067700
     16 H3          1.6010   -0.8560    2.1020 h1        1 DQA      0.047700
     17 HO3         3.8130   -0.0130    2.1910 ho        1 DQA      0.401000
     18 H4          2.2420    2.1120    1.3720 h1        1 DQA      0.093700
     19 HO4         1.6720    1.2500    3.9480 ho        1 DQA      0.415000
     20 H61        -1.5620    1.3350    0.8940 hc        1 DQA      0.088700
     21 H62        -0.1930    2.1720    0.0270 hc        1 DQA      0.088700
     22 HO6        -1.2240   -1.5270    0.1130 ho        1 DQA      0.434000
@<TRIPOS>BOND
     1    1    2 1   
     2    1    8 1   
     3    1    9 1   
     4    1   13 1   
     5    2    3 1   
     6    2   14 1   
     7    2   15 1   
     8    3    4 1   
     9    3    5 1   
    10    3   16 1   
    11    4   17 1   
    12    5    6 1   
    13    5    7 1   
    14    5   18 1   
    15    6   19 1   
    16    7    8 1   
    17    7   12 2   
    18    8   20 1   
    19    8   21 1   
    20    9   10 1   
    21    9   11 1   
    22   13   22 1   
@<TRIPOS>SUBSTRUCTURE
     1 DQA         1 TEMP              0 ****  ****    0 ROOT
