@<TRIPOS>MOLECULE
DQB
   49    43     1     0     0
SMALL
bcc


@<TRIPOS>ATOM
      1 C11         0.2160    0.1700   -0.0660 c1        1 DQB      0.056000
      2 C12         1.6090    0.1010   -0.1120 c1        1 DQB     -0.124000
      3 C13         2.3440    0.1490    1.0610 c1        1 DQB     -0.124000
      4 C14         1.6840    0.2680    2.2920 c1        1 DQB     -0.144000
      5 C15         0.3010    0.3370    2.3270 c1        1 DQB     -0.072000
      6 C16        -0.4310    0.2880    1.1420 c1        1 DQB     -0.196000
      7 C           2.4750    0.3440    3.5800 c2        1 DQB      0.336000
      8 O           3.6950    0.3010    3.5520 o         1 DQB     -0.389000
      9 N           1.7890    0.4490    4.8310 n         1 DQB     -0.361000
     10 CA          2.4830    0.9610    6.0030 c3        1 DQB     -0.034000
     11 CB          1.9320    0.2810    7.2760 c3        1 DQB     -0.162000
     12 CG          2.6330    0.8630    8.5120 c3        1 DQB     -0.225000
     13 CD          1.7970    0.6250    9.7180 c2        1 DQB      0.329000
     14 OE1         1.0350    1.5110   10.1280 o         1 DQB     -0.584000
     15 OE2         1.9030   -0.4350   10.3420 o         1 DQB     -0.584000
     16 N10        -0.5310    0.2040   -1.2820 n3        1 DQB     -0.267000
     17 N1         -3.3130   -1.3510   -6.9650 n1        1 DQB     -0.243000
     18 C2         -3.2180   -0.5510   -8.0370 c1        1 DQB      0.212000
     19 N3         -2.3750    0.5320   -8.0110 n2        1 DQB     -0.345000
     20 C4         -1.6340    0.7940   -6.8930 c1        1 DQB      0.357000
     21 C5         -1.0180    0.2870   -4.6240 c1        1 DQB     -0.046000
     22 C6         -1.1690   -0.5010   -3.5050 c1        1 DQB     -0.156000
     23 C7         -2.0150   -1.5880   -3.5360 c1        1 DQB     -0.074000
     24 C8         -2.7190   -1.8880   -4.7010 c1        1 DQB     -0.129000
     25 C4A        -1.7320   -0.0180   -5.8060 c1        1 DQB     -0.191000
     26 C8A        -2.5680   -1.0900   -5.8360 c1        1 DQB      0.075000
     27 OA4        -0.9700    1.7360   -6.8520 o         1 DQB     -0.356000
     28 NA2        -4.0500   -0.9880   -9.0990 n3        1 DQB     -0.321000
     29 C9         -0.2420   -0.7460   -2.3340 c3        1 DQB     -0.016000
     30 H12         2.0910    0.0130   -1.0230 ha        1 DQB      0.143500
     31 H13         3.3740    0.0990    1.0290 ha        1 DQB      0.143500
     32 H15        -0.1930    0.4290    3.2400 ha        1 DQB      0.142000
     33 H16        -1.3650    0.3350    1.1700 ha        1 DQB      0.130000
     34 HN          0.9240    0.1830    4.8950 hn        1 DQB      0.222000
     35 HA1         3.4330    0.7750    5.9180 h1        1 DQB      0.085500
     36 HA2         2.3500    1.8920    6.0650 h1        1 DQB      0.085500
     37 HB1         2.1140   -0.7690    7.2230 hc        1 DQB      0.090000
     38 HB2         1.0420    0.4290    7.3370 hc        1 DQB      0.090000
     39 HG1         2.7500    1.7450    8.4020 hc        1 DQB      0.064500
     40 HG2         3.4770    0.4440    8.6230 hc        1 DQB      0.064500
     41 H10        -1.1500    0.7890   -1.3890 hn        1 DQB      0.184000
     42 HN3        -2.2630    1.0450   -8.7720 hn        1 DQB      0.247000
     43 H5         -0.5670    1.1210   -4.5220 ha        1 DQB      0.154000
     44 H7         -2.3360   -2.2740   -2.9860 ha        1 DQB      0.153000
     45 H8         -3.2340   -2.6390   -4.8680 ha        1 DQB      0.160000
     46 HA21       -4.5370   -1.7910   -9.0170 hn        1 DQB      0.206000
     47 HA22       -4.0760   -0.5380   -9.8430 hn        1 DQB      0.206000
     48 H91        -0.3840   -1.6880   -1.9820 h1        1 DQB      0.102500
     49 H92         0.6380   -0.6450   -2.6080 h1        1 DQB      0.102500
@<TRIPOS>BOND
     1    1    6 1   
     2    1   16 1   
     3    2    3 1   
     4    2   30 1   
     5    3   31 1   
     6    4    5 1   
     7    4    7 1   
     8    5   32 1   
     9    6   33 1   
    10    7    8 1   
    11    7    9 1   
    12    9   10 1   
    13    9   34 1   
    14   10   11 1   
    15   10   35 1   
    16   10   36 1   
    17   11   12 1   
    18   11   37 1   
    19   11   38 1   
    20   12   13 1   
    21   12   39 1   
    22   12   40 1   
    23   13   14 1   
    24   13   15 1   
    25   16   29 1   
    26   16   41 1   
    27   17   26 1   
    28   18   19 1   
    29   18   28 1   
    30   19   42 1   
    31   20   25 1   
    32   20   27 1   
    33   21   25 1   
    34   21   43 1   
    35   22   23 1   
    36   22   29 1   
    37   23   44 1   
    38   24   26 1   
    39   24   45 1   
    40   28   46 1   
    41   28   47 1   
    42   29   48 1   
    43   29   49 1   
@<TRIPOS>SUBSTRUCTURE
     1 DQB         1 TEMP              0 ****  ****    0 ROOT
