@<TRIPOS>MOLECULE
DQB
   49    51     1     0     0
SMALL
bcc


@<TRIPOS>ATOM
      1 C11        -0.0570    1.0210    0.3400 ca        1 DQB      0.144600
      2 C12        -0.6190    2.3160    0.2170 ca        1 DQB     -0.195500
      3 C13        -1.9740    2.4740   -0.0410 ca        1 DQB     -0.060500
      4 C14        -2.8080    1.3590   -0.1870 ca        1 DQB     -0.166600
      5 C15        -2.2620    0.0790   -0.0880 ca        1 DQB     -0.060500
      6 C16        -0.9050   -0.0960    0.1680 ca        1 DQB     -0.195500
      7 C          -4.2560    1.5920   -0.4790 c         1 DQB      0.663700
      8 O          -4.6110    2.5500   -1.2030 o         1 DQB     -0.632100
      9 N          -5.1610    0.7470    0.1070 n         1 DQB     -0.552900
     10 CA         -6.5800    0.8040   -0.1560 c3        1 DQB      0.083000
     11 CB         -7.2680   -0.5530   -0.0240 c3        1 DQB     -0.083400
     12 CG         -8.7610   -0.4190   -0.1870 c3        1 DQB     -0.196400
     13 CD         -9.4780   -1.7300    0.1930 c         1 DQB      0.909600
     14 OE1        -9.0020   -2.4270    1.1350 o         1 DQB     -0.848800
     15 OE2       -10.5220   -2.0310   -0.4520 o         1 DQB     -0.848800
     16 N10         1.2940    0.8840    0.7040 nh        1 DQB     -0.726600
     17 N1          7.6330   -0.1690    1.0740 nc        1 DQB     -0.678100
     18 C2          8.4300   -0.4700    0.0390 cd        1 DQB      0.661800
     19 N3          7.9490   -0.8800   -1.2250 n         1 DQB     -0.506400
     20 C4          6.5660   -0.9270   -1.4850 c         1 DQB      0.719100
     21 C5          4.2870   -0.6100   -0.5380 ca        1 DQB     -0.043000
     22 C6          3.4520   -0.2800    0.5210 ca        1 DQB     -0.132300
     23 C7          4.0110    0.0930    1.7580 ca        1 DQB     -0.070000
     24 C8          5.3810    0.1360    1.9420 ca        1 DQB     -0.139000
     25 C4A         5.6780   -0.5770   -0.3670 ca        1 DQB     -0.209600
     26 C8A         6.2540   -0.2030    0.8750 ca        1 DQB      0.212400
     27 C9          1.9610   -0.3560    0.3640 c3        1 DQB      0.229100
     28 H12         0.0140    3.2080    0.3320 ha        1 DQB      0.130500
     29 H13        -2.4060    3.4820   -0.1480 ha        1 DQB      0.147500
     30 H15        -2.8940   -0.8130   -0.2260 ha        1 DQB      0.147500
     31 H16        -0.5060   -1.1180    0.2410 ha        1 DQB      0.130500
     32 HN         -4.8350   -0.0120    0.6570 hn        1 DQB      0.309500
     33 HA1        -7.0440    1.5290    0.5740 h1        1 DQB      0.045700
     34 HA2        -6.7420    1.2180   -1.1920 h1        1 DQB      0.045700
     35 HB1        -6.8700   -1.2610   -0.7970 hc        1 DQB      0.050700
     36 HB2        -7.0630   -1.0100    0.9830 hc        1 DQB      0.050700
     37 HG1        -9.1540    0.3870    0.4830 hc        1 DQB      0.025200
     38 HG2        -9.0200   -0.1480   -1.2400 hc        1 DQB      0.025200
     39 H10         1.8390    1.6950    0.4860 hn        1 DQB      0.393800
     40 HN3         8.5760   -1.0450   -1.9800 hn        1 DQB      0.334500
     41 H5          3.8790   -0.9020   -1.5200 ha        1 DQB      0.161000
     42 H7          3.3380    0.3530    2.5920 ha        1 DQB      0.153000
     43 H8          5.8010    0.4320    2.9150 ha        1 DQB      0.152000
     44 HA21       10.1290   -0.1060    1.1030 hn        1 DQB      0.411300
     45 HA22       10.3680   -1.0510   -0.2470 hn        1 DQB      0.411300
     46 H91         1.7120   -0.6860   -0.6880 h1        1 DQB      0.051200
     47 H92         1.5710   -1.1510    1.0670 h1        1 DQB      0.051200
     48 OA4         6.2000   -1.2650   -2.6250 o         1 DQB     -0.620500
     49 NA2         9.8350   -0.3210    0.1730 nh        1 DQB     -0.885800
@<TRIPOS>BOND
     1    1    2 ar  
     2    1    6 ar  
     3    1   16 1   
     4    2    3 ar  
     5    2   28 1   
     6    3    4 ar  
     7    3   29 1   
     8    4    5 ar  
     9    4    7 1   
    10    5    6 ar  
    11    5   30 1   
    12    6   31 1   
    13    7    8 2   
    14    7    9 1   
    15    9   10 1   
    16    9   32 1   
    17   10   11 1   
    18   10   33 1   
    19   10   34 1   
    20   11   12 1   
    21   11   35 1   
    22   11   36 1   
    23   12   13 1   
    24   12   37 1   
    25   12   38 1   
    26   13   14 1   
    27   13   15 1   
    28   16   27 1   
    29   16   39 1   
    30   17   18 2   
    31   17   26 1   
    32   18   19 1   
    33   18   49 1   
    34   19   20 1   
    35   19   40 1   
    36   20   25 1   
    37   20   48 2   
    38   21   22 ar  
    39   21   25 ar  
    40   21   41 1   
    41   22   23 ar  
    42   22   27 1   
    43   23   24 ar  
    44   23   42 1   
    45   24   26 ar  
    46   24   43 1   
    47   25   26 ar  
    48   27   46 1   
    49   27   47 1   
    50   44   49 1   
    51   45   49 1   
@<TRIPOS>SUBSTRUCTURE
     1 DQB         1 TEMP              0 ****  ****    0 ROOT
