@<TRIPOS>MOLECULE
DQH
   34    31     1     0     0
SMALL
bcc


@<TRIPOS>ATOM
      1 C1         -2.9920   -1.0350   -2.1310 c1        1 DQH     -0.292000
      2 C2         -1.6000   -1.1150   -2.1880 c1        1 DQH      0.202000
      3 C3         -0.8520   -1.1500   -1.0060 c1        1 DQH     -0.273000
      4 C4         -1.5040   -1.1060    0.2370 c1        1 DQH      0.187000
      5 C5         -2.9020   -1.0270    0.2910 c1        1 DQH     -0.292000
      6 C6         -3.6450   -0.9910   -0.8890 c1        1 DQH      0.175000
      7 C9          0.5880   -1.4220   -1.0430 c2        1 DQH      0.271000
      8 C10         1.2690   -1.7810    0.2000 c3        1 DQH     -0.039000
      9 C11         0.7640   -0.9910    1.4260 c3        1 DQH      0.079000
     10 C14         1.1010    0.4370    1.2730 c2        1 DQH     -0.108000
     11 C15         0.1740    1.3150    0.7180 c2        1 DQH     -0.104000
     12 C16         0.5210    2.6440    0.4940 c1        1 DQH     -0.189000
     13 C17         1.7990    3.0970    0.8270 c1        1 DQH      0.061500
     14 C18         2.7250    2.2210    1.3820 c1        1 DQH      0.061500
     15 C19         2.3780    0.8910    1.6060 c1        1 DQH     -0.178000
     16 O12        -0.6740   -1.1480    1.5120 os        1 DQH     -0.200000
     17 O13         1.1480   -1.5740   -2.1050 o         1 DQH     -0.275000
     18 O23         4.0490    2.6770    1.6890 oh        1 DQH     -0.227000
     19 O24         2.1700    4.4230    0.5420 oh        1 DQH     -0.227000
     20 O27         1.2020   -3.2670    0.4460 oh        1 DQH     -0.329000
     21 O29        -5.0510   -1.0190   -0.8340 oh        1 DQH     -0.241000
     22 O30        -0.9480   -1.1110   -3.4320 oh        1 DQH     -0.220000
     23 H1         -3.5110   -1.0110   -2.9530 ha        1 DQH      0.161000
     24 H5         -3.3540   -0.9960    1.1500 ha        1 DQH      0.158000
     25 H10         2.2250   -1.6570    0.0990 h1        1 DQH      0.123000
     26 H11         1.1820   -1.3400    2.2340 h1        1 DQH      0.153000
     27 H15        -0.7220    0.9970    0.4840 ha        1 DQH      0.145000
     28 H16        -0.1300    3.2620    0.1030 ha        1 DQH      0.138000
     29 H19         3.0270    0.2780    1.9940 ha        1 DQH      0.155000
     30 H23         4.6490    2.0830    1.3830 ho        1 DQH      0.216000
     31 H24         1.7470    4.9740    1.0950 ho        1 DQH      0.216000
     32 H27         1.8710   -3.6690    0.0200 ho        1 DQH      0.233000
     33 H29        -5.3560   -0.2070   -0.6470 ho        1 DQH      0.229000
     34 H30        -1.3500   -1.6820   -3.9770 ho        1 DQH      0.229000
@<TRIPOS>BOND
     1    1    6 1   
     2    1   23 1   
     3    2    3 1   
     4    2   22 1   
     5    3    7 1   
     6    4    5 1   
     7    4   16 1   
     8    5   24 1   
     9    6   21 1   
    10    7    8 1   
    11    7   17 1   
    12    8    9 1   
    13    8   20 1   
    14    8   25 1   
    15    9   10 1   
    16    9   16 1   
    17    9   26 1   
    18   10   11 1   
    19   10   15 1   
    20   11   12 1   
    21   11   27 1   
    22   12   28 1   
    23   13   14 1   
    24   13   19 1   
    25   14   18 1   
    26   15   29 1   
    27   18   30 1   
    28   19   31 1   
    29   20   32 1   
    30   21   33 1   
    31   22   34 1   
@<TRIPOS>SUBSTRUCTURE
     1 DQH         1 TEMP              0 ****  ****    0 ROOT
