@<TRIPOS>MOLECULE
DQH
   34    36     1     0     0
SMALL
bcc


@<TRIPOS>ATOM
      1 C1         -0.5800   -0.1100    4.5560 ca        1 DQH     -0.308000
      2 C2          0.5720   -0.1060    3.7500 ca        1 DQH      0.276100
      3 C3          0.4770   -0.1210    2.3380 ca        1 DQH     -0.362600
      4 C4         -0.8200   -0.1100    1.7690 ca        1 DQH      0.236100
      5 C5         -1.9790   -0.1100    2.5460 ca        1 DQH     -0.239000
      6 C6         -1.8380   -0.1190    3.9450 ca        1 DQH      0.227100
      7 C9          1.6360   -0.1660    1.4660 c         1 DQH      0.573700
      8 C10         1.3650   -0.3110   -0.0240 c3        1 DQH      0.031100
      9 C11         0.0340    0.3540   -0.4140 c3        1 DQH      0.208400
     10 C14        -0.3430    0.0770   -1.8380 ca        1 DQH     -0.101300
     11 C15        -1.4060   -0.7650   -2.1740 ca        1 DQH     -0.096000
     12 C16        -1.7440   -0.9860   -3.5070 ca        1 DQH     -0.143000
     13 C17        -1.0100   -0.3620   -4.5230 ca        1 DQH      0.122100
     14 C18         0.0680    0.4860   -4.1810 ca        1 DQH      0.035100
     15 C19         0.3980    0.7080   -2.8450 ca        1 DQH     -0.142000
     16 O12        -1.0360   -0.1530    0.4100 os        1 DQH     -0.316900
     17 O13         2.8160   -0.1180    1.8570 o         1 DQH     -0.580100
     18 O23         0.7430    1.0670   -5.2370 oh        1 DQH     -0.518100
     19 O24        -1.3810   -0.6090   -5.8210 oh        1 DQH     -0.492100
     20 O27         2.3860    0.3170   -0.7820 oh        1 DQH     -0.591800
     21 O29        -3.0010   -0.1270    4.6680 oh        1 DQH     -0.482100
     22 O30         1.7440   -0.0950    4.4440 oh        1 DQH     -0.494100
     23 H1         -0.4720   -0.1050    5.6490 ha        1 DQH      0.161000
     24 H5         -2.9740   -0.1060    2.0820 ha        1 DQH      0.176000
     25 H10         1.3360   -1.4110   -0.2700 h1        1 DQH      0.083700
     26 H11         0.1110    1.4660   -0.2450 h1        1 DQH      0.077700
     27 H15        -1.9890   -1.2580   -1.3800 ha        1 DQH      0.153000
     28 H16        -2.5820   -1.6450   -3.7780 ha        1 DQH      0.156000
     29 H19         1.2500    1.3530   -2.5790 ha        1 DQH      0.156000
     30 H23         1.4960    1.5540   -4.8730 ho        1 DQH      0.432000
     31 H24        -0.7780   -0.1210   -6.4040 ho        1 DQH      0.439000
     32 H27         3.2290    0.1110   -0.3500 ho        1 DQH      0.432000
     33 H29        -2.7740   -0.1230    5.6110 ho        1 DQH      0.431000
     34 H30         2.5020   -0.0820    3.8340 ho        1 DQH      0.464000
@<TRIPOS>BOND
     1    1    2 ar  
     2    1    6 ar  
     3    1   23 1   
     4    2    3 ar  
     5    2   22 1   
     6    3    4 ar  
     7    3    7 1   
     8    4    5 ar  
     9    4   16 1   
    10    5    6 ar  
    11    5   24 1   
    12    6   21 1   
    13    7    8 1   
    14    7   17 2   
    15    8    9 1   
    16    8   20 1   
    17    8   25 1   
    18    9   10 1   
    19    9   16 1   
    20    9   26 1   
    21   10   11 ar  
    22   10   15 ar  
    23   11   12 ar  
    24   11   27 1   
    25   12   13 ar  
    26   12   28 1   
    27   13   14 ar  
    28   13   19 1   
    29   14   15 ar  
    30   14   18 1   
    31   15   29 1   
    32   18   30 1   
    33   19   31 1   
    34   20   32 1   
    35   21   33 1   
    36   22   34 1   
@<TRIPOS>SUBSTRUCTURE
     1 DQH         1 TEMP              0 ****  ****    0 ROOT
