@<TRIPOS>MOLECULE
DQH
   34    36     1     0     0
SMALL
bcc


@<TRIPOS>ATOM
      1 C1         -0.0190    0.2740    0.0020 ca        1 DQH     -0.358000
      2 C2          1.3780    0.1530   -0.0060 ca        1 DQH      0.256100
      3 C3          2.1080   -0.0470    1.1880 ca        1 DQH     -0.304600
      4 C4          1.3780   -0.1390    2.3930 ca        1 DQH      0.234100
      5 C5         -0.0170   -0.0240    2.4320 ca        1 DQH     -0.239000
      6 C6         -0.6980    0.1890    1.2250 ca        1 DQH      0.226100
      7 C9          3.5620   -0.1480    1.2020 c         1 DQH      0.565700
      8 C10         4.2010   -0.1510    2.5850 c3        1 DQH      0.024100
      9 C11         3.3040   -0.8730    3.6050 c3        1 DQH      0.204400
     10 C14         3.8360   -0.7640    5.0040 ca        1 DQH     -0.092300
     11 C15         3.2500    0.0810    5.9510 ca        1 DQH     -0.102000
     12 C16         3.7560    0.1430    7.2480 ca        1 DQH     -0.178000
     13 C17         4.8560   -0.6430    7.5990 ca        1 DQH      0.049100
     14 C18         5.4550   -1.4940    6.6450 ca        1 DQH      0.106100
     15 C19         4.9410   -1.5520    5.3450 ca        1 DQH     -0.104000
     16 O12         1.9800   -0.2990    3.6180 os        1 DQH     -0.317900
     17 O13         4.2840   -0.2080    0.2010 o         1 DQH     -0.517100
     18 O23         6.5390   -2.2900    6.9320 oh        1 DQH     -0.492100
     19 O24         5.4200   -0.6450    8.8580 oh        1 DQH     -0.516100
     20 O27         5.4450   -0.8300    2.5720 oh        1 DQH     -0.588800
     21 O29        -2.0610    0.3000    1.3120 oh        1 DQH     -0.483100
     22 O30         2.0970    0.2370   -1.1640 oh        1 DQH     -0.455100
     23 H1         -0.5690    0.4330   -0.9340 ha        1 DQH      0.143000
     24 H5         -0.5620   -0.0960    3.3820 ha        1 DQH      0.175000
     25 H10         4.3640    0.9180    2.9020 h1        1 DQH      0.078700
     26 H11         3.2080   -1.9580    3.3140 h1        1 DQH      0.079700
     27 H15         2.3790    0.6960    5.6760 ha        1 DQH      0.151000
     28 H16         3.2920    0.8060    7.9920 ha        1 DQH      0.136000
     29 H19         5.4260   -2.1970    4.5950 ha        1 DQH      0.172000
     30 H23         6.7900   -2.1290    7.8550 ho        1 DQH      0.436000
     31 H24         4.9250   -0.0190    9.4050 ho        1 DQH      0.430000
     32 H27         5.8630   -0.6480    1.7160 ho        1 DQH      0.432000
     33 H29        -2.4140    0.4310    0.4190 ho        1 DQH      0.427000
     34 H30         1.4780    0.3730   -1.8990 ho        1 DQH      0.424000
@<TRIPOS>BOND
     1    1    2 ar  
     2    1    6 ar  
     3    1   23 1   
     4    2    3 ar  
     5    2   22 1   
     6    3    4 ar  
     7    3    7 1   
     8    4    5 ar  
     9    4   16 1   
    10    5    6 ar  
    11    5   24 1   
    12    6   21 1   
    13    7    8 1   
    14    7   17 2   
    15    8    9 1   
    16    8   20 1   
    17    8   25 1   
    18    9   10 1   
    19    9   16 1   
    20    9   26 1   
    21   10   11 ar  
    22   10   15 ar  
    23   11   12 ar  
    24   11   27 1   
    25   12   13 ar  
    26   12   28 1   
    27   13   14 ar  
    28   13   19 1   
    29   14   15 ar  
    30   14   18 1   
    31   15   29 1   
    32   18   30 1   
    33   19   31 1   
    34   20   32 1   
    35   21   33 1   
    36   22   34 1   
@<TRIPOS>SUBSTRUCTURE
     1 DQH         1 TEMP              0 ****  ****    0 ROOT
