@<TRIPOS>MOLECULE
DQN
   24    24     1     0     0
SMALL
bcc


@<TRIPOS>ATOM
      1 C1          1.4510   -0.0000    0.0000 c         1 DQN      0.558500
      2 O1          2.6890    0.0000    0.0000 o         1 DQN     -0.506100
      3 C2          0.6760   -0.0000    1.2640 cc        1 DQN     -0.137400
      4 C2M         1.4500   -0.0010    2.5270 c3        1 DQN     -0.068900
      5 C3         -0.6760    0.0000    1.2640 cd        1 DQN     -0.137400
      6 C3M        -1.4500    0.0000    2.5270 c3        1 DQN     -0.068900
      7 C4         -1.4510    0.0010    0.0000 c         1 DQN      0.558500
      8 O4         -2.6890    0.0020   -0.0000 o         1 DQN     -0.506100
      9 C5         -0.6750   -0.0000   -1.2640 cc        1 DQN     -0.137400
     10 C5M        -1.4490   -0.0010   -2.5270 c3        1 DQN     -0.068900
     11 C6          0.6760   -0.0010   -1.2640 cd        1 DQN     -0.137400
     12 C6M         1.4500   -0.0020   -2.5270 c3        1 DQN     -0.068900
     13 H2M1        2.5510   -0.0010    2.3300 hc        1 DQN      0.059367
     14 H2M2        1.1940    0.9050    3.1350 hc        1 DQN      0.059367
     15 H2M3        1.1940   -0.9070    3.1340 hc        1 DQN      0.059367
     16 H3M1       -2.5510    0.0010    2.3300 hc        1 DQN      0.059367
     17 H3M2       -1.1950   -0.9050    3.1340 hc        1 DQN      0.059367
     18 H3M3       -1.1940    0.9060    3.1340 hc        1 DQN      0.059367
     19 H5M1       -2.5500    0.0000   -2.3300 hc        1 DQN      0.059367
     20 H5M2       -1.1940    0.9050   -3.1350 hc        1 DQN      0.059367
     21 H5M3       -1.1940   -0.9070   -3.1340 hc        1 DQN      0.059367
     22 H6M1        2.5510   -0.0020   -2.3300 hc        1 DQN      0.059367
     23 H6M2        1.1940   -0.9080   -3.1340 hc        1 DQN      0.059367
     24 H6M3        1.1950    0.9040   -3.1350 hc        1 DQN      0.059367
@<TRIPOS>BOND
     1    1    2 2   
     2    1    3 1   
     3    1   11 1   
     4    3    4 1   
     5    3    5 2   
     6    4   13 1   
     7    4   14 1   
     8    4   15 1   
     9    5    6 1   
    10    5    7 1   
    11    6   16 1   
    12    6   17 1   
    13    6   18 1   
    14    7    8 2   
    15    7    9 1   
    16    9   10 1   
    17    9   11 2   
    18   10   19 1   
    19   10   20 1   
    20   10   21 1   
    21   11   12 1   
    22   12   22 1   
    23   12   23 1   
    24   12   24 1   
@<TRIPOS>SUBSTRUCTURE
     1 DQN         1 TEMP              0 ****  ****    0 ROOT
