@<TRIPOS>MOLECULE
DQN
   24    22     1     0     0
SMALL
bcc


@<TRIPOS>ATOM
      1 C1         -0.7560   -0.0160   -1.3100 c1        1 DQN      0.281000
      2 O1         -1.3640   -0.0220   -2.3620 o         1 DQN     -0.267000
      3 C2          0.7560   -0.0160   -1.3100 c1        1 DQN     -0.114000
      4 C2M         1.5130    0.0100   -2.6200 c3        1 DQN     -0.191000
      5 C3          1.5130   -0.0160    0.0000 c1        1 DQN     -0.114000
      6 C3M         3.0250   -0.0520    0.0000 c2        1 DQN     -0.191000
      7 C4          0.7560    0.0070    1.3100 c2        1 DQN      0.281000
      8 O4          1.3640    0.0420    2.3620 o         1 DQN     -0.267000
      9 C5         -0.7560    0.0050    1.3100 c2        1 DQN     -0.114000
     10 C5M        -1.5130   -0.0090    2.6200 c3        1 DQN     -0.191000
     11 C6         -1.5130    0.0040   -0.0000 c2        1 DQN     -0.114000
     12 C6M        -3.0250    0.0500   -0.0000 c3        1 DQN     -0.191000
     13 H2M1        2.0870    0.7990   -2.6490 hc        1 DQN      0.098667
     14 H2M2        0.8790    0.0430   -3.3610 hc        1 DQN      0.098667
     15 H2M3        2.0610   -0.7940   -2.6960 hc        1 DQN      0.098667
     16 H3M1        3.3700    0.7530   -0.4320 ha        1 DQN      0.098667
     17 H3M2        3.3500   -0.0910    0.9200 ha        1 DQN      0.098667
     18 H3M3        3.3320   -0.8400   -0.4870 ha        1 DQN      0.098667
     19 H5M1       -2.0980   -0.7890    2.6500 hc        1 DQN      0.098667
     20 H5M2       -0.8790   -0.0490    3.3620 hc        1 DQN      0.098667
     21 H5M3       -2.0490    0.8030    2.6950 hc        1 DQN      0.098667
     22 H6M1       -3.3270    0.8470    0.4750 hc        1 DQN      0.098667
     23 H6M2       -3.3750   -0.7460    0.4440 hc        1 DQN      0.098667
     24 H6M3       -3.3500    0.0770   -0.9210 hc        1 DQN      0.098667
@<TRIPOS>BOND
     1    1    2 1   
     2    1   11 1   
     3    3    4 1   
     4    3    5 1   
     5    4   13 1   
     6    4   14 1   
     7    4   15 1   
     8    5    7 1   
     9    6   16 1   
    10    6   17 1   
    11    6   18 1   
    12    7    8 1   
    13    7    9 1   
    14    9   10 1   
    15    9   11 1   
    16   10   19 1   
    17   10   20 1   
    18   10   21 1   
    19   11   12 1   
    20   12   22 1   
    21   12   23 1   
    22   12   24 1   
@<TRIPOS>SUBSTRUCTURE
     1 DQN         1 TEMP              0 ****  ****    0 ROOT
