@<TRIPOS>MOLECULE
DQO
   53    57     1     0     0
SMALL
bcc


@<TRIPOS>ATOM
      1 C1         -0.0340   -0.0280   -0.1190 ca        1 DQO     -0.149300
      2 C2          1.3630   -0.0680   -0.1610 cp        1 DQO      0.019000
      3 C3          2.1110   -0.1970    1.0110 ca        1 DQO     -0.196000
      4 C4          1.4740   -0.2680    2.2680 ca        1 DQO      0.178600
      5 C5          0.0640   -0.2210    2.3130 ca        1 DQO     -0.196000
      6 C6         -0.6920   -0.1030    1.1330 ca        1 DQO      0.127600
      7 N9          2.2010   -0.3040    3.4830 nh        1 DQO     -0.640000
      8 C10         2.0810   -0.0090   -1.4410 cp        1 DQO     -0.095000
      9 N11        -2.0990   -0.0440    1.1780 n         1 DQO     -0.300200
     10 C12        -2.8760   -0.0040   -0.0130 c         1 DQO      0.820500
     11 N13        -2.2290   -0.0740   -1.2460 ns        1 DQO     -0.550900
     12 C14        -0.8120    0.1090   -1.3900 c3        1 DQO      0.147300
     13 O18        -4.1250    0.0510    0.0410 o         1 DQO     -0.645500
     14 C19        -2.7800   -0.0850    2.4240 ca        1 DQO      0.061600
     15 C20         2.6730   -1.1720   -1.9500 ca        1 DQO     -0.070000
     16 C21         3.3810   -1.1630   -3.1450 ca        1 DQO     -0.183000
     17 C22         3.5140    0.0420   -3.8610 ca        1 DQO      0.156900
     18 C23         2.9370    1.2250   -3.3770 ca        1 DQO     -0.212000
     19 C24         2.2210    1.1960   -2.1670 ca        1 DQO      0.164900
     20 C28        -3.0930    1.1090    3.1180 ca        1 DQO      0.038900
     21 C29        -3.7800    1.0680    4.3340 ca        1 DQO     -0.128500
     22 C30        -4.1680   -0.1530    4.8770 ca        1 DQO     -0.105000
     23 C31        -3.8740   -1.3410    4.2140 ca        1 DQO     -0.128500
     24 C32        -3.1860   -1.3130    2.9980 ca        1 DQO      0.038900
     25 F36         1.6710    2.3470   -1.7150 f         1 DQO     -0.126900
     26 F37         4.2040    0.0610   -5.0250 f         1 DQO     -0.131900
     27 Cl38       -2.8480   -2.7840    2.2210 cl        1 DQO     -0.064900
     28 Cl39       -2.6430    2.6190    2.4890 cl        1 DQO     -0.064900
     29 C40         3.6360   -0.0900    3.3870 c3        1 DQO      0.187300
     30 C41         4.2960    0.0720    4.7730 c3        1 DQO      0.158300
     31 N42         3.9440   -0.9910    5.6920 n7        1 DQO     -0.820200
     32 C43         2.5140   -1.2110    5.7820 c3        1 DQO      0.158300
     33 C44         1.8450   -1.3760    4.4020 c3        1 DQO      0.187300
     34 HC3         3.2070   -0.2400    0.9270 ha        1 DQO      0.142000
     35 HC5        -0.4540   -0.2570    3.2850 ha        1 DQO      0.151000
     36 H13        -2.7970    0.1340   -2.0360 hn        1 DQO      0.334500
     37 H141       -0.4460   -0.6610   -2.1340 h1        1 DQO      0.050700
     38 H142       -0.5910    1.1310   -1.8280 h1        1 DQO      0.050700
     39 H20         2.5710   -2.1130   -1.3850 ha        1 DQO      0.153000
     40 H21         3.8390   -2.0830   -3.5360 ha        1 DQO      0.157000
     41 H23         3.0440    2.1670   -3.9330 ha        1 DQO      0.167000
     42 H29        -4.0190    2.0070    4.8590 ha        1 DQO      0.154000
     43 H30        -4.7150   -0.1800    5.8320 ha        1 DQO      0.145000
     44 H31        -4.1880   -2.3060    4.6430 ha        1 DQO      0.154000
     45 H401        4.1450   -0.9400    2.8450 h1        1 DQO      0.046200
     46 H402        3.8140    0.8590    2.8080 h1        1 DQO      0.046200
     47 H411        5.4120    0.0400    4.6250 h1        1 DQO      0.038200
     48 H412        4.0290    1.0930    5.1750 h1        1 DQO      0.038200
     49 H421        4.3210   -0.7990    6.6020 hn        1 DQO      0.366800
     50 H431        1.9870   -0.3780    6.3350 h1        1 DQO      0.038200
     51 H432        2.3520   -2.1650    6.3580 h1        1 DQO      0.038200
     52 H441        2.1340   -2.3810    3.9780 h1        1 DQO      0.046200
     53 H442        0.7320   -1.3700    4.5590 h1        1 DQO      0.046200
@<TRIPOS>BOND
     1    1    2 ar  
     2    1    6 ar  
     3    1   12 1   
     4    2    3 ar  
     5    2    8 1   
     6    3    4 ar  
     7    3   34 1   
     8    4    5 ar  
     9    4    7 1   
    10    5    6 ar  
    11    5   35 1   
    12    6    9 1   
    13    7   29 1   
    14    7   33 1   
    15    8   15 ar  
    16    8   19 ar  
    17    9   10 1   
    18    9   14 1   
    19   10   11 1   
    20   10   13 2   
    21   11   12 1   
    22   11   36 1   
    23   12   37 1   
    24   12   38 1   
    25   14   20 ar  
    26   14   24 ar  
    27   15   16 ar  
    28   15   39 1   
    29   16   17 ar  
    30   16   40 1   
    31   17   18 ar  
    32   17   26 1   
    33   18   19 ar  
    34   18   41 1   
    35   19   25 1   
    36   20   21 ar  
    37   20   28 1   
    38   21   22 ar  
    39   21   42 1   
    40   22   23 ar  
    41   22   43 1   
    42   23   24 ar  
    43   23   44 1   
    44   24   27 1   
    45   29   30 1   
    46   29   45 1   
    47   29   46 1   
    48   30   31 1   
    49   30   47 1   
    50   30   48 1   
    51   31   32 1   
    52   31   49 1   
    53   32   33 1   
    54   32   50 1   
    55   32   51 1   
    56   33   52 1   
    57   33   53 1   
@<TRIPOS>SUBSTRUCTURE
     1 DQO         1 TEMP              0 ****  ****    0 ROOT
