@<TRIPOS>MOLECULE
DQO
   53    57     1     0     0
SMALL
bcc


@<TRIPOS>ATOM
      1 C1         -0.0350   -0.0260   -0.1180 ca        1 DQO     -0.149300
      2 C2          1.3620   -0.0680   -0.1620 cp        1 DQO      0.019000
      3 C3          2.1100   -0.1990    1.0090 ca        1 DQO     -0.196000
      4 C4          1.4750   -0.2690    2.2670 ca        1 DQO      0.178600
      5 C5          0.0650   -0.2200    2.3140 ca        1 DQO     -0.196000
      6 C6         -0.6930   -0.1000    1.1340 ca        1 DQO      0.127600
      7 N9          2.2040   -0.3060    3.4810 nh        1 DQO     -0.640000
      8 C10         2.0780   -0.0090   -1.4420 cp        1 DQO     -0.095000
      9 N11        -2.0990   -0.0400    1.1810 n         1 DQO     -0.300200
     10 C12        -2.8780    0.0020   -0.0090 c         1 DQO      0.820500
     11 N13        -2.2320   -0.0680   -1.2420 n         1 DQO     -0.550900
     12 C14        -0.8150    0.1130   -1.3880 c3        1 DQO      0.147300
     13 O18        -4.1260    0.0590    0.0470 o         1 DQO     -0.645500
     14 C19        -2.7790   -0.0810    2.4280 ca        1 DQO      0.061600
     15 C20         2.6680   -1.1730   -1.9530 ca        1 DQO     -0.070000
     16 C21         3.3740   -1.1650   -3.1480 ca        1 DQO     -0.183000
     17 C22         3.5080    0.0400   -3.8640 ca        1 DQO      0.156900
     18 C23         2.9340    1.2240   -3.3790 ca        1 DQO     -0.212000
     19 C24         2.2190    1.1960   -2.1680 ca        1 DQO      0.164900
     20 C28        -3.0900    1.1120    3.1230 ca        1 DQO      0.038900
     21 C29        -3.7750    1.0710    4.3400 ca        1 DQO     -0.128500
     22 C30        -4.1650   -0.1510    4.8820 ca        1 DQO     -0.105000
     23 C31        -3.8720   -1.3390    4.2170 ca        1 DQO     -0.128500
     24 C32        -3.1850   -1.3100    3.0010 ca        1 DQO      0.038900
     25 F36         1.6710    2.3470   -1.7160 f         1 DQO     -0.126900
     26 F37         4.1970    0.0590   -5.0290 f         1 DQO     -0.131900
     27 CL38       -2.8500   -2.7800    2.2220 cl        1 DQO     -0.064900
     28 CL39       -2.6390    2.6230    2.4960 cl        1 DQO     -0.064900
     29 C40         3.6380   -0.0950    3.3830 c3        1 DQO      0.187300
     30 C41         4.3010    0.0660    4.7680 c3        1 DQO      0.158300
     31 N42         3.9470   -0.9970    5.6880 n3        1 DQO     -0.820200
     32 C43         2.5180   -1.2140    5.7800 c3        1 DQO      0.158300
     33 C44         1.8470   -1.3780    4.4000 c3        1 DQO      0.187300
     34 HC3         3.2060   -0.2430    0.9240 ha        1 DQO      0.142000
     35 HC5        -0.4520   -0.2560    3.2860 ha        1 DQO      0.151000
     36 H13        -2.8010    0.1420   -2.0320 hn        1 DQO      0.334500
     37 H141       -0.4510   -0.6570   -2.1330 h1        1 DQO      0.050700
     38 H142       -0.5930    1.1350   -1.8260 h1        1 DQO      0.050700
     39 H20         2.5650   -2.1140   -1.3880 ha        1 DQO      0.153000
     40 H21         3.8300   -2.0850   -3.5410 ha        1 DQO      0.157000
     41 H23         3.0410    2.1660   -3.9350 ha        1 DQO      0.167000
     42 H29        -4.0130    2.0090    4.8660 ha        1 DQO      0.154000
     43 H30        -4.7100   -0.1780    5.8370 ha        1 DQO      0.145000
     44 H31        -4.1870   -2.3030    4.6450 ha        1 DQO      0.154000
     45 H401        4.1460   -0.9450    2.8400 h1        1 DQO      0.046200
     46 H402        3.8170    0.8540    2.8050 h1        1 DQO      0.046200
     47 H411        5.4160    0.0320    4.6190 h1        1 DQO      0.038200
     48 H412        4.0350    1.0870    5.1710 h1        1 DQO      0.038200
     49 H421        4.3260   -0.8060    6.5970 hn        1 DQO      0.366800
     50 H431        2.3540   -2.1680    6.3550 h1        1 DQO      0.038200
     51 H432        1.9920   -0.3810    6.3330 h1        1 DQO      0.038200
     52 H441        2.1330   -2.3840    3.9750 h1        1 DQO      0.046200
     53 H442        0.7340   -1.3710    4.5580 h1        1 DQO      0.046200
@<TRIPOS>BOND
     1    1    2 ar  
     2    1    6 ar  
     3    1   12 1   
     4    2    3 ar  
     5    2    8 1   
     6    3    4 ar  
     7    3   34 1   
     8    4    5 ar  
     9    4    7 1   
    10    5    6 ar  
    11    5   35 1   
    12    6    9 1   
    13    7   29 1   
    14    7   33 1   
    15    8   15 ar  
    16    8   19 ar  
    17    9   10 1   
    18    9   14 1   
    19   10   11 1   
    20   10   13 2   
    21   11   12 1   
    22   11   36 1   
    23   12   37 1   
    24   12   38 1   
    25   14   20 ar  
    26   14   24 ar  
    27   15   16 ar  
    28   15   39 1   
    29   16   17 ar  
    30   16   40 1   
    31   17   18 ar  
    32   17   26 1   
    33   18   19 ar  
    34   18   41 1   
    35   19   25 1   
    36   20   21 ar  
    37   20   28 1   
    38   21   22 ar  
    39   21   42 1   
    40   22   23 ar  
    41   22   43 1   
    42   23   24 ar  
    43   23   44 1   
    44   24   27 1   
    45   29   30 1   
    46   29   45 1   
    47   29   46 1   
    48   30   31 1   
    49   30   47 1   
    50   30   48 1   
    51   31   32 1   
    52   31   49 1   
    53   32   33 1   
    54   32   50 1   
    55   32   51 1   
    56   33   52 1   
    57   33   53 1   
@<TRIPOS>SUBSTRUCTURE
     1 DQO         1 TEMP              0 ****  ****    0 ROOT
