@<TRIPOS>MOLECULE
DQO
   53    48     1     0     0
SMALL
bcc


@<TRIPOS>ATOM
      1 C1         -0.6060   -0.0290   -1.7170 c1        1 DQO     -0.116000
      2 C2          0.8220    0.0040   -1.7460 c1        1 DQO     -0.048500
      3 C3          1.5410   -0.0470   -0.5610 c1        1 DQO     -0.117500
      4 C4          0.8730   -0.1310    0.6550 c1        1 DQO      0.041000
      5 C5         -0.5170   -0.1630    0.6850 c1        1 DQO     -0.140000
      6 C6         -1.2590   -0.1100   -0.5340 c1        1 DQO      0.111000
      7 N9          1.3150   -0.0740    2.0380 n3        1 DQO     -0.224000
      8 C10         1.6830    0.0210   -2.8550 c1        1 DQO     -0.048500
      9 N11        -2.7460   -0.0380   -0.4990 n         1 DQO     -0.247000
     10 C12        -3.4880   -0.1830   -1.6940 c2        1 DQO      0.410000
     11 N13        -2.8250   -0.1580   -2.9540 n         1 DQO     -0.362000
     12 C14        -1.3870   -0.0590   -3.0090 c3        1 DQO      0.019000
     13 O18        -4.6940   -0.2360   -1.6500 o         1 DQO     -0.367000
     14 C19        -3.4350    0.1010    0.7610 c2        1 DQO      0.067000
     15 C20         2.2050   -1.1470   -3.4040 c1        1 DQO     -0.117500
     16 C21         3.0170   -1.0830   -4.5240 c1        1 DQO     -0.196500
     17 C22         3.3120    0.1520   -5.1020 c1        1 DQO      0.126000
     18 C23         2.7900    1.3190   -4.5530 c1        1 DQO     -0.196500
     19 C24         1.9780    1.2550   -3.4330 c1        1 DQO      0.126000
     20 C28        -3.8520    1.2130    1.4920 c2        1 DQO     -0.036000
     21 C29        -4.6320    1.0430    2.6380 c1        1 DQO     -0.127000
     22 C30        -4.9920   -0.2300    3.0490 c1        1 DQO     -0.115000
     23 C31        -4.5740   -1.3430    2.3160 c1        1 DQO     -0.115000
     24 C32        -3.7960   -1.1740    1.1720 c1        1 DQO     -0.040000
     25 F36         1.8610    2.6190   -3.3030 f         1 DQO     -0.095000
     26 F37         4.1390    0.2190   -6.1420 f         1 DQO     -0.095000
     27 CL38       -3.9250   -2.8690    0.6160 cl        1 DQO      0.012000
     28 CL39       -3.4520    2.8410    0.9260 cl        1 DQO      0.013000
     29 C40         1.8610    1.2050    2.3050 c3        1 DQO     -0.066500
     30 C41         2.4830    1.2910    3.6770 c3        1 DQO     -0.076000
     31 N42         3.4190    0.2290    3.9210 n3        1 DQO     -0.300000
     32 C43         2.8720   -1.0560    3.6530 c3        1 DQO     -0.076000
     33 C44         2.2530   -1.1410    2.2830 c3        1 DQO     -0.066500
     34 HC3         2.5370   -0.0240   -0.5820 ha        1 DQO      0.148500
     35 HC5        -0.9680   -0.2200    1.5110 ha        1 DQO      0.161000
     36 H13        -3.3100   -0.2540   -3.7290 hn        1 DQO      0.248000
     37 H141       -1.0710   -0.7990   -3.5180 h1        1 DQO      0.093000
     38 H142       -1.1580    0.7890   -3.5230 h1        1 DQO      0.093000
     39 H20         1.9950   -2.0300   -2.9890 ha        1 DQO      0.148500
     40 H21         3.4020   -1.9430   -4.9290 ha        1 DQO      0.162500
     41 H23         2.9920    2.1670   -4.9490 ha        1 DQO      0.162500
     42 H29        -4.9070    1.7770    3.1210 ha        1 DQO      0.154000
     43 H30        -5.5270   -0.3470    3.8330 ha        1 DQO      0.149500
     44 H31        -4.8240   -2.2300    2.6010 ha        1 DQO      0.149500
     45 H401        1.1560    1.8670    2.2390 h1        1 DQO      0.082750
     46 H402        2.5260    1.3960    1.6530 h1        1 DQO      0.082750
     47 H411        1.7670    1.2510    4.3580 h1        1 DQO      0.075750
     48 H412        2.9780    2.2010    3.7650 h1        1 DQO      0.075750
     49 H421        3.6870    0.2650    4.7410 hn        1 DQO      0.160000
     50 H431        3.5950   -1.7340    3.7210 h1        1 DQO      0.075750
     51 H432        2.1830   -1.2560    4.3260 h1        1 DQO      0.075750
     52 H441        1.7770   -2.0160    2.1980 h1        1 DQO      0.082750
     53 H442        2.9290   -1.1020    1.6430 h1        1 DQO      0.082750
@<TRIPOS>BOND
     1    1    6 1   
     2    1   12 1   
     3    2    3 1   
     4    3   34 1   
     5    4    5 1   
     6    4    7 1   
     7    5   35 1   
     8    6    9 1   
     9    7   29 1   
    10    7   33 1   
    11    8   15 1   
    12    9   10 1   
    13    9   14 1   
    14   10   11 1   
    15   10   13 1   
    16   11   12 1   
    17   11   36 1   
    18   12   37 1   
    19   12   38 1   
    20   14   20 1   
    21   14   24 1   
    22   15   39 1   
    23   16   17 1   
    24   16   40 1   
    25   17   26 1   
    26   18   19 1   
    27   18   41 1   
    28   19   25 1   
    29   20   21 1   
    30   20   28 1   
    31   21   42 1   
    32   22   23 1   
    33   22   43 1   
    34   23   44 1   
    35   24   27 1   
    36   29   30 1   
    37   29   45 1   
    38   29   46 1   
    39   30   31 1   
    40   30   47 1   
    41   30   48 1   
    42   31   32 1   
    43   31   49 1   
    44   32   33 1   
    45   32   50 1   
    46   32   51 1   
    47   33   52 1   
    48   33   53 1   
@<TRIPOS>SUBSTRUCTURE
     1 DQO         1 TEMP              0 ****  ****    0 ROOT
