@<TRIPOS>MOLECULE
DQO
   53    57     1     0     0
SMALL
bcc


@<TRIPOS>ATOM
      1 C1          0.9400    0.1770   -0.8540 ca        1 DQO     -0.149300
      2 C2          0.0150    0.0850   -1.8990 cp        1 DQO      0.019000
      3 C3         -1.3490   -0.0510   -1.6370 ca        1 DQO     -0.196000
      4 C4         -1.8250   -0.1220   -0.3100 ca        1 DQO      0.178600
      5 C5         -0.8930   -0.0360    0.7460 ca        1 DQO     -0.196000
      6 C6          0.4810    0.1140    0.4850 ca        1 DQO      0.127600
      7 N9         -3.1890   -0.3560   -0.0080 nh        1 DQO     -0.640000
      8 C10         0.4500    0.1630   -3.2990 cp        1 DQO     -0.095000
      9 N11         1.4130    0.1880    1.5390 n         1 DQO     -0.300200
     10 C12         2.7950    0.4180    1.2890 c         1 DQO      0.820500
     11 N13         3.2200    0.6220   -0.0220 n         1 DQO     -0.550900
     12 C14         2.3970    0.3250   -1.1600 c3        1 DQO      0.147300
     13 O18         3.6120    0.4790    2.2340 o         1 DQO     -0.645500
     14 C19         0.9800    0.0950    2.8890 ca        1 DQO      0.061600
     15 C20         0.1960    1.3280   -4.0330 ca        1 DQO     -0.070000
     16 C21         0.5680    1.4430   -5.3660 ca        1 DQO     -0.183000
     17 C22         1.2110    0.3630   -6.0000 ca        1 DQO      0.156900
     18 C23         1.4770   -0.8200   -5.2950 ca        1 DQO     -0.212000
     19 C24         1.0960   -0.9160   -3.9440 ca        1 DQO      0.164900
     20 C28         0.9200   -1.1580    3.5450 ca        1 DQO      0.038900
     21 C29         0.5120   -1.2460    4.8790 ca        1 DQO     -0.128500
     22 C30         0.1630   -0.0960    5.5800 ca        1 DQO     -0.105000
     23 C31         0.2150    1.1490    4.9580 ca        1 DQO     -0.128500
     24 C32         0.6190    1.2480    3.6240 ca        1 DQO      0.038900
     25 F36         1.3610   -2.0650   -3.2800 f         1 DQO     -0.126900
     26 F37         1.5750    0.4630   -7.2990 f         1 DQO     -0.131900
     27 CL38        0.6710    2.7850    2.9040 cl        1 DQO     -0.064900
     28 CL39        1.3420   -2.5850    2.7290 cl        1 DQO     -0.064900
     29 C40        -4.0540   -0.6910   -1.1280 c3        1 DQO      0.187300
     30 C41        -5.4570   -1.1400   -0.6680 c3        1 DQO      0.158300
     31 N42        -6.0700   -0.2110    0.2600 n3        1 DQO     -0.820200
     32 C43        -5.2060    0.1320    1.3710 c3        1 DQO      0.158300
     33 C44        -3.8010    0.5840    0.9210 c3        1 DQO      0.187300
     34 HC3        -2.0410   -0.1050   -2.4910 ha        1 DQO      0.142000
     35 HC5        -1.2400   -0.1070    1.7900 ha        1 DQO      0.151000
     36 H13         4.2060    0.6010   -0.1570 hn        1 DQO      0.334500
     37 H141        2.5350    1.1650   -1.9060 h1        1 DQO      0.050700
     38 H142        2.7480   -0.6300   -1.6610 h1        1 DQO      0.050700
     39 H20        -0.3120    2.1710   -3.5350 ha        1 DQO      0.153000
     40 H21         0.3650    2.3640   -5.9310 ha        1 DQO      0.157000
     41 H23         1.9750   -1.6660   -5.7900 ha        1 DQO      0.167000
     42 H29         0.4750   -2.2280    5.3760 ha        1 DQO      0.154000
     43 H30        -0.1510   -0.1690    6.6330 ha        1 DQO      0.145000
     44 H31        -0.0560    2.0580    5.5180 ha        1 DQO      0.154000
     45 H401       -4.1700    0.1800   -1.8360 h1        1 DQO      0.046200
     46 H402       -3.5870   -1.5480   -1.6900 h1        1 DQO      0.046200
     47 H411       -6.1140   -1.1950   -1.5810 h1        1 DQO      0.038200
     48 H412       -5.3730   -2.1810   -0.2380 h1        1 DQO      0.038200
     49 H421       -6.9370   -0.5830    0.5990 hn        1 DQO      0.366800
     50 H431       -5.6820    0.9920    1.9210 h1        1 DQO      0.038200
     51 H432       -5.0870   -0.7220    2.1000 h1        1 DQO      0.038200
     52 H441       -3.1570    0.6630    1.8400 h1        1 DQO      0.046200
     53 H442       -3.8810    1.6110    0.4610 h1        1 DQO      0.046200
@<TRIPOS>BOND
     1    1    2 ar  
     2    1    6 ar  
     3    1   12 1   
     4    2    3 ar  
     5    2    8 1   
     6    3    4 ar  
     7    3   34 1   
     8    4    5 ar  
     9    4    7 1   
    10    5    6 ar  
    11    5   35 1   
    12    6    9 1   
    13    7   29 1   
    14    7   33 1   
    15    8   15 ar  
    16    8   19 ar  
    17    9   10 1   
    18    9   14 1   
    19   10   11 1   
    20   10   13 2   
    21   11   12 1   
    22   11   36 1   
    23   12   37 1   
    24   12   38 1   
    25   14   20 ar  
    26   14   24 ar  
    27   15   16 ar  
    28   15   39 1   
    29   16   17 ar  
    30   16   40 1   
    31   17   18 ar  
    32   17   26 1   
    33   18   19 ar  
    34   18   41 1   
    35   19   25 1   
    36   20   21 ar  
    37   20   28 1   
    38   21   22 ar  
    39   21   42 1   
    40   22   23 ar  
    41   22   43 1   
    42   23   24 ar  
    43   23   44 1   
    44   24   27 1   
    45   29   30 1   
    46   29   45 1   
    47   29   46 1   
    48   30   31 1   
    49   30   47 1   
    50   30   48 1   
    51   31   32 1   
    52   31   49 1   
    53   32   33 1   
    54   32   50 1   
    55   32   51 1   
    56   33   52 1   
    57   33   53 1   
@<TRIPOS>SUBSTRUCTURE
     1 DQO         1 TEMP              0 ****  ****    0 ROOT
