@<TRIPOS>MOLECULE
DQO
   53    57     1     0     0
SMALL
bcc


@<TRIPOS>ATOM
      1 C1         -0.0340   -0.0300   -0.1190 ca        1 DQO     -0.149300
      2 C2          1.3630   -0.0690   -0.1610 cp        1 DQO      0.019000
      3 C3          2.1110   -0.1960    1.0110 ca        1 DQO     -0.195000
      4 C4          1.4740   -0.2670    2.2680 ca        1 DQO      0.178600
      5 C5          0.0640   -0.2210    2.3130 ca        1 DQO     -0.196000
      6 C6         -0.6920   -0.1040    1.1330 ca        1 DQO      0.127600
      7 N9          2.2010   -0.3010    3.4830 nh        1 DQO     -0.639000
      8 C10         2.0810   -0.0100   -1.4410 cp        1 DQO     -0.095000
      9 N11        -2.0990   -0.0470    1.1780 n         1 DQO     -0.300200
     10 C12        -2.8770   -0.0090   -0.0140 c         1 DQO      0.820500
     11 N13        -2.2290   -0.0790   -1.2460 n         1 DQO     -0.550900
     12 C14        -0.8120    0.1060   -1.3900 c3        1 DQO      0.147300
     13 O18        -4.1250    0.0460    0.0410 o         1 DQO     -0.645500
     14 C19        -2.7800   -0.0860    2.4240 ca        1 DQO      0.061600
     15 C20         2.6750   -1.1720   -1.9490 ca        1 DQO     -0.070000
     16 C21         3.3830   -1.1640   -3.1430 ca        1 DQO     -0.183000
     17 C22         3.5140    0.0400   -3.8610 ca        1 DQO      0.156900
     18 C23         2.9360    1.2230   -3.3780 ca        1 DQO     -0.212000
     19 C24         2.2200    1.1940   -2.1680 ca        1 DQO      0.164900
     20 C28        -3.0940    1.1080    3.1160 ca        1 DQO      0.038900
     21 C29        -3.7810    1.0680    4.3320 ca        1 DQO     -0.128500
     22 C30        -4.1690   -0.1530    4.8760 ca        1 DQO     -0.105000
     23 C31        -3.8730   -1.3410    4.2150 ca        1 DQO     -0.128500
     24 C32        -3.1850   -1.3140    2.9990 ca        1 DQO      0.038900
     25 F36         1.6680    2.3450   -1.7180 f         1 DQO     -0.126900
     26 F37         4.2050    0.0590   -5.0250 f         1 DQO     -0.131900
     27 CL38       -2.8460   -2.7860    2.2240 cl        1 DQO     -0.064900
     28 CL39       -2.6450    2.6180    2.4860 cl        1 DQO     -0.064900
     29 C40         3.6360   -0.0870    3.3870 c3        1 DQO      0.187300
     30 C41         4.2960    0.0770    4.7730 c3        1 DQO      0.158300
     31 N42         3.9440   -0.9860    5.6920 n3        1 DQO     -0.820200
     32 C43         2.5150   -1.2070    5.7830 c3        1 DQO      0.158300
     33 C44         1.8460   -1.3730    4.4020 c3        1 DQO      0.187300
     34 HC3         3.2070   -0.2380    0.9270 ha        1 DQO      0.142000
     35 HC5        -0.4540   -0.2560    3.2850 ha        1 DQO      0.151000
     36 H13        -2.7970    0.1280   -2.0360 hn        1 DQO      0.334500
     37 H141       -0.5920    1.1280   -1.8290 h1        1 DQO      0.050700
     38 H142       -0.4450   -0.6650   -2.1330 h1        1 DQO      0.050700
     39 H20         2.5730   -2.1130   -1.3830 ha        1 DQO      0.153000
     40 H21         3.8410   -2.0840   -3.5340 ha        1 DQO      0.157000
     41 H23         3.0420    2.1650   -3.9350 ha        1 DQO      0.167000
     42 H29        -4.0210    2.0070    4.8560 ha        1 DQO      0.154000
     43 H30        -4.7160   -0.1780    5.8310 ha        1 DQO      0.145000
     44 H31        -4.1870   -2.3050    4.6450 ha        1 DQO      0.154000
     45 H401        3.8130    0.8630    2.8080 h1        1 DQO      0.046200
     46 H402        4.1460   -0.9360    2.8450 h1        1 DQO      0.046200
     47 H411        4.0270    1.0970    5.1740 h1        1 DQO      0.038200
     48 H412        5.4120    0.0450    4.6250 h1        1 DQO      0.038200
     49 H421        4.3220   -0.7940    6.6020 hn        1 DQO      0.366800
     50 H431        2.3530   -2.1620    6.3580 h1        1 DQO      0.038200
     51 H432        1.9870   -0.3760    6.3350 h1        1 DQO      0.038200
     52 H441        2.1360   -2.3790    3.9790 h1        1 DQO      0.046200
     53 H442        0.7330   -1.3690    4.5590 h1        1 DQO      0.046200
@<TRIPOS>BOND
     1    1    2 ar  
     2    1    6 ar  
     3    1   12 1   
     4    2    3 ar  
     5    2    8 1   
     6    3    4 ar  
     7    3   34 1   
     8    4    5 ar  
     9    4    7 1   
    10    5    6 ar  
    11    5   35 1   
    12    6    9 1   
    13    7   29 1   
    14    7   33 1   
    15    8   15 ar  
    16    8   19 ar  
    17    9   10 1   
    18    9   14 1   
    19   10   11 1   
    20   10   13 2   
    21   11   12 1   
    22   11   36 1   
    23   12   37 1   
    24   12   38 1   
    25   14   20 ar  
    26   14   24 ar  
    27   15   16 ar  
    28   15   39 1   
    29   16   17 ar  
    30   16   40 1   
    31   17   18 ar  
    32   17   26 1   
    33   18   19 ar  
    34   18   41 1   
    35   19   25 1   
    36   20   21 ar  
    37   20   28 1   
    38   21   22 ar  
    39   21   42 1   
    40   22   23 ar  
    41   22   43 1   
    42   23   24 ar  
    43   23   44 1   
    44   24   27 1   
    45   29   30 1   
    46   29   45 1   
    47   29   46 1   
    48   30   31 1   
    49   30   47 1   
    50   30   48 1   
    51   31   32 1   
    52   31   49 1   
    53   32   33 1   
    54   32   50 1   
    55   32   51 1   
    56   33   52 1   
    57   33   53 1   
@<TRIPOS>SUBSTRUCTURE
     1 DQO         1 TEMP              0 ****  ****    0 ROOT
