@<TRIPOS>MOLECULE
DQQ
   24    24     1     0     0
SMALL
bcc


@<TRIPOS>ATOM
      1 N1         -0.3910    0.5190   -0.9870 n3        1 DQQ     -0.814200
      2 C1          0.9860   -0.2790   -0.8450 c3        1 DQQ      0.129000
      3 C2          1.4110   -0.0700    0.3940 c3        1 DQQ      0.099600
      4 C3          0.1320    0.1940    1.2150 c3        1 DQQ      0.099600
      5 C4         -1.0050    0.3960    0.1680 c3        1 DQQ      0.129000
      6 C5          0.7580   -1.7610   -1.0750 c3        1 DQQ      0.124900
      7 C6         -1.8070    1.6790    0.4900 c3        1 DQQ      0.124900
      8 O1          2.2940    1.1040    0.4370 oh        1 DQQ     -0.589800
      9 O2         -0.1430   -0.8630    2.0070 oh        1 DQQ     -0.589800
     10 O3          1.0690   -2.0850   -2.4270 oh        1 DQQ     -0.599300
     11 O4         -3.0460    1.6520   -0.2050 oh        1 DQQ     -0.599300
     12 HN1        -0.8990    0.1360   -1.6460 hn        1 DQQ      0.384800
     13 H1          1.6400    0.0640   -1.4860 h1        1 DQQ      0.080200
     14 H2          1.8770   -0.8610    0.7330 h1        1 DQQ      0.073200
     15 H3          0.2390    1.0010    1.7550 h1        1 DQQ      0.073200
     16 H4         -1.5970   -0.3810    0.1560 h1        1 DQQ      0.080200
     17 H51        -0.1840   -1.9810   -0.8920 h1        1 DQQ      0.040950
     18 H52         1.3380   -2.2770   -0.4730 h1        1 DQQ      0.040950
     19 H61        -1.9760    1.7250    1.4540 h1        1 DQQ      0.040950
     20 H62        -1.2870    2.4730    0.2080 h1        1 DQQ      0.040950
     21 HO1         3.1190    0.8490    0.6680 ho        1 DQQ      0.409000
     22 HO2        -0.0390   -0.6290    2.8650 ho        1 DQQ      0.409000
     23 HO3         1.0420   -2.9800   -2.5350 ho        1 DQQ      0.407500
     24 HO4        -3.5310    2.3750    0.0190 ho        1 DQQ      0.407500
@<TRIPOS>BOND
     1    1    2 1   
     2    1    5 1   
     3    1   12 1   
     4    2    3 1   
     5    2    6 1   
     6    2   13 1   
     7    3    4 1   
     8    3    8 1   
     9    3   14 1   
    10    4    5 1   
    11    4    9 1   
    12    4   15 1   
    13    5    7 1   
    14    5   16 1   
    15    6   10 1   
    16    6   17 1   
    17    6   18 1   
    18    7   11 1   
    19    7   19 1   
    20    7   20 1   
    21    8   21 1   
    22    9   22 1   
    23   10   23 1   
    24   11   24 1   
@<TRIPOS>SUBSTRUCTURE
     1 DQQ         1 TEMP              0 ****  ****    0 ROOT
