@<TRIPOS>MOLECULE
DQQ
   24    24     1     0     0
SMALL
bcc


@<TRIPOS>ATOM
      1 N1         -0.1330    1.1180    0.0120 n3        1 DQQ     -0.804200
      2 C1          1.0640    0.3350    0.3080 c3        1 DQQ      0.154000
      3 C2          0.7370   -1.1750    0.1380 c3        1 DQQ      0.089100
      4 C3         -0.7550   -1.2400   -0.2660 c3        1 DQQ      0.089100
      5 C4         -1.2440    0.2310   -0.3380 c3        1 DQQ      0.154000
      6 C5          2.2950    0.6670   -0.5520 c3        1 DQQ      0.127900
      7 C6         -2.4400    0.4140    0.6170 c3        1 DQQ      0.127900
      8 O1          0.9760   -1.7900    1.3890 oh        1 DQQ     -0.586800
      9 O2         -0.9130   -1.7890   -1.5610 oh        1 DQQ     -0.586800
     10 O3          2.5740    2.0470   -0.3880 oh        1 DQQ     -0.597300
     11 O4         -3.0120    1.6970    0.4950 oh        1 DQQ     -0.597300
     12 HN1         0.0460    1.7780   -0.7210 hn        1 DQQ      0.377800
     13 H1          1.3240    0.5400    1.3890 h1        1 DQQ      0.089200
     14 H2          1.3760   -1.6520   -0.6540 h1        1 DQQ      0.051700
     15 H3         -1.3420   -1.8320    0.4860 h1        1 DQQ      0.051700
     16 H4         -1.6150    0.4420   -1.3850 h1        1 DQQ      0.089200
     17 H51         2.1000    0.4480   -1.6370 h1        1 DQQ      0.039200
     18 H52         3.1610    0.0470   -0.1990 h1        1 DQQ      0.039200
     19 H61        -3.2590   -0.2930    0.3150 h1        1 DQQ      0.039200
     20 H62        -2.1360    0.2160    1.6790 h1        1 DQQ      0.039200
     21 HO1         0.7680   -2.7270    1.2860 ho        1 DQQ      0.399000
     22 HO2        -0.7130   -2.7300   -1.4950 ho        1 DQQ      0.399000
     23 HO3         3.4030    2.2160   -0.8500 ho        1 DQQ      0.408000
     24 HO4        -2.3570    2.3360    0.8040 ho        1 DQQ      0.408000
@<TRIPOS>BOND
     1    1    2 1   
     2    1    5 1   
     3    1   12 1   
     4    2    3 1   
     5    2    6 1   
     6    2   13 1   
     7    3    4 1   
     8    3    8 1   
     9    3   14 1   
    10    4    5 1   
    11    4    9 1   
    12    4   15 1   
    13    5    7 1   
    14    5   16 1   
    15    6   10 1   
    16    6   17 1   
    17    6   18 1   
    18    7   11 1   
    19    7   19 1   
    20    7   20 1   
    21    8   21 1   
    22    9   22 1   
    23   10   23 1   
    24   11   24 1   
@<TRIPOS>SUBSTRUCTURE
     1 DQQ         1 TEMP              0 ****  ****    0 ROOT
