@<TRIPOS>MOLECULE
DQT
   59    61     1     0     0
SMALL
bcc


@<TRIPOS>ATOM
      1 C1         -0.0100    0.3290    0.0830 c3        1 DQT      0.339900
      2 O1         -0.5070    0.7120   -1.1720 os        1 DQT     -0.396600
      3 C2          1.5340    0.2510   -0.0350 c3        1 DQT      0.111100
      4 O2          1.9550    1.4620   -0.6580 os        1 DQT     -0.433900
      5 C3          2.1200    0.1320    1.3940 c3        1 DQT      0.060500
      6 N3          3.6150    0.1440    1.3550 ny        1 DQT     -0.672800
      7 C4          1.5800    1.2730    2.3030 c3        1 DQT      0.111100
      8 O4          2.1260    2.5030    1.8900 oh        1 DQT     -0.596800
      9 C5          0.0460    1.2390    2.2700 c3        1 DQT      0.067100
     10 O5         -0.4200    1.3940    0.9300 os        1 DQT     -0.430600
     11 C6         -0.5530    2.4090    3.0630 c3        1 DQT      0.146400
     12 O6         -1.9520    2.2850    3.1350 oh        1 DQT     -0.574800
     13 CA1         3.0000    1.4010   -1.5650 c         1 DQT      0.692700
     14 OA1         3.8040    0.4730   -1.3890 o         1 DQT     -0.613000
     15 CA2         3.0260    2.4810   -2.5400 ca        1 DQT     -0.179600
     16 CA3         4.1680    2.6400   -3.3420 ca        1 DQT     -0.049000
     17 CA4         4.2100    3.6580   -4.2870 ca        1 DQT     -0.151000
     18 CA5         3.1190    4.5250   -4.4500 ca        1 DQT     -0.001300
     19 CA6         1.9800    4.3550   -3.6500 ca        1 DQT     -0.151000
     20 CA7         1.9280    3.3390   -2.7010 ca        1 DQT     -0.049000
     21 CA8         3.1630    5.5960   -5.4700 c3        1 DQT     -0.075800
     22 CB1         4.2950   -0.4980    2.5420 c         1 DQT      0.580700
     23 OB1         3.5580   -0.9120    3.4310 o         1 DQT     -0.454100
     24 CB2         5.7540   -0.5420    2.5000 ca        1 DQT     -0.221600
     25 CB3         6.4060   -0.9230    3.6880 ca        1 DQT     -0.055000
     26 CB4         7.7940   -0.9930    3.7310 ca        1 DQT     -0.139000
     27 CB5         8.5570   -0.6910    2.5960 ca        1 DQT      0.017700
     28 CB6         7.9010   -0.3170    1.4110 ca        1 DQT     -0.139000
     29 CB7         6.5160   -0.2420    1.3570 ca        1 DQT     -0.055000
     30 CB8        10.0330   -0.7800    2.6350 c3        1 DQT     -0.082800
     31 CME        -1.9260    0.5990   -1.2880 c3        1 DQT      0.114700
     32 H1         -0.4220   -0.6550    0.4430 h2        1 DQT      0.065700
     33 H2          1.8190   -0.6390   -0.6630 h1        1 DQT      0.103700
     34 H3          1.7900   -0.8580    1.8320 hx        1 DQT      0.126700
     35 HN3         3.9160    1.1300    1.2970 hn        1 DQT      0.480800
     36 H4          1.9430    1.1240    3.3610 h1        1 DQT      0.112700
     37 HO4         1.6100    2.8220    1.1310 ho        1 DQT      0.446000
     38 H5         -0.3220    0.2610    2.6890 h1        1 DQT      0.077700
     39 H6         -0.1940    2.3620    4.1260 h1        1 DQT      0.070700
     40 H6A        -0.2490    3.3810    2.5910 h1        1 DQT      0.070700
     41 HO6        -2.3010    2.4330    2.2460 ho        1 DQT      0.416000
     42 HA3         5.0210    1.9530   -3.2200 ha        1 DQT      0.157000
     43 HA4         5.1050    3.7850   -4.9170 ha        1 DQT      0.154000
     44 HA6         1.1190    5.0290   -3.7760 ha        1 DQT      0.154000
     45 HA7         1.0270    3.1970   -2.0800 ha        1 DQT      0.157000
     46 HA8         2.7830    5.2010   -6.4470 hc        1 DQT      0.063367
     47 HA8A        4.2090    5.9610   -5.6250 hc        1 DQT      0.063367
     48 HA8B        2.5240    6.4630   -5.1710 hc        1 DQT      0.063367
     49 HB3         5.8100   -1.1670    4.5850 ha        1 DQT      0.154500
     50 HB4         8.2970   -1.2880    4.6670 ha        1 DQT      0.164500
     51 HB6         8.4960   -0.0830    0.5120 ha        1 DQT      0.164500
     52 HB7         6.0500    0.0450    0.4000 ha        1 DQT      0.154500
     53 HB8        10.4210   -0.5960    3.6680 hc        1 DQT      0.070700
     54 HB8A       10.5000   -0.0380    1.9410 hc        1 DQT      0.070700
     55 HB8B       10.3560   -1.8060    2.3180 hc        1 DQT      0.070700
     56 HME        -2.4310    1.2630   -0.5470 h1        1 DQT      0.055033
     57 HMEA       -2.1290    0.9390   -2.3350 h1        1 DQT      0.055033
     58 HMEB       -2.2420   -0.4640   -1.1460 h1        1 DQT      0.055033
     59 H32         3.9300   -0.3330    0.4910 hn        1 DQT      0.480800
@<TRIPOS>BOND
     1    1    2 1   
     2    1    3 1   
     3    1   10 1   
     4    1   32 1   
     5    2   31 1   
     6    3    4 1   
     7    3    5 1   
     8    3   33 1   
     9    4   13 1   
    10    5    6 1   
    11    5    7 1   
    12    5   34 1   
    13    6   22 1   
    14    6   35 1   
    15    6   59 1   
    16    7    8 1   
    17    7    9 1   
    18    7   36 1   
    19    8   37 1   
    20    9   10 1   
    21    9   11 1   
    22    9   38 1   
    23   11   12 1   
    24   11   39 1   
    25   11   40 1   
    26   12   41 1   
    27   13   14 2   
    28   13   15 1   
    29   15   16 ar  
    30   15   20 ar  
    31   16   17 ar  
    32   16   42 1   
    33   17   18 ar  
    34   17   43 1   
    35   18   19 ar  
    36   18   21 1   
    37   19   20 ar  
    38   19   44 1   
    39   20   45 1   
    40   21   46 1   
    41   21   47 1   
    42   21   48 1   
    43   22   23 2   
    44   22   24 1   
    45   24   25 ar  
    46   24   29 ar  
    47   25   26 ar  
    48   25   49 1   
    49   26   27 ar  
    50   26   50 1   
    51   27   28 ar  
    52   27   30 1   
    53   28   29 ar  
    54   28   51 1   
    55   29   52 1   
    56   30   53 1   
    57   30   54 1   
    58   30   55 1   
    59   31   56 1   
    60   31   57 1   
    61   31   58 1   
@<TRIPOS>SUBSTRUCTURE
     1 DQT         1 TEMP              0 ****  ****    0 ROOT
