@<TRIPOS>MOLECULE
DQT
   59    61     1     0     0
SMALL
bcc


@<TRIPOS>ATOM
      1 C1         -0.0070    0.3180    0.0660 c3        1 DQT      0.339900
      2 O1         -0.5010    0.7040   -1.1900 os        1 DQT     -0.396600
      3 C2          1.5370    0.2460   -0.0450 c3        1 DQT      0.111100
      4 O2          1.9570    1.4620   -0.6630 os        1 DQT     -0.433900
      5 C3          2.1170    0.1260    1.3860 c3        1 DQT      0.060500
      6 N3          3.6120    0.1430    1.3540 n4        1 DQT     -0.672800
      7 C4          1.5690    1.2630    2.2960 c3        1 DQT      0.111100
      8 O4          2.1130    2.4960    1.8890 oh        1 DQT     -0.596800
      9 C5          0.0360    1.2230    2.2560 c3        1 DQT      0.067100
     10 O5         -0.4250    1.3800    0.9140 os        1 DQT     -0.430600
     11 C6         -0.5720    2.3890    3.0500 c3        1 DQT      0.146400
     12 O6         -1.9700    2.2600    3.1150 oh        1 DQT     -0.574800
     13 CA1         3.0060    1.4060   -1.5650 c         1 DQT      0.692700
     14 OA1         3.8130    0.4810   -1.3870 o         1 DQT     -0.613000
     15 CA2         3.0330    2.4880   -2.5370 ca        1 DQT     -0.179600
     16 CA3         4.1780    2.6540   -3.3340 ca        1 DQT     -0.049000
     17 CA4         4.2200    3.6750   -4.2760 ca        1 DQT     -0.151000
     18 CA5         3.1260    4.5380   -4.4420 ca        1 DQT     -0.001300
     19 CA6         1.9850    4.3620   -3.6460 ca        1 DQT     -0.151000
     20 CA7         1.9330    3.3440   -2.7000 ca        1 DQT     -0.049000
     21 CA8         3.1710    5.6120   -5.4590 c3        1 DQT     -0.075800
     22 CB1         4.2900   -0.5000    2.5430 c         1 DQT      0.580700
     23 OB1         3.5490   -0.9150    3.4290 o         1 DQT     -0.455100
     24 CB2         5.7480   -0.5420    2.5050 ca        1 DQT     -0.221600
     25 CB3         6.3970   -0.9340    3.6930 ca        1 DQT     -0.055000
     26 CB4         7.7840   -1.0060    3.7400 ca        1 DQT     -0.139000
     27 CB5         8.5510   -0.6930    2.6100 ca        1 DQT      0.018700
     28 CB6         7.8990   -0.3090    1.4250 ca        1 DQT     -0.139000
     29 CB7         6.5140   -0.2330    1.3680 ca        1 DQT     -0.055000
     30 CB8        10.0280   -0.7550    2.6620 c3        1 DQT     -0.082800
     31 CME        -1.9180    0.5850   -1.3130 c3        1 DQT      0.114700
     32 H1         -0.4180   -0.6680    0.4220 h2        1 DQT      0.065700
     33 H2          1.8280   -0.6400   -0.6750 h1        1 DQT      0.103700
     34 H3          1.7890   -0.8660    1.8200 hx        1 DQT      0.126700
     35 HN3         3.9100    1.1310    1.3000 hn        1 DQT      0.480800
     36 H4          1.9280    1.1110    3.3550 h1        1 DQT      0.112700
     37 HO4         1.5990    2.8140    1.1290 ho        1 DQT      0.446000
     38 H5         -0.3310    0.2430    2.6710 h1        1 DQT      0.077700
     39 H6         -0.2690    3.3630    2.5820 h1        1 DQT      0.070700
     40 H6A        -0.2160    2.3410    4.1140 h1        1 DQT      0.070700
     41 HO6        -2.3160    2.4090    2.2250 ho        1 DQT      0.416000
     42 HA3         5.0320    1.9690   -3.2110 ha        1 DQT      0.157000
     43 HA4         5.1170    3.8060   -4.9020 ha        1 DQT      0.154000
     44 HA6         1.1220    5.0340   -3.7750 ha        1 DQT      0.154000
     45 HA7         1.0300    3.1970   -2.0840 ha        1 DQT      0.157000
     46 HA8         2.7970    5.2180   -6.4390 hc        1 DQT      0.063367
     47 HA8A        2.5270    6.4760   -5.1610 hc        1 DQT      0.063367
     48 HA8B        4.2160    5.9810   -5.6070 hc        1 DQT      0.063367
     49 HB3         5.7970   -1.1860    4.5850 ha        1 DQT      0.154000
     50 HB4         8.2830   -1.3130    4.6730 ha        1 DQT      0.164500
     51 HB6         8.4970   -0.0710    0.5300 ha        1 DQT      0.164500
     52 HB7         6.0520    0.0620    0.4110 ha        1 DQT      0.154000
     53 HB8        10.3740   -1.5000    3.4220 hc        1 DQT      0.071033
     54 HB8A       10.4370    0.2490    2.9450 hc        1 DQT      0.071033
     55 HB8B       10.4540   -1.0380    1.6670 hc        1 DQT      0.071033
     56 HME        -2.2310   -0.4780   -1.1750 h1        1 DQT      0.055033
     57 HMEA       -2.1180    0.9280   -2.3600 h1        1 DQT      0.055033
     58 HMEB       -2.4290    1.2450   -0.5720 h1        1 DQT      0.055033
     59 H32         3.9330   -0.3300    0.4900 hn        1 DQT      0.480800
@<TRIPOS>BOND
     1    1    2 1   
     2    1    3 1   
     3    1   10 1   
     4    1   32 1   
     5    2   31 1   
     6    3    4 1   
     7    3    5 1   
     8    3   33 1   
     9    4   13 1   
    10    5    6 1   
    11    5    7 1   
    12    5   34 1   
    13    6   22 1   
    14    6   35 1   
    15    6   59 1   
    16    7    8 1   
    17    7    9 1   
    18    7   36 1   
    19    8   37 1   
    20    9   10 1   
    21    9   11 1   
    22    9   38 1   
    23   11   12 1   
    24   11   39 1   
    25   11   40 1   
    26   12   41 1   
    27   13   14 2   
    28   13   15 1   
    29   15   16 ar  
    30   15   20 ar  
    31   16   17 ar  
    32   16   42 1   
    33   17   18 ar  
    34   17   43 1   
    35   18   19 ar  
    36   18   21 1   
    37   19   20 ar  
    38   19   44 1   
    39   20   45 1   
    40   21   46 1   
    41   21   47 1   
    42   21   48 1   
    43   22   23 2   
    44   22   24 1   
    45   24   25 ar  
    46   24   29 ar  
    47   25   26 ar  
    48   25   49 1   
    49   26   27 ar  
    50   26   50 1   
    51   27   28 ar  
    52   27   30 1   
    53   28   29 ar  
    54   28   51 1   
    55   29   52 1   
    56   30   53 1   
    57   30   54 1   
    58   30   55 1   
    59   31   56 1   
    60   31   57 1   
    61   31   58 1   
@<TRIPOS>SUBSTRUCTURE
     1 DQT         1 TEMP              0 ****  ****    0 ROOT
