@<TRIPOS>MOLECULE
DQT
   58    56     1     0     0
SMALL
bcc


@<TRIPOS>ATOM
      1 C1         -2.9180   -1.2290    0.1950 c3        1 DQT      0.151000
      2 O1         -3.3510   -1.0240   -1.1010 os        1 DQT     -0.254000
      3 C2         -1.4010   -1.2200    0.2090 c3        1 DQT     -0.004000
      4 O2         -0.9340   -0.0300   -0.4530 os        1 DQT     -0.265000
      5 C3         -0.8460   -1.2510    1.5990 c3        1 DQT     -0.022000
      6 N3          0.6110   -1.0630    1.5300 n         1 DQT     -0.360000
      7 C4         -1.4330   -0.1970    2.4650 c3        1 DQT      0.003000
      8 O4         -0.9720    1.0890    2.0120 oh        1 DQT     -0.317000
      9 C5         -2.9590   -0.2090    2.4400 c3        1 DQT     -0.044000
     10 O5         -3.5020   -0.1810    1.0680 os        1 DQT     -0.308000
     11 C6         -3.4550    0.9900    3.1800 c3        1 DQT     -0.009000
     12 O6         -4.8600    0.8680    3.4220 oh        1 DQT     -0.324000
     13 CA1        -0.7660   -0.1880   -1.9110 c2        1 DQT      0.362000
     14 OA1        -0.6170   -1.3390   -2.4070 o         1 DQT     -0.369000
     15 CA2        -0.6850    1.0450   -2.8090 c2        1 DQT     -0.126000
     16 CA3        -1.6500    2.0450   -2.6990 c2        1 DQT     -0.058000
     17 CA4        -1.6410    3.1180   -3.5750 c1        1 DQT     -0.151000
     18 CA5        -0.6730    3.2000   -4.5620 c1        1 DQT     -0.037500
     19 CA6         0.3010    2.1970   -4.6770 c1        1 DQT     -0.146500
     20 CA7         0.2960    1.1280   -3.8080 c1        1 DQT     -0.067000
     21 CA8        -0.6960    4.3790   -5.5820 c3        1 DQT     -0.186500
     22 CB1         1.4920   -2.0720    2.0630 c2        1 DQT      0.356000
     23 OB1         1.0320   -3.0740    2.5680 o         1 DQT     -0.374000
     24 CB2         3.0810   -1.8710    1.9860 c2        1 DQT     -0.127000
     25 CB3         3.7970   -2.3710    0.9010 c2        1 DQT     -0.097000
     26 CB4         5.1770   -2.1350    0.8050 c1        1 DQT     -0.141000
     27 CB5         5.8240   -1.4060    1.7900 c1        1 DQT     -0.037500
     28 CB6         5.1070   -0.9070    2.8740 c1        1 DQT     -0.146500
     29 CB7         3.7370   -1.1400    2.9720 c1        1 DQT     -0.075000
     30 CB8         7.3140   -1.2180    1.7300 c3        1 DQT     -0.186500
     31 CME        -4.6790   -1.4800   -1.3440 c3        1 DQT     -0.072000
     32 H1         -3.2410   -2.1250    0.5080 h2        1 DQT      0.092000
     33 H2         -1.0710   -2.0140   -0.2870 h1        1 DQT      0.142000
     34 H3         -1.0370   -2.1350    2.0000 h1        1 DQT      0.140000
     35 HN3         0.9800   -0.2940    1.0590 hn        1 DQT      0.239000
     36 H4         -1.1360   -0.3340    3.3670 h1        1 DQT      0.136000
     37 HO4        -0.5460    1.4980    2.6700 ho        1 DQT      0.220000
     38 H5         -3.2850   -1.0370    2.9030 h1        1 DQT      0.101000
     39 H6         -3.2840    1.8020    2.6370 h1        1 DQT      0.102000
     40 H6A        -2.9730    1.0660    4.0560 h1        1 DQT      0.102000
     41 HO6        -5.1550    1.6080    3.8570 ho        1 DQT      0.211000
     42 HA3        -2.3330    1.9890   -2.0060 ha        1 DQT      0.158000
     43 HA4        -2.3000    3.7990   -3.4990 ha        1 DQT      0.141000
     44 HA6         1.0050    2.2610   -5.3980 ha        1 DQT      0.138000
     45 HA7         0.9870    0.4170   -3.8900 ha        1 DQT      0.154000
     46 HA8        -1.0860    4.0840   -6.3980 hc        1 DQT      0.088500
     47 HA8A       -1.2390    5.1410   -5.2060 hc        1 DQT      0.088500
     48 HA8B        0.2010    4.6750   -5.7460 hc        1 DQT      0.088500
     49 HB3         3.3250   -2.8970    0.1860 ha        1 DQT      0.158000
     50 HB4         5.6810   -2.4850    0.0440 ha        1 DQT      0.135000
     51 HB6         5.5640   -0.3930    3.5670 ha        1 DQT      0.138000
     52 HB7         3.2330   -0.7870    3.7390 ha        1 DQT      0.151000
     53 HB8         7.5640   -0.3450    2.1890 hc        1 DQT      0.088500
     54 HB8A        7.7650   -1.9780    2.1930 hc        1 DQT      0.088500
     55 HB8B        7.6060   -1.1880    0.7750 hc        1 DQT      0.088500
     56 HME        -5.3120   -0.9150   -0.8590 h1        1 DQT      0.081333
     57 HMEA       -4.8720   -1.4350   -2.3100 h1        1 DQT      0.081333
     58 HMEB       -4.7700   -2.4310   -1.0280 h1        1 DQT      0.081333
@<TRIPOS>BOND
     1    1    2 1   
     2    1    3 1   
     3    1   10 1   
     4    1   32 1   
     5    2   31 1   
     6    3    4 1   
     7    3    5 1   
     8    3   33 1   
     9    4   13 1   
    10    5    6 1   
    11    5    7 1   
    12    5   34 1   
    13    6   22 1   
    14    6   35 1   
    15    7    8 1   
    16    7    9 1   
    17    7   36 1   
    18    8   37 1   
    19    9   10 1   
    20    9   11 1   
    21    9   38 1   
    22   11   12 1   
    23   11   39 1   
    24   11   40 1   
    25   12   41 1   
    26   13   14 1   
    27   13   15 1   
    28   15   16 1   
    29   15   20 1   
    30   16   17 1   
    31   16   42 1   
    32   17   43 1   
    33   18   19 1   
    34   18   21 1   
    35   19   44 1   
    36   20   45 1   
    37   21   46 1   
    38   21   47 1   
    39   21   48 1   
    40   22   23 1   
    41   22   24 1   
    42   24   25 1   
    43   24   29 1   
    44   25   26 1   
    45   25   49 1   
    46   26   50 1   
    47   27   28 1   
    48   27   30 1   
    49   28   51 1   
    50   29   52 1   
    51   30   53 1   
    52   30   54 1   
    53   30   55 1   
    54   31   56 1   
    55   31   57 1   
    56   31   58 1   
@<TRIPOS>SUBSTRUCTURE
     1 DQT         1 TEMP              0 ****  ****    0 ROOT
