@<TRIPOS>MOLECULE
DQT
   58    60     1     0     0
SMALL
bcc


@<TRIPOS>ATOM
      1 C1         -1.9220   -2.2650   -1.0140 c3        1 DQT      0.319900
      2 O1         -3.0860   -1.6130   -1.4630 os        1 DQT     -0.397600
      3 C2         -0.7660   -1.2450   -1.0140 c3        1 DQT      0.110100
      4 O2         -1.1920   -0.0380   -0.3760 os        1 DQT     -0.437900
      5 C3          0.4210   -1.8270   -0.1970 c3        1 DQT      0.068700
      6 N3          1.5230   -0.9100   -0.1070 n         1 DQT     -0.559900
      7 C4         -0.0750   -2.2890    1.2020 c3        1 DQT      0.107100
      8 O4         -0.4650   -1.1990    2.0090 oh        1 DQT     -0.595800
      9 C5         -1.2170   -3.2960    1.0060 c3        1 DQT      0.069100
     10 O5         -2.2970   -2.6890    0.2940 os        1 DQT     -0.452600
     11 C6         -1.8060   -3.7420    2.3480 c3        1 DQT      0.141400
     12 O6         -2.8580   -4.6620    2.1610 oh        1 DQT     -0.595800
     13 CA1        -1.4780    1.0550   -1.1620 c         1 DQT      0.663700
     14 OA1        -1.2920    0.9720   -2.3770 o         1 DQT     -0.531000
     15 CA2        -1.9600    2.2130   -0.3970 ca        1 DQT     -0.140600
     16 CA3        -2.4130    3.3360   -1.1040 ca        1 DQT     -0.067000
     17 CA4        -2.8750    4.4510   -0.4130 ca        1 DQT     -0.149500
     18 CA5        -2.8920    4.4620    0.9880 ca        1 DQT     -0.039300
     19 CA6        -2.4360    3.3380    1.6880 ca        1 DQT     -0.149500
     20 CA7        -1.9740    2.2180    1.0030 ca        1 DQT     -0.067000
     21 CA8        -3.4010    5.6440    1.7200 c3        1 DQT     -0.062800
     22 CB1         2.7660   -1.1870   -0.6450 c         1 DQT      0.679700
     23 OB1         2.9720   -2.2490   -1.2680 o         1 DQT     -0.611100
     24 CB2         3.8400   -0.1750   -0.4410 ca        1 DQT     -0.147600
     25 CB3         5.1500   -0.6340   -0.2550 ca        1 DQT     -0.084000
     26 CB4         6.1870    0.2750   -0.0690 ca        1 DQT     -0.141000
     27 CB5         5.9340    1.6520   -0.0780 ca        1 DQT     -0.051300
     28 CB6         4.6240    2.1050   -0.2770 ca        1 DQT     -0.141000
     29 CB7         3.5810    1.1990   -0.4580 ca        1 DQT     -0.084000
     30 CB8         7.0410    2.6180    0.1030 c3        1 DQT     -0.059800
     31 CME        -4.1690   -2.4950   -1.7360 c3        1 DQT      0.119700
     32 H1         -1.6540   -3.1590   -1.6470 h2        1 DQT      0.050700
     33 H2         -0.4560   -1.0460   -2.0780 h1        1 DQT      0.111700
     34 H3          0.7680   -2.7500   -0.7570 h1        1 DQT      0.101700
     35 HN3         1.3900   -0.1160    0.4730 hn        1 DQT      0.329500
     36 H4          0.7670   -2.7760    1.7700 h1        1 DQT      0.091700
     37 HO4        -1.2810   -0.8380    1.6290 ho        1 DQT      0.426000
     38 H5         -0.8470   -4.1880    0.4280 h1        1 DQT      0.061700
     39 H6         -1.0280   -4.2950    2.9370 h1        1 DQT      0.061700
     40 H6A        -2.1600   -2.8440    2.9210 h1        1 DQT      0.061700
     41 HO6        -3.5330   -4.2180    1.6310 ho        1 DQT      0.413000
     42 HA3        -2.3970    3.3230   -2.2070 ha        1 DQT      0.154500
     43 HA4        -3.2300    5.3320   -0.9700 ha        1 DQT      0.140000
     44 HA6        -2.4450    3.3400    2.7890 ha        1 DQT      0.140000
     45 HA7        -1.6170    1.3350    1.5570 ha        1 DQT      0.154500
     46 HA8        -4.5030    5.5400    1.8890 hc        1 DQT      0.050700
     47 HA8A       -2.9030    5.7440    2.7160 hc        1 DQT      0.050700
     48 HA8B       -3.2230    6.5830    1.1390 hc        1 DQT      0.050700
     49 HB3         5.3490   -1.7180   -0.2690 ha        1 DQT      0.146500
     50 HB4         7.2140   -0.0910    0.0810 ha        1 DQT      0.137500
     51 HB6         4.4170    3.1850   -0.2940 ha        1 DQT      0.137500
     52 HB7         2.5620    1.5790   -0.6310 ha        1 DQT      0.146500
     53 HB8         7.4920    2.8680   -0.8910 hc        1 DQT      0.048367
     54 HB8A        6.6760    3.5660    0.5690 hc        1 DQT      0.048367
     55 HB8B        7.8440    2.1900    0.7520 hc        1 DQT      0.048367
     56 HME        -4.4690   -3.0450   -0.8110 h1        1 DQT      0.041700
     57 HMEA       -4.9880   -1.8150   -2.0770 h1        1 DQT      0.041700
     58 HMEB       -3.8900   -3.2160   -2.5430 h1        1 DQT      0.041700
@<TRIPOS>BOND
     1    1    2 1   
     2    1    3 1   
     3    1   10 1   
     4    1   32 1   
     5    2   31 1   
     6    3    4 1   
     7    3    5 1   
     8    3   33 1   
     9    4   13 1   
    10    5    6 1   
    11    5    7 1   
    12    5   34 1   
    13    6   22 1   
    14    6   35 1   
    15    7    8 1   
    16    7    9 1   
    17    7   36 1   
    18    8   37 1   
    19    9   10 1   
    20    9   11 1   
    21    9   38 1   
    22   11   12 1   
    23   11   39 1   
    24   11   40 1   
    25   12   41 1   
    26   13   14 2   
    27   13   15 1   
    28   15   16 ar  
    29   15   20 ar  
    30   16   17 ar  
    31   16   42 1   
    32   17   18 ar  
    33   17   43 1   
    34   18   19 ar  
    35   18   21 1   
    36   19   20 ar  
    37   19   44 1   
    38   20   45 1   
    39   21   46 1   
    40   21   47 1   
    41   21   48 1   
    42   22   23 2   
    43   22   24 1   
    44   24   25 ar  
    45   24   29 ar  
    46   25   26 ar  
    47   25   49 1   
    48   26   27 ar  
    49   26   50 1   
    50   27   28 ar  
    51   27   30 1   
    52   28   29 ar  
    53   28   51 1   
    54   29   52 1   
    55   30   53 1   
    56   30   54 1   
    57   30   55 1   
    58   31   56 1   
    59   31   57 1   
    60   31   58 1   
@<TRIPOS>SUBSTRUCTURE
     1 DQT         1 TEMP              0 ****  ****    0 ROOT
