@<TRIPOS>MOLECULE
DQT
   59    61     1     0     0
SMALL
bcc


@<TRIPOS>ATOM
      1 C1         -0.0140    0.3390    0.0870 c3        1 DQT      0.339900
      2 O1         -0.5130    0.7200   -1.1680 os        1 DQT     -0.396600
      3 C2          1.5290    0.2550   -0.0330 c3        1 DQT      0.111100
      4 O2          1.9530    1.4630   -0.6610 os        1 DQT     -0.433900
      5 C3          2.1170    0.1400    1.3960 c3        1 DQT      0.060500
      6 N3          3.6120    0.1470    1.3540 n4        1 DQT     -0.672800
      7 C4          1.5830    1.2870    2.3010 c3        1 DQT      0.111100
      8 O4          2.1320    2.5140    1.8830 oh        1 DQT     -0.596800
      9 C5          0.0490    1.2570    2.2710 c3        1 DQT      0.067100
     10 O5         -0.4190    1.4090    0.9310 os        1 DQT     -0.430600
     11 C6         -0.5450    2.4330    3.0610 c3        1 DQT      0.146400
     12 O6         -1.9440    2.3140    3.1360 oh        1 DQT     -0.574800
     13 CA1         2.9960    1.3930   -1.5710 c         1 DQT      0.692700
     14 OA1         3.7980    0.4640   -1.3910 o         1 DQT     -0.613000
     15 CA2         3.0230    2.4690   -2.5510 ca        1 DQT     -0.179600
     16 CA3         4.1630    2.6200   -3.3570 ca        1 DQT     -0.049000
     17 CA4         4.2050    3.6320   -4.3090 ca        1 DQT     -0.150500
     18 CA5         3.1160    4.5010   -4.4740 ca        1 DQT     -0.001300
     19 CA6         1.9780    4.3380   -3.6700 ca        1 DQT     -0.150500
     20 CA7         1.9270    3.3290   -2.7140 ca        1 DQT     -0.049000
     21 CA8         3.1730    5.5840   -5.4810 c3        1 DQT     -0.075800
     22 CB1         4.2930   -0.4930    2.5420 c         1 DQT      0.580700
     23 OB1         3.5550   -0.9010    3.4340 o         1 DQT     -0.454100
     24 CB2         5.7510   -0.5430    2.4970 ca        1 DQT     -0.221600
     25 CB3         6.4040   -0.9220    3.6850 ca        1 DQT     -0.055000
     26 CB4         7.7920   -0.9970    3.7260 ca        1 DQT     -0.139000
     27 CB5         8.5540   -0.7030    2.5870 ca        1 DQT      0.017700
     28 CB6         7.8970   -0.3310    1.4020 ca        1 DQT     -0.139000
     29 CB7         6.5120   -0.2500    1.3510 ca        1 DQT     -0.055000
     30 CB8        10.0290   -0.7970    2.6240 c3        1 DQT     -0.082800
     31 CME        -1.9320    0.6100   -1.2820 c3        1 DQT      0.114700
     32 H1         -0.4290   -0.6420    0.4520 h2        1 DQT      0.065700
     33 H2          1.8090   -0.6380   -0.6580 h1        1 DQT      0.103700
     34 H3          1.7850   -0.8460    1.8380 hx        1 DQT      0.126700
     35 HN3         3.9240   -0.3340    0.4910 hn        1 DQT      0.480800
     36 H4          1.9480    1.1400    3.3590 h1        1 DQT      0.112700
     37 HO4         1.6160    2.8300    1.1230 ho        1 DQT      0.446000
     38 H5         -0.3210    0.2830    2.6950 h1        1 DQT      0.077700
     39 H6         -0.2390    3.4010    2.5850 h1        1 DQT      0.070700
     40 H6A        -0.1830    2.3890    4.1230 h1        1 DQT      0.070700
     41 HO6        -2.2950    2.4600    2.2470 ho        1 DQT      0.416000
     42 HA3         5.0140    1.9310   -3.2340 ha        1 DQT      0.157000
     43 HA4         5.0970    3.7510   -4.9440 ha        1 DQT      0.154000
     44 HA6         1.1170    5.0120   -3.8010 ha        1 DQT      0.154000
     45 HA7         1.0270    3.1920   -2.0920 ha        1 DQT      0.157000
     46 HA8         3.7780    5.2740   -6.3690 hc        1 DQT      0.063033
     47 HA8A        2.1480    5.8650   -5.8290 hc        1 DQT      0.063033
     48 HA8B        3.6520    6.4920   -5.0310 hc        1 DQT      0.063033
     49 HB3         5.8090   -1.1610    4.5840 ha        1 DQT      0.154500
     50 HB4         8.2950   -1.2920    4.6620 ha        1 DQT      0.164500
     51 HB6         8.4910   -0.1020    0.5020 ha        1 DQT      0.164500
     52 HB7         6.0450    0.0350    0.3940 ha        1 DQT      0.154500
     53 HB8        10.4980   -0.0590    1.9270 hc        1 DQT      0.070700
     54 HB8A       10.3480   -1.8260    2.3100 hc        1 DQT      0.070700
     55 HB8B       10.4200   -0.6120    3.6560 hc        1 DQT      0.070700
     56 HME        -2.4340    1.2780   -0.5410 h1        1 DQT      0.055033
     57 HMEA       -2.2510   -0.4510   -1.1350 h1        1 DQT      0.055033
     58 HMEB       -2.1350    0.9470   -2.3290 h1        1 DQT      0.055033
     59 H32         3.9160    1.1320    1.2920 hn        1 DQT      0.480800
@<TRIPOS>BOND
     1    1    2 1   
     2    1    3 1   
     3    1   10 1   
     4    1   32 1   
     5    2   31 1   
     6    3    4 1   
     7    3    5 1   
     8    3   33 1   
     9    4   13 1   
    10    5    6 1   
    11    5    7 1   
    12    5   34 1   
    13    6   22 1   
    14    6   35 1   
    15    6   59 1   
    16    7    8 1   
    17    7    9 1   
    18    7   36 1   
    19    8   37 1   
    20    9   10 1   
    21    9   11 1   
    22    9   38 1   
    23   11   12 1   
    24   11   39 1   
    25   11   40 1   
    26   12   41 1   
    27   13   14 2   
    28   13   15 1   
    29   15   16 ar  
    30   15   20 ar  
    31   16   17 ar  
    32   16   42 1   
    33   17   18 ar  
    34   17   43 1   
    35   18   19 ar  
    36   18   21 1   
    37   19   20 ar  
    38   19   44 1   
    39   20   45 1   
    40   21   46 1   
    41   21   47 1   
    42   21   48 1   
    43   22   23 2   
    44   22   24 1   
    45   24   25 ar  
    46   24   29 ar  
    47   25   26 ar  
    48   25   49 1   
    49   26   27 ar  
    50   26   50 1   
    51   27   28 ar  
    52   27   30 1   
    53   28   29 ar  
    54   28   51 1   
    55   29   52 1   
    56   30   53 1   
    57   30   54 1   
    58   30   55 1   
    59   31   56 1   
    60   31   57 1   
    61   31   58 1   
@<TRIPOS>SUBSTRUCTURE
     1 DQT         1 TEMP              0 ****  ****    0 ROOT
