@<TRIPOS>MOLECULE
DQU
   21    22     1     0     0
SMALL
bcc


@<TRIPOS>ATOM
      1 C6         -0.0300    0.0520   -0.0610 ca        1 DQU      0.102600
      2 N4         -0.7120    0.1690   -1.2810 nh        1 DQU     -0.809200
      3 C1          1.4020    0.0820   -0.0380 ca        1 DQU     -0.129000
      4 C2          2.1020    0.0640    1.1390 ca        1 DQU     -0.168300
      5 C3          1.4220    0.0090    2.3970 ca        1 DQU      0.440600
      6 N3          2.1380   -0.0090    3.5730 nb        1 DQU     -0.766000
      7 C8          1.4240   -0.0800    4.7310 ca        1 DQU      0.884900
      8 N2          2.1240   -0.2220    5.9400 nh        1 DQU     -0.918500
      9 N1          0.0140   -0.0870    4.8220 nb        1 DQU     -0.821000
     10 C7         -0.6430   -0.0680    3.6630 ca        1 DQU      0.701600
     11 O1         -2.0140   -0.0810    3.6550 oh        1 DQU     -0.611300
     12 C4         -0.0040   -0.0230    2.3660 ca        1 DQU     -0.267600
     13 C5         -0.7140   -0.0070    1.1530 ca        1 DQU     -0.136000
     14 HN41       -0.2050   -0.1910   -2.0600 hn        1 DQU      0.385800
     15 HN42       -1.6520   -0.1610   -1.2490 hn        1 DQU      0.385800
     16 H1          1.9510    0.1280   -0.9930 ha        1 DQU      0.136000
     17 H2          3.2040    0.0890    1.1320 ha        1 DQU      0.153000
     18 HN21        1.6260    0.0300    6.7620 hn        1 DQU      0.421300
     19 HN22        3.0810    0.0500    5.9180 hn        1 DQU      0.421300
     20 HO1        -2.3480   -0.1120    4.5680 ho        1 DQU      0.445000
     21 H5         -1.8150   -0.0320    1.1930 ha        1 DQU      0.150000
@<TRIPOS>BOND
     1    1    2 1   
     2    1    3 ar  
     3    1   13 ar  
     4    2   14 1   
     5    2   15 1   
     6    3    4 ar  
     7    3   16 1   
     8    4    5 ar  
     9    4   17 1   
    10    5    6 ar  
    11    5   12 ar  
    12    6    7 ar  
    13    7    8 1   
    14    7    9 ar  
    15    8   18 1   
    16    8   19 1   
    17    9   10 ar  
    18   10   11 1   
    19   10   12 ar  
    20   11   20 1   
    21   12   13 ar  
    22   13   21 1   
@<TRIPOS>SUBSTRUCTURE
     1 DQU         1 TEMP              0 ****  ****    0 ROOT
