@<TRIPOS>MOLECULE
DQU
   21    22     1     0     0
SMALL
bcc


@<TRIPOS>ATOM
      1 C6         -0.0260   -0.0440   -0.0630 ca        1 DQU      0.102600
      2 N4         -0.7010   -0.1590   -1.2870 nv        1 DQU     -0.809200
      3 C1          1.4060    0.0010   -0.0390 ca        1 DQU     -0.129000
      4 C2          2.1040    0.0190    1.1390 ca        1 DQU     -0.168300
      5 C3          1.4220   -0.0010    2.3980 ca        1 DQU      0.440600
      6 N3          2.1360    0.0180    3.5740 nb        1 DQU     -0.766000
      7 C8          1.4200    0.0150    4.7330 ca        1 DQU      0.884900
      8 N2          2.1110    0.1570    5.9470 nv        1 DQU     -0.918500
      9 N1          0.0110   -0.0560    4.8220 nb        1 DQU     -0.821000
     10 C7         -0.6440   -0.0730    3.6620 ca        1 DQU      0.701600
     11 O1         -2.0140   -0.1320    3.6530 oh        1 DQU     -0.611300
     12 C4         -0.0040   -0.0430    2.3650 ca        1 DQU     -0.267600
     13 C5         -0.7120   -0.0590    1.1510 ca        1 DQU     -0.136000
     14 HN41       -1.6570    0.1200   -1.2460 hn        1 DQU      0.385800
     15 HN42       -0.2130    0.2510   -2.0530 hn        1 DQU      0.385800
     16 H1          1.9560    0.0130   -0.9930 ha        1 DQU      0.136000
     17 H2          3.2060    0.0520    1.1330 ha        1 DQU      0.153000
     18 HN21        3.0810   -0.0640    5.9180 hn        1 DQU      0.421300
     19 HN22        1.6270   -0.1470    6.7600 hn        1 DQU      0.421300
     20 HO1        -2.3490   -0.1470    4.5660 ho        1 DQU      0.445000
     21 H5         -1.8120   -0.0930    1.1900 ha        1 DQU      0.150000
@<TRIPOS>BOND
     1    1    2 1   
     2    1    3 ar  
     3    1   13 ar  
     4    2   14 1   
     5    2   15 1   
     6    3    4 ar  
     7    3   16 1   
     8    4    5 ar  
     9    4   17 1   
    10    5    6 ar  
    11    5   12 ar  
    12    6    7 ar  
    13    7    8 1   
    14    7    9 ar  
    15    8   18 1   
    16    8   19 1   
    17    9   10 ar  
    18   10   11 1   
    19   10   12 ar  
    20   11   20 1   
    21   12   13 ar  
    22   13   21 1   
@<TRIPOS>SUBSTRUCTURE
     1 DQU         1 TEMP              0 ****  ****    0 ROOT
