@<TRIPOS>MOLECULE
DQU
   21    17     1     0     0
SMALL
bcc


@<TRIPOS>ATOM
      1 C6         -0.4760    0.0030   -2.2990 c1        1 DQU      0.021000
      2 N4         -1.1490   -0.0830   -3.5440 n2        1 DQU     -0.318000
      3 C1          0.9090    0.0030   -2.2990 c1        1 DQU     -0.129000
      4 C2          1.6010    0.0030   -1.0990 c1        1 DQU     -0.103000
      5 C3          0.8950    0.0030    0.1240 c1        1 DQU      0.048000
      6 N3          1.5750    0.0030    1.3050 n1        1 DQU     -0.241000
      7 C8          0.8910    0.0030    2.4880 c1        1 DQU      0.167000
      8 N2          1.5940   -0.0540    3.7190 n2        1 DQU     -0.318000
      9 N1         -0.4790    0.0030    2.4890 n2        1 DQU     -0.295000
     10 C7         -1.1540    0.0030    1.3260 c1        1 DQU      0.203000
     11 O1         -2.4170   -0.1530    1.9260 o         1 DQU     -0.240000
     12 C4         -0.4630    0.0030    0.1240 c2        1 DQU     -0.137000
     13 C5         -1.1690    0.0030   -1.0990 c2        1 DQU     -0.136000
     14 HN41       -1.3950    0.6780   -3.9830 hn        1 DQU      0.198750
     15 HN42       -1.3510   -0.8980   -3.8990 hn        1 DQU      0.198750
     16 H1          1.3970    0.0120   -3.1440 ha        1 DQU      0.136000
     17 H2          2.5770    0.0030   -1.0990 ha        1 DQU      0.153000
     18 HN21        1.1340   -0.0670    4.5060 hn        1 DQU      0.198750
     19 HN22        2.5060   -0.0670    3.7230 hn        1 DQU      0.198750
     20 HO1        -2.8830    0.5970    1.8330 ho        1 DQU      0.244000
     21 H5         -2.1450    0.0040   -1.0990 ha        1 DQU      0.150000
@<TRIPOS>BOND
     1    1    3 1   
     2    1   13 1   
     3    2   14 1   
     4    2   15 1   
     5    3   16 1   
     6    4    5 1   
     7    4   17 1   
     8    5   12 1   
     9    6    7 1   
    10    7    9 1   
    11    8   18 1   
    12    8   19 1   
    13    9   10 1   
    14   10   12 1   
    15   11   20 1   
    16   12   13 1   
    17   13   21 1   
@<TRIPOS>SUBSTRUCTURE
     1 DQU         1 TEMP              0 ****  ****    0 ROOT
