@<TRIPOS>MOLECULE
DQU
   23    24     1     0     0
SMALL
bcc


@<TRIPOS>ATOM
      1 C6         -0.0240    0.0420   -0.0290 ca        1 DQU     -0.048400
      2 N4         -0.7310    0.0520   -1.3110 n4        1 DQU     -0.708000
      3 C1          1.4010    0.0450   -0.0380 ca        1 DQU     -0.076000
      4 C2          2.1030    0.0360    1.1450 ca        1 DQU     -0.122300
      5 C3          1.4100    0.0240    2.3950 ca        1 DQU      0.475600
      6 N3          2.1230    0.0150    3.5840 nb        1 DQU     -0.661000
      7 C8          1.3910    0.0040    4.7090 ca        1 DQU      0.788900
      8 N2          2.1410   -0.0060    6.0040 n4        1 DQU     -0.822300
      9 N1          0.0050    0.0010    4.8410 nb        1 DQU     -0.775000
     10 C7         -0.6760    0.0090    3.6800 ca        1 DQU      0.765600
     11 O1         -2.0270    0.0070    3.6550 oh        1 DQU     -0.567300
     12 C4         -0.0180    0.0210    2.3810 ca        1 DQU     -0.261600
     13 C5         -0.7330    0.0310    1.1650 ca        1 DQU     -0.015000
     14 HN41       -1.7490    0.0480   -1.1640 hn        1 DQU      0.480467
     15 HN42       -0.4680   -0.7810   -1.8570 hn        1 DQU      0.480467
     16 H1          1.9580    0.0540   -0.9940 ha        1 DQU      0.188000
     17 H2          3.2110    0.0380    1.1350 ha        1 DQU      0.210000
     18 HN21        1.8820    0.8300    6.5500 hn        1 DQU      0.496133
     19 HN22        3.1580   -0.0030    5.8300 hn        1 DQU      0.496133
     20 HO1        -2.4100   -0.0010    4.5590 ho        1 DQU      0.502000
     21 H5         -1.8390    0.0280    1.2100 ha        1 DQU      0.195000
     22 H43        -0.4720    0.8950   -1.8430 hn        1 DQU      0.480467
     23 H23         1.8840   -0.8510    6.5350 hn        1 DQU      0.496133
@<TRIPOS>BOND
     1    1    2 1   
     2    1    3 ar  
     3    1   13 ar  
     4    2   14 1   
     5    2   15 1   
     6    2   22 1   
     7    3    4 ar  
     8    3   16 1   
     9    4    5 ar  
    10    4   17 1   
    11    5    6 ar  
    12    5   12 ar  
    13    6    7 ar  
    14    7    8 1   
    15    7    9 ar  
    16    8   18 1   
    17    8   19 1   
    18    8   23 1   
    19    9   10 ar  
    20   10   11 1   
    21   10   12 ar  
    22   11   20 1   
    23   12   13 ar  
    24   13   21 1   
@<TRIPOS>SUBSTRUCTURE
     1 DQU         1 TEMP              0 ****  ****    0 ROOT
