@<TRIPOS>MOLECULE
DQU
   21    22     1     0     0
SMALL
bcc


@<TRIPOS>ATOM
      1 C6          2.6490    0.0730   -0.0560 ca        1 DQU      0.102600
      2 N4          3.9880   -0.3240   -0.1720 nh        1 DQU     -0.809200
      3 C1          2.3220    1.4660    0.0300 ca        1 DQU     -0.129000
      4 C2          1.0240    1.9000    0.0480 ca        1 DQU     -0.168300
      5 C3         -0.0620    0.9700   -0.0160 ca        1 DQU      0.441600
      6 N3         -1.3630    1.4200    0.0030 nb        1 DQU     -0.767000
      7 C8         -2.3440    0.4780   -0.0820 ca        1 DQU      0.885900
      8 N2         -3.6760    0.9080   -0.1930 nh        1 DQU     -0.920500
      9 N1         -2.1340   -0.9190   -0.1300 nb        1 DQU     -0.821000
     10 C7         -0.8620   -1.3140   -0.1420 ca        1 DQU      0.701600
     11 O1         -0.5640   -2.6520   -0.1900 oh        1 DQU     -0.611300
     12 C4          0.2710   -0.4150   -0.0920 ca        1 DQU     -0.267600
     13 C5          1.6070   -0.8520   -0.1090 ca        1 DQU     -0.136000
     14 HN41        4.6320    0.3000    0.2630 hn        1 DQU      0.385800
     15 HN42        4.1480   -1.2760    0.0770 hn        1 DQU      0.385800
     16 H1          3.1390    2.2050    0.0730 ha        1 DQU      0.136000
     17 H2          0.7970    2.9770    0.1100 ha        1 DQU      0.153000
     18 HN21       -3.8550    1.8410    0.1040 hn        1 DQU      0.421300
     19 HN22       -4.3720    0.2400    0.0480 hn        1 DQU      0.421300
     20 HO1        -1.3850   -3.1710   -0.2360 ho        1 DQU      0.445000
     21 H5          1.8010   -1.9340   -0.1740 ha        1 DQU      0.150000
@<TRIPOS>BOND
     1    1    2 1   
     2    1    3 ar  
     3    1   13 ar  
     4    2   14 1   
     5    2   15 1   
     6    3    4 ar  
     7    3   16 1   
     8    4    5 ar  
     9    4   17 1   
    10    5    6 ar  
    11    5   12 ar  
    12    6    7 ar  
    13    7    8 1   
    14    7    9 ar  
    15    8   18 1   
    16    8   19 1   
    17    9   10 ar  
    18   10   11 1   
    19   10   12 ar  
    20   11   20 1   
    21   12   13 ar  
    22   13   21 1   
@<TRIPOS>SUBSTRUCTURE
     1 DQU         1 TEMP              0 ****  ****    0 ROOT
