@<TRIPOS>MOLECULE
DQX
   64    57     1     0     0
SMALL
bcc


@<TRIPOS>ATOM
      1 F1          1.8780    2.7210    3.7540 f         1 DQX     -0.101000
      2 C2          1.2950    3.0620    2.6010 c2        1 DQX      0.111000
      3 C3         -0.0440    3.4450    2.5840 c2        1 DQX     -0.143000
      4 C4         -0.6400    3.8310    1.3890 c1        1 DQX      0.133000
      5 C5          0.1000    3.8340    0.2110 c1        1 DQX     -0.127333
      6 C7          1.4380    3.4510    0.2280 c1        1 DQX      0.020000
      7 C8          2.0350    3.0660    1.4220 c1        1 DQX     -0.147000
      8 C10         2.1610    3.3810   -0.9710 c1        1 DQX      0.020000
      9 C11         2.2090    2.3870   -1.9730 c1        1 DQX     -0.035000
     10 N12         1.5560    1.1980   -1.7910 n1        1 DQX     -0.103500
     11 C13         1.6040    0.2490   -2.7500 c1        1 DQX      0.020000
     12 C14         2.3180    0.4780   -3.9250 c1        1 DQX     -0.127333
     13 N16         2.9630    1.6510   -4.1050 n1        1 DQX     -0.103500
     14 C17         2.9160    2.6140   -3.1350 c1        1 DQX     -0.035000
     15 C18         3.5910    3.8410   -3.3230 c1        1 DQX     -0.106000
     16 C20         3.5420    4.8210   -2.3350 c1        1 DQX     -0.106000
     17 C22         2.8280    4.5930   -1.1590 c1        1 DQX     -0.127333
     18 C24         0.8870   -0.9430   -2.5320 c1        1 DQX     -0.172000
     19 C25         1.3440   -2.2120   -2.7660 c1        1 DQX     -0.102000
     20 N27         0.3730   -3.0820   -2.3960 n2        1 DQX     -0.101500
     21 N28        -0.6940   -2.3540   -1.9300 n2        1 DQX     -0.101500
     22 C29        -0.3740   -1.0380   -2.0150 c1        1 DQX     -0.102000
     23 C31         0.4510   -4.3760   -2.4390 c2        1 DQX      0.060000
     24 C33         0.2230   -5.0230   -1.0330 c3        1 DQX     -0.171500
     25 C36         0.2730   -6.5410   -1.0720 c3        1 DQX     -0.073500
     26 N39         0.0870   -6.9850   -2.2760 n3        1 DQX     -0.307000
     27 C41        -0.7530   -6.5290   -3.1640 c3        1 DQX     -0.073500
     28 C44        -0.8100   -5.0200   -3.1380 c3        1 DQX     -0.171500
     29 F47        -1.9260    4.2010    1.3720 f         1 DQX     -0.094000
     30 C48        -0.9000    3.2980    3.8530 c3        1 DQX     -0.034000
     31 N51        -1.9880    2.3810    3.5960 n3        1 DQX     -0.232000
     32 C52        -3.2430    2.8470    4.3560 c3        1 DQX     -0.108500
     33 C55        -4.3930    1.8700    4.2420 c3        1 DQX     -0.052000
     34 O58        -3.9870    0.7190    3.9050 os        1 DQX     -0.271000
     35 C59        -2.9450    0.1320    4.3030 c3        1 DQX     -0.052000
     36 C62        -1.7810    1.0960    4.4180 c3        1 DQX     -0.108500
     37 H5         -0.3190    4.1040   -0.6270 ha        1 DQX      0.155000
     38 H8          2.9730    2.7980    1.4340 ha        1 DQX      0.163000
     39 H14         2.3520   -0.2080   -4.6170 ha        1 DQX      0.155000
     40 H18         4.0920    4.0030   -4.1470 ha        1 DQX      0.147500
     41 H20         4.0110    5.6730   -2.4660 ha        1 DQX      0.147500
     42 H22         2.7950    5.2820   -0.4650 ha        1 DQX      0.155000
     43 H25         2.2120   -2.4480   -3.1320 DU        1 DQX      0.188500
     44 H29        -0.9430   -0.2930   -1.7540 DU        1 DQX      0.188500
     45 H31         1.2850   -4.6810   -2.8460 ha        1 DQX      0.110000
     46 H33        -0.6480   -4.7460   -0.6970 hc        1 DQX      0.103000
     47 H33A        0.9160   -4.7000   -0.4210 hc        1 DQX      0.103000
     48 H36        -0.4280   -6.9010   -0.4840 h1        1 DQX      0.075250
     49 H36A        1.1480   -6.8420   -0.7510 h1        1 DQX      0.075250
     50 HN39        0.0490   -7.9020   -2.2620 hn        1 DQX      0.164000
     51 H41        -1.6470   -6.8890   -2.9750 h1        1 DQX      0.075250
     52 H41A       -0.4680   -6.8250   -4.0590 h1        1 DQX      0.075250
     53 H44        -1.6160   -4.7430   -2.6540 hc        1 DQX      0.103000
     54 H44A       -0.8640   -4.6900   -4.0590 hc        1 DQX      0.103000
     55 H48        -0.3430    2.9510    4.5850 h1        1 DQX      0.094000
     56 H48A       -1.2630    4.1740    4.1050 h1        1 DQX      0.094000
     57 H52        -3.5270    3.7150    3.9940 h1        1 DQX      0.099500
     58 H52A       -3.0150    2.9590    5.3030 h1        1 DQX      0.099500
     59 H55        -5.0280    2.1980    3.5680 h1        1 DQX      0.088750
     60 H55A       -4.8490    1.8080    5.1090 h1        1 DQX      0.088750
     61 H59        -2.7140   -0.5760    3.6680 h1        1 DQX      0.088750
     62 H59A       -3.1190   -0.2690    5.1820 h1        1 DQX      0.088750
     63 H62        -0.9700    0.6490    4.1040 h1        1 DQX      0.099500
     64 H62A       -1.6650    1.3380    5.3560 h1        1 DQX      0.099500
@<TRIPOS>BOND
     1    1    2 1   
     2    2    3 1   
     3    2    7 1   
     4    3    4 1   
     5    3   30 1   
     6    4   29 1   
     7    5    6 1   
     8    5   37 1   
     9    7   38 1   
    10    8   17 1   
    11    9   10 1   
    12    9   14 1   
    13   11   12 1   
    14   12   39 1   
    15   13   14 1   
    16   15   16 1   
    17   15   40 1   
    18   16   41 1   
    19   17   42 1   
    20   18   19 1   
    21   18   22 1   
    22   19   20 1   
    23   20   21 1   
    24   21   22 1   
    25   23   24 1   
    26   23   28 1   
    27   23   45 1   
    28   24   25 1   
    29   24   46 1   
    30   24   47 1   
    31   25   26 1   
    32   25   48 1   
    33   25   49 1   
    34   26   27 1   
    35   26   50 1   
    36   27   28 1   
    37   27   51 1   
    38   27   52 1   
    39   28   53 1   
    40   28   54 1   
    41   30   31 1   
    42   30   55 1   
    43   30   56 1   
    44   31   32 1   
    45   31   36 1   
    46   32   33 1   
    47   32   57 1   
    48   32   58 1   
    49   33   34 1   
    50   33   59 1   
    51   33   60 1   
    52   34   35 1   
    53   35   36 1   
    54   35   61 1   
    55   35   62 1   
    56   36   63 1   
    57   36   64 1   
@<TRIPOS>SUBSTRUCTURE
     1 DQX         1 TEMP              0 ****  ****    0 ROOT
