@<TRIPOS>MOLECULE
DQX
   64    69     1     0     0
SMALL
bcc


@<TRIPOS>ATOM
      1 F1          0.1510    0.1750    0.2710 f         1 DQX     -0.134400
      2 C2          1.4990    0.0890    0.1770 ca        1 DQX      0.155900
      3 C3          2.2790   -0.0290    1.3450 ca        1 DQX     -0.150300
      4 C4          3.6790   -0.1040    1.2000 ca        1 DQX      0.155900
      5 C5          4.2810   -0.0490   -0.0680 ca        1 DQX     -0.161500
      6 C7          3.4860    0.0650   -1.2140 cp        1 DQX      0.023000
      7 C8          2.0970    0.1370   -1.0960 ca        1 DQX     -0.161500
      8 C10         4.1320    0.1320   -2.5280 cp        1 DQX     -0.084300
      9 C11         3.7850   -0.7940   -3.5700 ca        1 DQX      0.316300
     10 N12         2.8390   -1.7760   -3.3420 nb        1 DQX     -0.641000
     11 C13         2.5680   -2.6140   -4.3440 ca        1 DQX      0.427500
     12 C14         3.2480   -2.4870   -5.6290 ca        1 DQX      0.297900
     13 N16         4.1520   -1.5630   -5.8720 nb        1 DQX     -0.619000
     14 C17         4.4520   -0.6840   -4.8410 ca        1 DQX      0.269300
     15 C18         5.4320    0.3340   -5.0370 ca        1 DQX     -0.144300
     16 C20         5.7400    1.1960   -4.0140 ca        1 DQX     -0.133000
     17 C22         5.0960    1.0920   -2.7630 ca        1 DQX     -0.103000
     18 C24         1.5960   -3.6650   -4.1770 cc        1 DQX     -0.347800
     19 C25         1.1610   -4.6150   -5.1240 cd        1 DQX     -0.109300
     20 N27         0.2160   -5.4130   -4.4790 na        1 DQX      0.096400
     21 N28         0.0270   -5.0350   -3.1990 nd        1 DQX     -0.512800
     22 C29         0.8430   -3.9790   -2.9760 cc        1 DQX      0.350200
     23 C31        -0.4910   -6.5310   -5.1060 c3        1 DQX      0.062000
     24 C33        -1.3470   -6.0740   -6.2980 c3        1 DQX     -0.093400
     25 C36        -2.0800   -7.2720   -6.8960 c3        1 DQX      0.162800
     26 N39        -1.1910   -8.3550   -7.2670 n7        1 DQX     -0.824200
     27 C41        -0.3190   -8.7840   -6.1910 c3        1 DQX      0.162800
     28 C44         0.4730   -7.6350   -5.5690 c3        1 DQX     -0.093400
     29 F47         4.4680   -0.2260    2.2960 f         1 DQX     -0.134400
     30 C48         1.6300   -0.0540    2.6980 c3        1 DQX      0.220100
     31 N51         1.1260   -1.3730    3.0560 n3        1 DQX     -0.721600
     32 C52         0.1440   -1.3100    4.1330 c3        1 DQX      0.131800
     33 C55        -0.3500   -2.7010    4.5490 c3        1 DQX      0.127400
     34 O58         0.7290   -3.5750    4.8570 os        1 DQX     -0.417600
     35 C59         1.6510   -3.6910    3.7790 c3        1 DQX      0.127400
     36 C62         2.1920   -2.3230    3.3520 c3        1 DQX      0.131800
     37 H5          5.3760   -0.1080   -0.1510 ha        1 DQX      0.159500
     38 H8          1.4590    0.2220   -1.9880 ha        1 DQX      0.159500
     39 H14         3.0090   -3.1880   -6.4480 h4        1 DQX      0.029100
     40 H18         5.9330    0.4140   -6.0150 ha        1 DQX      0.154000
     41 H20         6.4970    1.9820   -4.1590 ha        1 DQX      0.141000
     42 H22         5.3700    1.7980   -1.9620 ha        1 DQX      0.143000
     43 H25         1.4410   -4.7750   -6.1650 h4        1 DQX      0.179000
     44 H29         0.8960   -3.4660   -2.0130 h4        1 DQX      0.064100
     45 H31        -1.1840   -6.9740   -4.3270 h1        1 DQX      0.090700
     46 H33        -2.1060   -5.3200   -5.9650 hc        1 DQX      0.060700
     47 H33A       -0.6990   -5.5940   -7.0770 hc        1 DQX      0.060700
     48 H36        -2.6100   -6.9380   -7.8330 h1        1 DQX      0.035700
     49 H36A       -2.8700   -7.6040   -6.1590 h1        1 DQX      0.035700
     50 HN39       -1.7190   -9.1330   -7.6140 hn        1 DQX      0.370800
     51 H41        -0.8880   -9.3050   -5.3640 h1        1 DQX      0.035700
     52 H41A        0.4080   -9.5270   -6.6240 h1        1 DQX      0.035700
     53 H44         1.2000   -7.2230   -6.3160 hc        1 DQX      0.060700
     54 H44A        1.0550   -8.0330   -4.6990 hc        1 DQX      0.060700
     55 H48         2.3720    0.3340    3.4600 h1        1 DQX      0.051200
     56 H48A        0.7530    0.6580    2.6770 h1        1 DQX      0.051200
     57 H52        -0.7370   -0.7150    3.7630 h1        1 DQX      0.042700
     58 H52A        0.5590   -0.7900    5.0450 h1        1 DQX      0.042700
     59 H55        -0.9350   -2.6310    5.5020 h1        1 DQX      0.054450
     60 H55A       -0.9810   -3.1540    3.7390 h1        1 DQX      0.054450
     61 H59         1.1570   -4.2110    2.9160 h1        1 DQX      0.054450
     62 H59A        2.4810   -4.3240    4.1880 h1        1 DQX      0.054450
     63 H62         2.8760   -1.9380    4.1640 h1        1 DQX      0.042700
     64 H62A        2.8070   -2.4460    2.4170 h1        1 DQX      0.042700
@<TRIPOS>BOND
     1    1    2 1   
     2    2    3 ar  
     3    2    7 ar  
     4    3    4 ar  
     5    3   30 1   
     6    4    5 ar  
     7    4   29 1   
     8    5    6 ar  
     9    5   37 1   
    10    6    7 ar  
    11    6    8 1   
    12    7   38 1   
    13    8    9 ar  
    14    8   17 ar  
    15    9   10 ar  
    16    9   14 ar  
    17   10   11 ar  
    18   11   12 ar  
    19   11   18 1   
    20   12   13 ar  
    21   12   39 1   
    22   13   14 ar  
    23   14   15 ar  
    24   15   16 ar  
    25   15   40 1   
    26   16   17 ar  
    27   16   41 1   
    28   17   42 1   
    29   18   19 2   
    30   18   22 1   
    31   19   20 1   
    32   19   43 1   
    33   20   21 1   
    34   20   23 1   
    35   21   22 2   
    36   22   44 1   
    37   23   24 1   
    38   23   28 1   
    39   23   45 1   
    40   24   25 1   
    41   24   46 1   
    42   24   47 1   
    43   25   26 1   
    44   25   48 1   
    45   25   49 1   
    46   26   27 1   
    47   26   50 1   
    48   27   28 1   
    49   27   51 1   
    50   27   52 1   
    51   28   53 1   
    52   28   54 1   
    53   30   31 1   
    54   30   55 1   
    55   30   56 1   
    56   31   32 1   
    57   31   36 1   
    58   32   33 1   
    59   32   57 1   
    60   32   58 1   
    61   33   34 1   
    62   33   59 1   
    63   33   60 1   
    64   34   35 1   
    65   35   36 1   
    66   35   61 1   
    67   35   62 1   
    68   36   63 1   
    69   36   64 1   
@<TRIPOS>SUBSTRUCTURE
     1 DQX         1 TEMP              0 ****  ****    0 ROOT
