@<TRIPOS>MOLECULE
DQX
   64    69     1     0     0
SMALL
bcc


@<TRIPOS>ATOM
      1 F1          2.8000   -0.7100    2.5060 f         1 DQX     -0.134400
      2 C2          2.9710    0.1540    1.4770 ca        1 DQX      0.155900
      3 C3          4.0270   -0.0390    0.5650 ca        1 DQX     -0.150300
      4 C4          4.1720    0.8920   -0.4840 ca        1 DQX      0.155900
      5 C5          3.3010    1.9860   -0.6100 ca        1 DQX     -0.161500
      6 C7          2.2560    2.1550    0.3060 cp        1 DQX      0.023000
      7 C8          2.0900    1.2450    1.3520 ca        1 DQX     -0.161500
      8 C10         1.3630    3.3090    0.1670 cp        1 DQX     -0.084300
      9 C11        -0.0590    3.1350    0.0670 ca        1 DQX      0.316300
     10 N12        -0.6080    1.8660    0.0900 nb        1 DQX     -0.641000
     11 C13        -1.9340    1.7670   -0.0180 ca        1 DQX      0.427500
     12 C14        -2.7640    2.9610   -0.1520 ca        1 DQX      0.297900
     13 N16        -2.2680    4.1780   -0.1760 nb        1 DQX     -0.619000
     14 C17        -0.8900    4.3030   -0.0710 ca        1 DQX      0.269300
     15 C18        -0.2880    5.5950   -0.1020 ca        1 DQX     -0.144300
     16 C20         1.0760    5.7200   -0.0110 ca        1 DQX     -0.133000
     17 C22         1.8980    4.5810    0.1180 ca        1 DQX     -0.103000
     18 C24        -2.5760    0.4770   -0.0070 cc        1 DQX     -0.347800
     19 C25        -3.9530    0.1810   -0.0790 cd        1 DQX     -0.109300
     20 N27        -4.0630   -1.2080   -0.0330 na        1 DQX      0.096400
     21 N28        -2.8580   -1.8060    0.0610 nd        1 DQX     -0.512800
     22 C29        -1.9300   -0.8220    0.0810 cc        1 DQX      0.350200
     23 C31        -5.3290   -1.9410   -0.0810 c3        1 DQX      0.062000
     24 C33        -6.2390   -1.5960    1.1080 c3        1 DQX     -0.093400
     25 C36        -7.5320   -2.4060    1.0200 c3        1 DQX      0.162800
     26 N39        -8.2220   -2.2380   -0.2430 n3        1 DQX     -0.824200
     27 C41        -7.3880   -2.4950   -1.3990 c3        1 DQX      0.162800
     28 C44        -6.0900   -1.6880   -1.3920 c3        1 DQX     -0.093400
     29 F47         5.1700    0.7410   -1.3900 f         1 DQX     -0.134400
     30 C48         4.9740   -1.1910    0.7240 c3        1 DQX      0.220100
     31 N51         4.4440   -2.4350    0.1780 n3        1 DQX     -0.721600
     32 C52         5.1430   -3.6030    0.7010 c3        1 DQX      0.131800
     33 C55         4.6250   -4.9100    0.0880 c3        1 DQX      0.127400
     34 O58         4.6370   -4.8700   -1.3340 os        1 DQX     -0.417600
     35 C59         3.8960   -3.7670   -1.8450 c3        1 DQX      0.127400
     36 C62         4.4030   -2.4370   -1.2790 c3        1 DQX      0.131800
     37 H5          3.4390    2.6970   -1.4370 ha        1 DQX      0.159500
     38 H8          1.2710    1.3620    2.0770 ha        1 DQX      0.159500
     39 H14        -3.8600    2.8590   -0.2380 h4        1 DQX      0.029100
     40 H18        -0.9320    6.4840   -0.2030 ha        1 DQX      0.154000
     41 H20         1.5460    6.7150   -0.0370 ha        1 DQX      0.141000
     42 H22         2.9900    4.7160    0.1860 ha        1 DQX      0.143000
     43 H25        -4.8250    0.8290   -0.1540 h4        1 DQX      0.179000
     44 H29        -0.8590   -1.0210    0.1520 h4        1 DQX      0.064100
     45 H31        -5.0840   -3.0460   -0.0260 h1        1 DQX      0.090700
     46 H33        -5.7280   -1.8420    2.0730 hc        1 DQX      0.060700
     47 H33A       -6.4740   -0.5000    1.1080 hc        1 DQX      0.060700
     48 H36        -7.2820   -3.4890    1.2280 h1        1 DQX      0.035700
     49 H36A       -8.2290   -2.0560    1.8330 h1        1 DQX      0.035700
     50 HN39       -9.0390   -2.8180   -0.2700 hn        1 DQX      0.370800
     51 H41        -7.1200   -3.5900   -1.4950 h1        1 DQX      0.035700
     52 H41A       -7.9830   -2.2090   -2.3120 h1        1 DQX      0.035700
     53 H44        -6.3190   -0.5960   -1.5010 hc        1 DQX      0.060700
     54 H44A       -5.4700   -2.0030   -2.2700 hc        1 DQX      0.060700
     55 H48         5.9630   -0.9130    0.2520 h1        1 DQX      0.051200
     56 H48A        5.1500   -1.3470    1.8290 h1        1 DQX      0.051200
     57 H52         6.2550   -3.5390    0.5190 h1        1 DQX      0.042700
     58 H52A        4.9730   -3.6390    1.8130 h1        1 DQX      0.042700
     59 H55         5.3120   -5.7560    0.3500 h1        1 DQX      0.054450
     60 H55A        3.5850   -5.1300    0.4480 h1        1 DQX      0.054450
     61 H59         4.0670   -3.8050   -2.9530 h1        1 DQX      0.054450
     62 H59A        2.8070   -3.9080   -1.6160 h1        1 DQX      0.054450
     63 H62         3.7090   -1.6110   -1.6020 h1        1 DQX      0.042700
     64 H62A        5.4200   -2.2220   -1.7230 h1        1 DQX      0.042700
@<TRIPOS>BOND
     1    1    2 1   
     2    2    3 ar  
     3    2    7 ar  
     4    3    4 ar  
     5    3   30 1   
     6    4    5 ar  
     7    4   29 1   
     8    5    6 ar  
     9    5   37 1   
    10    6    7 ar  
    11    6    8 1   
    12    7   38 1   
    13    8    9 ar  
    14    8   17 ar  
    15    9   10 ar  
    16    9   14 ar  
    17   10   11 ar  
    18   11   12 ar  
    19   11   18 1   
    20   12   13 ar  
    21   12   39 1   
    22   13   14 ar  
    23   14   15 ar  
    24   15   16 ar  
    25   15   40 1   
    26   16   17 ar  
    27   16   41 1   
    28   17   42 1   
    29   18   19 2   
    30   18   22 1   
    31   19   20 1   
    32   19   43 1   
    33   20   21 1   
    34   20   23 1   
    35   21   22 2   
    36   22   44 1   
    37   23   24 1   
    38   23   28 1   
    39   23   45 1   
    40   24   25 1   
    41   24   46 1   
    42   24   47 1   
    43   25   26 1   
    44   25   48 1   
    45   25   49 1   
    46   26   27 1   
    47   26   50 1   
    48   27   28 1   
    49   27   51 1   
    50   27   52 1   
    51   28   53 1   
    52   28   54 1   
    53   30   31 1   
    54   30   55 1   
    55   30   56 1   
    56   31   32 1   
    57   31   36 1   
    58   32   33 1   
    59   32   57 1   
    60   32   58 1   
    61   33   34 1   
    62   33   59 1   
    63   33   60 1   
    64   34   35 1   
    65   35   36 1   
    66   35   61 1   
    67   35   62 1   
    68   36   63 1   
    69   36   64 1   
@<TRIPOS>SUBSTRUCTURE
     1 DQX         1 TEMP              0 ****  ****    0 ROOT
