@<TRIPOS>MOLECULE
DQX
   64    69     1     0     0
SMALL
bcc


@<TRIPOS>ATOM
      1 F1          0.1460    0.1730    0.2650 f         1 DQX     -0.134400
      2 C2          1.4940    0.0900    0.1730 ca        1 DQX      0.155900
      3 C3          2.2730   -0.0240    1.3430 ca        1 DQX     -0.150300
      4 C4          3.6730   -0.0970    1.1990 ca        1 DQX      0.155900
      5 C5          4.2770   -0.0440   -0.0680 ca        1 DQX     -0.161500
      6 C7          3.4830    0.0660   -1.2150 cp        1 DQX      0.023000
      7 C8          2.0930    0.1360   -1.0990 ca        1 DQX     -0.161500
      8 C10         4.1300    0.1310   -2.5290 cp        1 DQX     -0.084300
      9 C11         3.7860   -0.7960   -3.5700 ca        1 DQX      0.316300
     10 N12         2.8410   -1.7790   -3.3420 nb        1 DQX     -0.641000
     11 C13         2.5720   -2.6190   -4.3430 ca        1 DQX      0.427500
     12 C14         3.2530   -2.4920   -5.6280 ca        1 DQX      0.297900
     13 N16         4.1560   -1.5680   -5.8710 nb        1 DQX     -0.619000
     14 C17         4.4550   -0.6870   -4.8400 ca        1 DQX      0.269300
     15 C18         5.4330    0.3310   -5.0370 ca        1 DQX     -0.144300
     16 C20         5.7390    1.1950   -4.0150 ca        1 DQX     -0.133000
     17 C22         5.0940    1.0920   -2.7640 ca        1 DQX     -0.103000
     18 C24         1.6010   -3.6700   -4.1760 cc        1 DQX     -0.347800
     19 C25         1.1650   -4.6210   -5.1230 cd        1 DQX     -0.109300
     20 N27         0.2220   -5.4200   -4.4770 na        1 DQX      0.096400
     21 N28         0.0340   -5.0420   -3.1970 nd        1 DQX     -0.512800
     22 C29         0.8500   -3.9860   -2.9740 cc        1 DQX      0.350200
     23 C31        -0.4860   -6.5370   -5.1050 c3        1 DQX      0.062000
     24 C33        -1.3440   -6.0780   -6.2950 c3        1 DQX     -0.093400
     25 C36        -2.0780   -7.2770   -6.8940 c3        1 DQX      0.162800
     26 N39        -1.1880   -8.3580   -7.2680 n3        1 DQX     -0.824200
     27 C41        -0.3140   -8.7880   -6.1940 c3        1 DQX      0.162800
     28 C44         0.4780   -7.6390   -5.5720 c3        1 DQX     -0.093400
     29 F47         4.4610   -0.2150    2.2960 f         1 DQX     -0.134400
     30 C48         1.6230   -0.0470    2.6940 c3        1 DQX      0.220100
     31 N51         1.1210   -1.3670    3.0550 n3        1 DQX     -0.721600
     32 C52         0.1380   -1.3030    4.1300 c3        1 DQX      0.131800
     33 C55        -0.3540   -2.6940    4.5490 c3        1 DQX      0.127400
     34 O58         0.7260   -3.5660    4.8610 os        1 DQX     -0.417600
     35 C59         1.6500   -3.6820    3.7840 c3        1 DQX      0.127400
     36 C62         2.1880   -2.3140    3.3540 c3        1 DQX      0.131800
     37 H5          5.3720   -0.1010   -0.1500 ha        1 DQX      0.159500
     38 H8          1.4560    0.2180   -1.9920 ha        1 DQX      0.159500
     39 H14         3.0160   -3.1950   -6.4450 h4        1 DQX      0.029100
     40 H18         5.9360    0.4100   -6.0140 ha        1 DQX      0.154000
     41 H20         6.4950    1.9820   -4.1590 ha        1 DQX      0.141000
     42 H22         5.3660    1.8000   -1.9640 ha        1 DQX      0.143000
     43 H25         1.4440   -4.7790   -6.1640 h4        1 DQX      0.179000
     44 H29         0.9030   -3.4740   -2.0110 h4        1 DQX      0.064100
     45 H31        -1.1760   -6.9820   -4.3250 h1        1 DQX      0.090700
     46 H33        -2.1030   -5.3260   -5.9590 hc        1 DQX      0.060700
     47 H33A       -0.6980   -5.5970   -7.0740 hc        1 DQX      0.060700
     48 H36        -2.8660   -7.6110   -6.1550 h1        1 DQX      0.035700
     49 H36A       -2.6090   -6.9410   -7.8290 h1        1 DQX      0.035700
     50 HN39       -1.7160   -9.1360   -7.6160 hn        1 DQX      0.370800
     51 H41        -0.8810   -9.3110   -5.3670 h1        1 DQX      0.035700
     52 H41A        0.4130   -9.5300   -6.6300 h1        1 DQX      0.035700
     53 H44         1.2040   -7.2260   -6.3190 hc        1 DQX      0.060700
     54 H44A        1.0630   -8.0380   -4.7040 hc        1 DQX      0.060700
     55 H48         2.3620    0.3430    3.4560 h1        1 DQX      0.051200
     56 H48A        0.7450    0.6620    2.6700 h1        1 DQX      0.051200
     57 H52        -0.7440   -0.7120    3.7580 h1        1 DQX      0.042700
     58 H52A        0.5510   -0.7810    5.0420 h1        1 DQX      0.042700
     59 H55        -0.9410   -2.6240    5.5020 h1        1 DQX      0.054450
     60 H55A       -0.9830   -3.1510    3.7400 h1        1 DQX      0.054450
     61 H59         1.1580   -4.2050    2.9220 h1        1 DQX      0.054450
     62 H59A        2.4810   -4.3120    4.1950 h1        1 DQX      0.054450
     63 H62         2.8710   -1.9250    4.1660 h1        1 DQX      0.042700
     64 H62A        2.8050   -2.4380    2.4210 h1        1 DQX      0.042700
@<TRIPOS>BOND
     1    1    2 1   
     2    2    3 ar  
     3    2    7 ar  
     4    3    4 ar  
     5    3   30 1   
     6    4    5 ar  
     7    4   29 1   
     8    5    6 ar  
     9    5   37 1   
    10    6    7 ar  
    11    6    8 1   
    12    7   38 1   
    13    8    9 ar  
    14    8   17 ar  
    15    9   10 ar  
    16    9   14 ar  
    17   10   11 ar  
    18   11   12 ar  
    19   11   18 1   
    20   12   13 ar  
    21   12   39 1   
    22   13   14 ar  
    23   14   15 ar  
    24   15   16 ar  
    25   15   40 1   
    26   16   17 ar  
    27   16   41 1   
    28   17   42 1   
    29   18   19 2   
    30   18   22 1   
    31   19   20 1   
    32   19   43 1   
    33   20   21 1   
    34   20   23 1   
    35   21   22 2   
    36   22   44 1   
    37   23   24 1   
    38   23   28 1   
    39   23   45 1   
    40   24   25 1   
    41   24   46 1   
    42   24   47 1   
    43   25   26 1   
    44   25   48 1   
    45   25   49 1   
    46   26   27 1   
    47   26   50 1   
    48   27   28 1   
    49   27   51 1   
    50   27   52 1   
    51   28   53 1   
    52   28   54 1   
    53   30   31 1   
    54   30   55 1   
    55   30   56 1   
    56   31   32 1   
    57   31   36 1   
    58   32   33 1   
    59   32   57 1   
    60   32   58 1   
    61   33   34 1   
    62   33   59 1   
    63   33   60 1   
    64   34   35 1   
    65   35   36 1   
    66   35   61 1   
    67   35   62 1   
    68   36   63 1   
    69   36   64 1   
@<TRIPOS>SUBSTRUCTURE
     1 DQX         1 TEMP              0 ****  ****    0 ROOT
