@<TRIPOS>MOLECULE
DQX
   64    69     1     0     0
SMALL
bcc


@<TRIPOS>ATOM
      1 F1          0.1480    0.1750    0.2700 f         1 DQX     -0.134400
      2 C2          1.4960    0.0900    0.1770 ca        1 DQX      0.155900
      3 C3          2.2750   -0.0270    1.3460 ca        1 DQX     -0.150300
      4 C4          3.6750   -0.1020    1.2010 ca        1 DQX      0.155900
      5 C5          4.2780   -0.0460   -0.0670 ca        1 DQX     -0.161500
      6 C7          3.4830    0.0670   -1.2130 cp        1 DQX      0.023000
      7 C8          2.0940    0.1390   -1.0960 ca        1 DQX     -0.161500
      8 C10         4.1300    0.1340   -2.5270 cp        1 DQX     -0.084300
      9 C11         3.7840   -0.7920   -3.5690 ca        1 DQX      0.316300
     10 N12         2.8380   -1.7750   -3.3420 nb        1 DQX     -0.641000
     11 C13         2.5680   -2.6130   -4.3440 ca        1 DQX      0.427500
     12 C14         3.2490   -2.4850   -5.6290 ca        1 DQX      0.297900
     13 N16         4.1520   -1.5600   -5.8710 nb        1 DQX     -0.619000
     14 C17         4.4520   -0.6810   -4.8400 ca        1 DQX      0.269300
     15 C18         5.4300    0.3370   -5.0360 ca        1 DQX     -0.144300
     16 C20         5.7370    1.1990   -4.0130 ca        1 DQX     -0.133000
     17 C22         5.0940    1.0950   -2.7620 ca        1 DQX     -0.103000
     18 C24         1.5970   -3.6640   -4.1770 cc        1 DQX     -0.347800
     19 C25         1.1640   -4.6160   -5.1230 cd        1 DQX     -0.109300
     20 N27         0.2190   -5.4140   -4.4790 na        1 DQX      0.096400
     21 N28         0.0280   -5.0350   -3.1990 nd        1 DQX     -0.512800
     22 C29         0.8430   -3.9780   -2.9760 cc        1 DQX      0.350200
     23 C31        -0.4860   -6.5330   -5.1060 c3        1 DQX      0.062000
     24 C33        -1.3410   -6.0770   -6.3000 c3        1 DQX     -0.093400
     25 C36        -2.0720   -7.2770   -6.8980 c3        1 DQX      0.162800
     26 N39        -1.1820   -8.3590   -7.2660 n3        1 DQX     -0.824200
     27 C41        -0.3110   -8.7860   -6.1880 c3        1 DQX      0.162800
     28 C44         0.4790   -7.6360   -5.5660 c3        1 DQX     -0.093400
     29 F47         4.4640   -0.2230    2.2970 f         1 DQX     -0.134400
     30 C48         1.6270   -0.0530    2.6980 c3        1 DQX      0.220100
     31 N51         1.1210   -1.3730    3.0550 n3        1 DQX     -0.721600
     32 C52         0.1410   -1.3090    4.1330 c3        1 DQX      0.131800
     33 C55        -0.3540   -2.7000    4.5480 c3        1 DQX      0.127400
     34 O58         0.7240   -3.5760    4.8550 os        1 DQX     -0.417600
     35 C59         1.6450   -3.6910    3.7760 c3        1 DQX      0.127400
     36 C62         2.1870   -2.3230    3.3490 c3        1 DQX      0.131800
     37 H5          5.3730   -0.1050   -0.1500 ha        1 DQX      0.159500
     38 H8          1.4560    0.2230   -1.9880 ha        1 DQX      0.159500
     39 H14         3.0110   -3.1860   -6.4470 h4        1 DQX      0.029100
     40 H18         5.9320    0.4170   -6.0140 ha        1 DQX      0.154000
     41 H20         6.4940    1.9860   -4.1570 ha        1 DQX      0.141000
     42 H22         5.3660    1.8010   -1.9610 ha        1 DQX      0.143000
     43 H25         1.4460   -4.7770   -6.1640 h4        1 DQX      0.179000
     44 H29         0.8950   -3.4640   -2.0140 h4        1 DQX      0.064100
     45 H31        -1.1800   -6.9760   -4.3270 h1        1 DQX      0.090700
     46 H33        -0.6920   -5.5980   -7.0780 hc        1 DQX      0.060700
     47 H33A       -2.1010   -5.3240   -5.9690 hc        1 DQX      0.060700
     48 H36        -2.8640   -7.6090   -6.1610 h1        1 DQX      0.035700
     49 H36A       -2.6010   -6.9440   -7.8360 h1        1 DQX      0.035700
     50 HN39       -1.7090   -9.1380   -7.6140 hn        1 DQX      0.370800
     51 H41        -0.8810   -9.3080   -5.3620 h1        1 DQX      0.035700
     52 H41A        0.4170   -9.5300   -6.6200 h1        1 DQX      0.035700
     53 H44         1.0600   -8.0330   -4.6950 hc        1 DQX      0.060700
     54 H44A        1.2070   -7.2250   -6.3130 hc        1 DQX      0.060700
     55 H48         2.3680    0.3340    3.4600 h1        1 DQX      0.051200
     56 H48A        0.7500    0.6590    2.6770 h1        1 DQX      0.051200
     57 H52        -0.7400   -0.7140    3.7640 h1        1 DQX      0.042700
     58 H52A        0.5570   -0.7910    5.0450 h1        1 DQX      0.042700
     59 H55        -0.9390   -2.6310    5.5020 h1        1 DQX      0.054450
     60 H55A       -0.9860   -3.1520    3.7390 h1        1 DQX      0.054450
     61 H59         1.1500   -4.2100    2.9130 h1        1 DQX      0.054450
     62 H59A        2.4760   -4.3250    4.1830 h1        1 DQX      0.054450
     63 H62         2.8010   -2.4460    2.4140 h1        1 DQX      0.042700
     64 H62A        2.8720   -1.9390    4.1610 h1        1 DQX      0.042700
@<TRIPOS>BOND
     1    1    2 1   
     2    2    3 ar  
     3    2    7 ar  
     4    3    4 ar  
     5    3   30 1   
     6    4    5 ar  
     7    4   29 1   
     8    5    6 ar  
     9    5   37 1   
    10    6    7 ar  
    11    6    8 1   
    12    7   38 1   
    13    8    9 ar  
    14    8   17 ar  
    15    9   10 ar  
    16    9   14 ar  
    17   10   11 ar  
    18   11   12 ar  
    19   11   18 1   
    20   12   13 ar  
    21   12   39 1   
    22   13   14 ar  
    23   14   15 ar  
    24   15   16 ar  
    25   15   40 1   
    26   16   17 ar  
    27   16   41 1   
    28   17   42 1   
    29   18   19 2   
    30   18   22 1   
    31   19   20 1   
    32   19   43 1   
    33   20   21 1   
    34   20   23 1   
    35   21   22 2   
    36   22   44 1   
    37   23   24 1   
    38   23   28 1   
    39   23   45 1   
    40   24   25 1   
    41   24   46 1   
    42   24   47 1   
    43   25   26 1   
    44   25   48 1   
    45   25   49 1   
    46   26   27 1   
    47   26   50 1   
    48   27   28 1   
    49   27   51 1   
    50   27   52 1   
    51   28   53 1   
    52   28   54 1   
    53   30   31 1   
    54   30   55 1   
    55   30   56 1   
    56   31   32 1   
    57   31   36 1   
    58   32   33 1   
    59   32   57 1   
    60   32   58 1   
    61   33   34 1   
    62   33   59 1   
    63   33   60 1   
    64   34   35 1   
    65   35   36 1   
    66   35   61 1   
    67   35   62 1   
    68   36   63 1   
    69   36   64 1   
@<TRIPOS>SUBSTRUCTURE
     1 DQX         1 TEMP              0 ****  ****    0 ROOT
