@<TRIPOS>MOLECULE
DQY
   19    17     1     0     0
SMALL
bcc


@<TRIPOS>ATOM
      1 S          -1.0000    0.0940    0.0540 s6        1 DQY      1.303000
      2 C1          2.7900   -1.1410   -0.6590 c1        1 DQY      0.329000
      3 O1          3.4170   -0.5980   -1.6060 o         1 DQY     -0.585000
      4 C2          1.2770   -1.1420   -0.6570 c2        1 DQY     -0.201000
      5 O2          3.4210   -1.6830    0.2860 o         1 DQY     -0.585000
      6 C3          0.7730    0.0940    0.0540 c3        1 DQY     -0.544000
      7 CM1        -1.5910    0.0940    1.7250 c3        1 DQY     -0.660500
      8 CM2        -1.5910    1.5420   -0.7820 c3        1 DQY     -0.660500
      9 H2          0.9530   -1.9390   -0.1940 ha        1 DQY      0.059500
     10 H2A         0.9500   -1.1450   -1.5770 ha        1 DQY      0.059500
     11 H3          1.0980    0.8900   -0.4080 h1        1 DQY      0.120000
     12 H3A         1.0980    0.0960    0.9740 h1        1 DQY      0.120000
     13 HM1        -2.5660    0.1510    1.7260 h1        1 DQY      0.088167
     14 HM1A       -1.2200    0.8610    2.2020 h1        1 DQY      0.088167
     15 HM1B       -1.3140   -0.7300    2.1690 h1        1 DQY      0.088167
     16 HM2        -1.3130    1.5140   -1.7170 h1        1 DQY      0.088167
     17 HM2A       -1.2210    2.3380   -0.3560 h1        1 DQY      0.088167
     18 HM2B       -2.5660    1.5710   -0.7330 h1        1 DQY      0.088167
     19 HS         -1.3930   -0.8670   -0.5010 hs        1 DQY     -0.283000
@<TRIPOS>BOND
     1    1    6 1   
     2    1    7 1   
     3    1    8 1   
     4    1   19 1   
     5    2    3 1   
     6    2    5 1   
     7    4    6 1   
     8    4    9 1   
     9    4   10 1   
    10    6   11 1   
    11    6   12 1   
    12    7   13 1   
    13    7   14 1   
    14    7   15 1   
    15    8   16 1   
    16    8   17 1   
    17    8   18 1   
@<TRIPOS>SUBSTRUCTURE
     1 DQY         1 TEMP              0 ****  ****    0 ROOT
