@<TRIPOS>MOLECULE
DQY
   19    18     1     0     0
SMALL
bcc


@<TRIPOS>ATOM
      1 S          -1.7510    0.0900    0.0470 s6        1 DQY     -0.536200
      2 C1          2.3380    0.0840    0.1060 c         1 DQY      0.908600
      3 O1          2.5390   -0.3070   -1.0810 o         1 DQY     -0.850300
      4 C2          0.9050    0.4770    0.5180 c3        1 DQY     -0.171400
      5 O2          3.2470    0.1940    0.9770 o         1 DQY     -0.850300
      6 C3         -0.1120   -0.4970   -0.0120 c3        1 DQY     -0.006600
      7 CM1        -1.9820    1.3480   -1.1390 c3        1 DQY     -0.080800
      8 CM2        -2.8440   -1.2720   -0.0670 c3        1 DQY     -0.080800
      9 H2          0.8490    0.5370    1.6330 hc        1 DQY      0.019700
     10 H2A         0.7110    1.5010    0.1050 hc        1 DQY      0.019700
     11 H3         -0.0380   -1.4540    0.5620 h1        1 DQY      0.081200
     12 H3A         0.1690   -0.7390   -1.0710 h1        1 DQY      0.081200
     13 HM1        -1.9210    0.9220   -2.1630 h1        1 DQY      0.049533
     14 HM1A       -2.9770    1.8230   -1.0090 h1        1 DQY      0.049533
     15 HM1B       -1.1960    2.1280   -1.0390 h1        1 DQY      0.049533
     16 HM2        -2.6180   -2.0220    0.7190 h1        1 DQY      0.049533
     17 HM2A       -3.8930   -0.9310    0.0550 h1        1 DQY      0.049533
     18 HM2B       -2.7410   -1.7600   -1.0600 h1        1 DQY      0.049533
     19 HS         -1.8750    0.6180    1.2330 hs        1 DQY      0.169800
@<TRIPOS>BOND
     1    1    6 1   
     2    1    7 1   
     3    1    8 1   
     4    1   19 1   
     5    2    3 1   
     6    2    4 1   
     7    2    5 1   
     8    4    6 1   
     9    4    9 1   
    10    4   10 1   
    11    6   11 1   
    12    6   12 1   
    13    7   13 1   
    14    7   14 1   
    15    7   15 1   
    16    8   16 1   
    17    8   17 1   
    18    8   18 1   
@<TRIPOS>SUBSTRUCTURE
     1 DQY         1 TEMP              0 ****  ****    0 ROOT
