@<TRIPOS>MOLECULE
DQY
   19    18     1     0     0
SMALL
bcc


@<TRIPOS>ATOM
      1 S           0.2740    0.1570    0.1300 s6        1 DQY     -0.536200
      2 C1          3.9470   -1.6030    0.4920 c         1 DQY      0.908600
      3 O1          4.5880   -0.6040    0.9300 o         1 DQY     -0.850300
      4 C2          2.4100   -1.5120    0.4080 c3        1 DQY     -0.171400
      5 O2          4.4880   -2.6890    0.1370 o         1 DQY     -0.850300
      6 C3          1.9620   -0.1810   -0.1330 c3        1 DQY     -0.006600
      7 CM1        -0.0200    0.4710    1.8210 c3        1 DQY     -0.080800
      8 CM2        -0.2300    1.4160   -0.9750 c3        1 DQY     -0.080800
      9 H2          2.0120   -1.6620    1.4450 hc        1 DQY      0.019700
     10 H2A         2.0290   -2.3460   -0.2330 hc        1 DQY      0.019700
     11 H3          2.5910    0.6120    0.3530 h1        1 DQY      0.081200
     12 H3A         2.1850   -0.1360   -1.2280 h1        1 DQY      0.081200
     13 HM1        -1.1110    0.5460    2.0160 h1        1 DQY      0.049533
     14 HM1A        0.4630    1.4260    2.1210 h1        1 DQY      0.049533
     15 HM1B        0.4020   -0.3430    2.4490 h1        1 DQY      0.049533
     16 HM2        -1.3230    1.5890   -0.8850 h1        1 DQY      0.049533
     17 HM2A        0.3010    2.3640   -0.7410 h1        1 DQY      0.049533
     18 HM2B        0.0020    1.1330   -2.0230 h1        1 DQY      0.049533
     19 HS         -0.3430   -0.9460   -0.1930 hs        1 DQY      0.169800
@<TRIPOS>BOND
     1    1    6 1   
     2    1    7 1   
     3    1    8 1   
     4    1   19 1   
     5    2    3 1   
     6    2    4 1   
     7    2    5 1   
     8    4    6 1   
     9    4    9 1   
    10    4   10 1   
    11    6   11 1   
    12    6   12 1   
    13    7   13 1   
    14    7   14 1   
    15    7   15 1   
    16    8   16 1   
    17    8   17 1   
    18    8   18 1   
@<TRIPOS>SUBSTRUCTURE
     1 DQY         1 TEMP              0 ****  ****    0 ROOT
