@<TRIPOS>MOLECULE
DQY
   19    18     1     0     0
SMALL
bcc


@<TRIPOS>ATOM
      1 S           0.2790    0.1680    0.1180 s6        1 DQY     -0.536200
      2 C1          3.9580   -1.5900    0.4330 c         1 DQY      0.908600
      3 O1          4.5620   -0.6490    1.0240 o         1 DQY     -0.850300
      4 C2          2.4250   -1.5030    0.2860 c3        1 DQY     -0.171400
      5 O2          4.5310   -2.6170   -0.0320 o         1 DQY     -0.850300
      6 C3          1.9830   -0.1190   -0.1040 c3        1 DQY     -0.006600
      7 CM1        -0.0980    0.2650    1.8180 c3        1 DQY     -0.080800
      8 CM2        -0.1920    1.5510   -0.8450 c3        1 DQY     -0.080800
      9 H2          1.9810   -1.7860    1.2760 hc        1 DQY      0.019700
     10 H2A         2.0870   -2.2520   -0.4720 hc        1 DQY      0.019700
     11 H3          2.5760    0.6120    0.5080 h1        1 DQY      0.081200
     12 H3A         2.2560    0.0670   -1.1720 h1        1 DQY      0.081200
     13 HM1        -1.1970    0.3030    1.9690 h1        1 DQY      0.049533
     14 HM1A        0.3540    1.1800    2.2570 h1        1 DQY      0.049533
     15 HM1B        0.3080   -0.6170    2.3590 h1        1 DQY      0.049533
     16 HM2        -1.2900    1.7010   -0.7870 h1        1 DQY      0.049533
     17 HM2A        0.3130    2.4660   -0.4680 h1        1 DQY      0.049533
     18 HM2B        0.0940    1.4040   -1.9070 h1        1 DQY      0.049533
     19 HS         -0.3050   -0.8910   -0.3700 hs        1 DQY      0.169800
@<TRIPOS>BOND
     1    1    6 1   
     2    1    7 1   
     3    1    8 1   
     4    1   19 1   
     5    2    3 1   
     6    2    4 1   
     7    2    5 1   
     8    4    6 1   
     9    4    9 1   
    10    4   10 1   
    11    6   11 1   
    12    6   12 1   
    13    7   13 1   
    14    7   14 1   
    15    7   15 1   
    16    8   16 1   
    17    8   17 1   
    18    8   18 1   
@<TRIPOS>SUBSTRUCTURE
     1 DQY         1 TEMP              0 ****  ****    0 ROOT
