@<TRIPOS>MOLECULE
DR0
   33    32     1     0     0
SMALL
bcc


@<TRIPOS>ATOM
      1 CAJ        -4.2790    0.1860   -2.8300 c3        1 DR0     -0.096100
      2 CAI        -2.7710   -0.0180   -2.8350 c3        1 DR0     -0.079400
      3 CAH        -2.2360    0.1160   -1.3860 c3        1 DR0     -0.080400
      4 CAG        -0.7180   -0.1240   -1.3760 c3        1 DR0     -0.080400
      5 CAF        -0.1740    0.0220    0.0870 c3        1 DR0     -0.101400
      6 CAE         1.2920   -0.3060    0.1120 c3        1 DR0      0.114800
      7 NAD         1.8390   -0.0310    1.4560 n4        1 DR0     -0.651800
      8 CAC         1.0550   -0.7420    2.4600 c3        1 DR0      0.084600
      9 CAK         1.7810    1.3820    1.7150 c3        1 DR0      0.084600
     10 CAB         3.2360   -0.4850    1.5140 c3        1 DR0      0.333600
     11 OAA         3.7850   -0.2030    2.8270 oh        1 DR0     -0.548800
     12 HAJ1       -4.6980   -0.4910   -2.2480 hc        1 DR0      0.042367
     13 HAJ2       -4.6260    0.0950   -3.7380 hc        1 DR0      0.042367
     14 HAJ3       -4.4840    1.0770   -2.4920 hc        1 DR0      0.042367
     15 HAI1       -2.5630   -0.9080   -3.1780 hc        1 DR0      0.044700
     16 HAI2       -2.3450    0.6650   -3.4100 hc        1 DR0      0.044700
     17 HAH1       -2.4260    1.0170   -1.0500 hc        1 DR0      0.048200
     18 HAH2       -2.6770   -0.5470   -0.8120 hc        1 DR0      0.048200
     19 HAG1       -0.5280   -1.0260   -1.7050 hc        1 DR0      0.054200
     20 HAG2       -0.2790    0.5360   -1.9570 hc        1 DR0      0.054200
     21 HAF1       -0.6460   -0.5810    0.6660 hc        1 DR0      0.065200
     22 HAF2       -0.3060    0.9380    0.3940 hc        1 DR0      0.065200
     23 HAE1        1.7620    0.2450   -0.5490 hx        1 DR0      0.095700
     24 HAE2        1.4180   -1.2450   -0.1040 hx        1 DR0      0.095700
     25 HAC1        0.2130   -0.2460    2.6370 hx        1 DR0      0.102367
     26 HAC2        1.5800   -0.8110    3.3010 hx        1 DR0      0.102367
     27 HAC3        0.8420   -1.6400    2.1330 hx        1 DR0      0.102367
     28 HAK1        0.8560    1.6420    1.9170 hx        1 DR0      0.102367
     29 HAK2        2.0920    1.8730    0.9210 hx        1 DR0      0.102367
     30 HAK3        2.3510    1.5970    2.4730 hx        1 DR0      0.102367
     31 HAB1        3.2720   -1.4450    1.3460 hx        1 DR0      0.112700
     32 HAB2        3.7610   -0.0130    0.8320 hx        1 DR0      0.112700
     33 HAA         4.6230   -0.5280    2.8790 ho        1 DR0      0.441000
@<TRIPOS>BOND
     1    1    2 1   
     2    1   12 1   
     3    1   13 1   
     4    1   14 1   
     5    2    3 1   
     6    2   15 1   
     7    2   16 1   
     8    3    4 1   
     9    3   17 1   
    10    3   18 1   
    11    4    5 1   
    12    4   19 1   
    13    4   20 1   
    14    5    6 1   
    15    5   21 1   
    16    5   22 1   
    17    6    7 1   
    18    6   23 1   
    19    6   24 1   
    20    7    8 1   
    21    7    9 1   
    22    7   10 1   
    23    8   25 1   
    24    8   26 1   
    25    8   27 1   
    26    9   28 1   
    27    9   29 1   
    28    9   30 1   
    29   10   11 1   
    30   10   31 1   
    31   10   32 1   
    32   11   33 1   
@<TRIPOS>SUBSTRUCTURE
     1 DR0         1 TEMP              0 ****  ****    0 ROOT
