@<TRIPOS>MOLECULE
DR0
   33    32     1     0     0
SMALL
bcc


@<TRIPOS>ATOM
      1 CAJ         0.0230   -0.0050   -0.1140 c3        1 DR0     -0.096100
      2 CAI         1.5270    0.0210   -0.0340 c3        1 DR0     -0.079400
      3 CAH         2.0020   -0.0220    1.4040 c3        1 DR0     -0.080400
      4 CAG         3.5140    0.0060    1.4770 c3        1 DR0     -0.080400
      5 CAF         3.9800   -0.0380    2.9210 c3        1 DR0     -0.101400
      6 CAE         5.5030   -0.0170    2.9520 c3        1 DR0      0.114800
      7 NAD         6.1180   -0.0250    4.3260 n4        1 DR0     -0.651800
      8 CAC         5.8160    1.2400    5.0450 c3        1 DR0      0.084600
      9 CAK         5.6270   -1.1850    5.1220 c3        1 DR0      0.084600
     10 CAB         7.6400   -0.1580    4.1450 c3        1 DR0      0.333600
     11 OAA         8.2810   -0.1870    5.3820 oh        1 DR0     -0.548800
     12 HAJ1       -0.4180    0.8730    0.4170 hc        1 DR0      0.042367
     13 HAJ2       -0.3820   -0.9370    0.3510 hc        1 DR0      0.042367
     14 HAJ3       -0.3060    0.0270   -1.1810 hc        1 DR0      0.042367
     15 HAI1        1.9150    0.9510   -0.5280 hc        1 DR0      0.044700
     16 HAI2        1.9510   -0.8540   -0.5950 hc        1 DR0      0.044700
     17 HAH1        1.6160   -0.9520    1.8980 hc        1 DR0      0.048200
     18 HAH2        1.5790    0.8530    1.9650 hc        1 DR0      0.048200
     19 HAG1        3.8970    0.9380    0.9820 hc        1 DR0      0.054200
     20 HAG2        3.9330   -0.8700    0.9150 hc        1 DR0      0.054200
     21 HAF1        3.5890   -0.9700    3.4080 hc        1 DR0      0.065200
     22 HAF2        3.5570    0.8420    3.4730 hc        1 DR0      0.065200
     23 HAE1        5.8920   -0.9250    2.4060 hx        1 DR0      0.095700
     24 HAE2        5.8740    0.9080    2.4240 hx        1 DR0      0.095700
     25 HAC1        4.7060    1.3500    5.1770 hx        1 DR0      0.102367
     26 HAC2        6.2070    2.1100    4.4550 hx        1 DR0      0.102367
     27 HAC3        6.3030    1.2140    6.0570 hx        1 DR0      0.102367
     28 HAK1        5.7170   -2.1200    4.5100 hx        1 DR0      0.102367
     29 HAK2        6.2540   -1.2820    6.0500 hx        1 DR0      0.102367
     30 HAK3        4.5530   -1.0220    5.4060 hx        1 DR0      0.102367
     31 HAB1        7.9770    0.6910    3.4870 hx        1 DR0      0.112700
     32 HAB2        7.8330   -1.1670    3.6720 hx        1 DR0      0.112700
     33 HAA         8.5490    0.7120    5.6310 ho        1 DR0      0.441000
@<TRIPOS>BOND
     1    1    2 1   
     2    1   12 1   
     3    1   13 1   
     4    1   14 1   
     5    2    3 1   
     6    2   15 1   
     7    2   16 1   
     8    3    4 1   
     9    3   17 1   
    10    3   18 1   
    11    4    5 1   
    12    4   19 1   
    13    4   20 1   
    14    5    6 1   
    15    5   21 1   
    16    5   22 1   
    17    6    7 1   
    18    6   23 1   
    19    6   24 1   
    20    7    8 1   
    21    7    9 1   
    22    7   10 1   
    23    8   25 1   
    24    8   26 1   
    25    8   27 1   
    26    9   28 1   
    27    9   29 1   
    28    9   30 1   
    29   10   11 1   
    30   10   31 1   
    31   10   32 1   
    32   11   33 1   
@<TRIPOS>SUBSTRUCTURE
     1 DR0         1 TEMP              0 ****  ****    0 ROOT
