@<TRIPOS>MOLECULE
DR0
   33    32     1     0     0
SMALL
bcc


@<TRIPOS>ATOM
      1 CAJ         0.0150   -0.0010   -0.1040 c3        1 DR0     -0.096100
      2 CAI         1.5200    0.0380   -0.0270 c3        1 DR0     -0.079400
      3 CAH         1.9980   -0.0220    1.4090 c3        1 DR0     -0.080400
      4 CAG         3.5110    0.0180    1.4790 c3        1 DR0     -0.080400
      5 CAF         3.9800   -0.0420    2.9210 c3        1 DR0     -0.101400
      6 CAE         5.5030   -0.0110    2.9490 c3        1 DR0      0.114800
      7 NAD         6.1220   -0.0300    4.3210 n4        1 DR0     -0.651800
      8 CAC         5.8140    1.2260    5.0550 c3        1 DR0      0.084600
      9 CAK         5.6390   -1.2010    5.1060 c3        1 DR0      0.084600
     10 CAB         7.6440   -0.1520    4.1350 c3        1 DR0      0.333600
     11 OAA         8.2890   -0.1910    5.3700 oh        1 DR0     -0.548800
     12 HAJ1       -0.4310    0.8660    0.4410 hc        1 DR0      0.042367
     13 HAJ2       -0.3800   -0.9420    0.3480 hc        1 DR0      0.042367
     14 HAJ3       -0.3160    0.0440   -1.1700 hc        1 DR0      0.042367
     15 HAI1        1.8980    0.9780   -0.5090 hc        1 DR0      0.044700
     16 HAI2        1.9500   -0.8250   -0.6010 hc        1 DR0      0.044700
     17 HAH1        1.6210   -0.9620    1.8910 hc        1 DR0      0.048200
     18 HAH2        1.5700    0.8420    1.9830 hc        1 DR0      0.048200
     19 HAG1        3.8850    0.9590    0.9950 hc        1 DR0      0.054200
     20 HAG2        3.9360   -0.8480    0.9050 hc        1 DR0      0.054200
     21 HAF1        3.5980   -0.9830    3.3970 hc        1 DR0      0.065200
     22 HAF2        3.5520    0.8280    3.4860 hc        1 DR0      0.065200
     23 HAE1        5.8980   -0.9090    2.3920 hx        1 DR0      0.095700
     24 HAE2        5.8670    0.9230    2.4310 hx        1 DR0      0.095700
     25 HAC1        4.7040    1.3280    5.1900 hx        1 DR0      0.102367
     26 HAC2        6.2000    2.1040    4.4730 hx        1 DR0      0.102367
     27 HAC3        6.3030    1.1910    6.0660 hx        1 DR0      0.102367
     28 HAK1        5.7340   -2.1290    4.4830 hx        1 DR0      0.102367
     29 HAK2        6.2690   -1.3040    6.0320 hx        1 DR0      0.102367
     30 HAK3        4.5660   -1.0470    5.3940 hx        1 DR0      0.102367
     31 HAB1        7.9740    0.7050    3.4850 hx        1 DR0      0.112700
     32 HAB2        7.8420   -1.1550    3.6510 hx        1 DR0      0.112700
     33 HAA         8.5520    0.7070    5.6280 ho        1 DR0      0.441000
@<TRIPOS>BOND
     1    1    2 1   
     2    1   12 1   
     3    1   13 1   
     4    1   14 1   
     5    2    3 1   
     6    2   15 1   
     7    2   16 1   
     8    3    4 1   
     9    3   17 1   
    10    3   18 1   
    11    4    5 1   
    12    4   19 1   
    13    4   20 1   
    14    5    6 1   
    15    5   21 1   
    16    5   22 1   
    17    6    7 1   
    18    6   23 1   
    19    6   24 1   
    20    7    8 1   
    21    7    9 1   
    22    7   10 1   
    23    8   25 1   
    24    8   26 1   
    25    8   27 1   
    26    9   28 1   
    27    9   29 1   
    28    9   30 1   
    29   10   11 1   
    30   10   31 1   
    31   10   32 1   
    32   11   33 1   
@<TRIPOS>SUBSTRUCTURE
     1 DR0         1 TEMP              0 ****  ****    0 ROOT
