@<TRIPOS>MOLECULE
DR0
   33    32     1     0     0
SMALL
bcc


@<TRIPOS>ATOM
      1 CAJ         5.5250   -0.2930    0.0000 c3        1 DR0     -0.096100
      2 CAI         4.2850    0.5620    0.0380 c3        1 DR0     -0.079400
      3 CAH         3.0310   -0.2870   -0.0210 c3        1 DR0     -0.080400
      4 CAG         1.7880    0.5780    0.0170 c3        1 DR0     -0.080400
      5 CAF         0.5380   -0.2800   -0.0410 c3        1 DR0     -0.101400
      6 CAE        -0.6870    0.6250   -0.0110 c3        1 DR0      0.114800
      7 NAD        -2.0130   -0.0880   -0.0300 n4        1 DR0     -0.651800
      8 CAC        -2.1070   -1.0040   -1.2010 c3        1 DR0      0.084600
      9 CAK        -2.2160   -0.8570    1.2260 c3        1 DR0      0.084600
     10 CAB        -3.1070    0.9860   -0.1530 c3        1 DR0      0.333600
     11 OAA        -4.3710    0.3980   -0.1910 oh        1 DR0     -0.548800
     12 HAJ1        6.4370    0.3510    0.0440 hc        1 DR0      0.042367
     13 HAJ2        5.5480   -0.9960    0.8680 hc        1 DR0      0.042367
     14 HAJ3        5.5640   -0.8940   -0.9400 hc        1 DR0      0.042367
     15 HAI1        4.2780    1.1760    0.9770 hc        1 DR0      0.044700
     16 HAI2        4.2930    1.2780   -0.8270 hc        1 DR0      0.044700
     17 HAH1        3.0370   -0.9000   -0.9610 hc        1 DR0      0.048200
     18 HAH2        3.0210   -1.0020    0.8440 hc        1 DR0      0.048200
     19 HAG1        1.7860    1.1910    0.9580 hc        1 DR0      0.054200
     20 HAG2        1.8010    1.2920   -0.8490 hc        1 DR0      0.054200
     21 HAF1        0.5520   -0.8920   -0.9820 hc        1 DR0      0.065200
     22 HAF2        0.5340   -0.9880    0.8290 hc        1 DR0      0.065200
     23 HAE1       -0.6600    1.2570    0.9230 hx        1 DR0      0.095700
     24 HAE2       -0.6610    1.3060   -0.9100 hx        1 DR0      0.095700
     25 HAC1       -1.4310   -1.8860   -1.0470 hx        1 DR0      0.102367
     26 HAC2       -3.1710   -1.3560   -1.3040 hx        1 DR0      0.102367
     27 HAC3       -1.8030   -0.4530   -2.1300 hx        1 DR0      0.102367
     28 HAK1       -2.1670   -0.1610    2.1040 hx        1 DR0      0.102367
     29 HAK2       -3.2190   -1.3610    1.1910 hx        1 DR0      0.102367
     30 HAK3       -1.4170   -1.6400    1.3280 hx        1 DR0      0.102367
     31 HAB1       -2.9740    1.7030    0.7050 hx        1 DR0      0.112700
     32 HAB2       -2.9700    1.4900   -1.1560 hx        1 DR0      0.112700
     33 HAA        -4.7360    0.3540    0.7060 ho        1 DR0      0.441000
@<TRIPOS>BOND
     1    1    2 1   
     2    1   12 1   
     3    1   13 1   
     4    1   14 1   
     5    2    3 1   
     6    2   15 1   
     7    2   16 1   
     8    3    4 1   
     9    3   17 1   
    10    3   18 1   
    11    4    5 1   
    12    4   19 1   
    13    4   20 1   
    14    5    6 1   
    15    5   21 1   
    16    5   22 1   
    17    6    7 1   
    18    6   23 1   
    19    6   24 1   
    20    7    8 1   
    21    7    9 1   
    22    7   10 1   
    23    8   25 1   
    24    8   26 1   
    25    8   27 1   
    26    9   28 1   
    27    9   29 1   
    28    9   30 1   
    29   10   11 1   
    30   10   31 1   
    31   10   32 1   
    32   11   33 1   
@<TRIPOS>SUBSTRUCTURE
     1 DR0         1 TEMP              0 ****  ****    0 ROOT
