@<TRIPOS>MOLECULE
DR0
   33    32     1     0     0
SMALL
bcc


@<TRIPOS>ATOM
      1 CAJ         0.0320    0.0020   -0.1280 c3        1 DR0     -0.096100
      2 CAI         1.5360    0.0230   -0.0430 c3        1 DR0     -0.079400
      3 CAH         2.0060   -0.0170    1.3970 c3        1 DR0     -0.080400
      4 CAG         3.5180    0.0050    1.4750 c3        1 DR0     -0.080400
      5 CAF         3.9790   -0.0360    2.9200 c3        1 DR0     -0.101400
      6 CAE         5.5020   -0.0200    2.9560 c3        1 DR0      0.114800
      7 NAD         6.1130   -0.0280    4.3320 n4        1 DR0     -0.651800
      8 CAC         5.8100    1.2380    5.0500 c3        1 DR0      0.084600
      9 CAK         5.6180   -1.1870    5.1270 c3        1 DR0      0.084600
     10 CAB         7.6350   -0.1630    4.1550 c3        1 DR0      0.333600
     11 OAA         8.2730   -0.1930    5.3940 oh        1 DR0     -0.548800
     12 HAJ1       -0.3790   -0.9250    0.3400 hc        1 DR0      0.042367
     13 HAJ2       -0.4070    0.8850    0.3990 hc        1 DR0      0.042367
     14 HAJ3       -0.2930    0.0320   -1.1960 hc        1 DR0      0.042367
     15 HAI1        1.9290    0.9490   -0.5390 hc        1 DR0      0.044700
     16 HAI2        1.9580   -0.8560   -0.5990 hc        1 DR0      0.044700
     17 HAH1        1.6150   -0.9440    1.8930 hc        1 DR0      0.048200
     18 HAH2        1.5850    0.8620    1.9530 hc        1 DR0      0.048200
     19 HAG1        3.9360   -0.8740    0.9170 hc        1 DR0      0.054200
     20 HAG2        3.9060    0.9340    0.9780 hc        1 DR0      0.054200
     21 HAF1        3.5840   -0.9660    3.4080 hc        1 DR0      0.065200
     22 HAF2        3.5570    0.8460    3.4680 hc        1 DR0      0.065200
     23 HAE1        5.8780    0.9040    2.4280 hx        1 DR0      0.095700
     24 HAE2        5.8910   -0.9290    2.4120 hx        1 DR0      0.095700
     25 HAC1        6.2040    2.1070    4.4600 hx        1 DR0      0.102367
     26 HAC2        4.7000    1.3480    5.1790 hx        1 DR0      0.102367
     27 HAC3        6.2950    1.2110    6.0630 hx        1 DR0      0.102367
     28 HAK1        4.5440   -1.0230    5.4070 hx        1 DR0      0.102367
     29 HAK2        6.2420   -1.2840    6.0570 hx        1 DR0      0.102367
     30 HAK3        5.7100   -2.1230    4.5150 hx        1 DR0      0.102367
     31 HAB1        7.8290   -1.1720    3.6830 hx        1 DR0      0.112700
     32 HAB2        7.9750    0.6860    3.4990 hx        1 DR0      0.112700
     33 HAA         8.5410    0.7050    5.6440 ho        1 DR0      0.441000
@<TRIPOS>BOND
     1    1    2 1   
     2    1   12 1   
     3    1   13 1   
     4    1   14 1   
     5    2    3 1   
     6    2   15 1   
     7    2   16 1   
     8    3    4 1   
     9    3   17 1   
    10    3   18 1   
    11    4    5 1   
    12    4   19 1   
    13    4   20 1   
    14    5    6 1   
    15    5   21 1   
    16    5   22 1   
    17    6    7 1   
    18    6   23 1   
    19    6   24 1   
    20    7    8 1   
    21    7    9 1   
    22    7   10 1   
    23    8   25 1   
    24    8   26 1   
    25    8   27 1   
    26    9   28 1   
    27    9   29 1   
    28    9   30 1   
    29   10   11 1   
    30   10   31 1   
    31   10   32 1   
    32   11   33 1   
@<TRIPOS>SUBSTRUCTURE
     1 DR0         1 TEMP              0 ****  ****    0 ROOT
