@<TRIPOS>MOLECULE
DR1
   30    33     1     0     0
SMALL
bcc


@<TRIPOS>ATOM
      1 C1          1.3880    0.1010    3.0490 ca        1 DR1     -0.167000
      2 C2          0.8700    0.1400    4.3220 ca        1 DR1     -0.088000
      3 C3         -0.5220    0.0850    4.5410 ca        1 DR1     -0.152000
      4 C4         -1.3770    0.0070    3.4680 ca        1 DR1     -0.081000
      5 C5         -0.8870   -0.0290    2.1370 ca        1 DR1     -0.086000
      6 C6         -1.8000   -0.0830    1.0460 cc        1 DR1     -0.036000
      7 C7         -1.3110   -0.0700   -0.2370 cd        1 DR1      0.104400
      8 N8         -1.9760   -0.0800   -1.4610 nd        1 DR1     -0.325400
      9 C9         -1.0040   -0.0330   -2.4080 ca        1 DR1      0.055000
     10 C10        -1.1560   -0.0130   -3.8330 ca        1 DR1     -0.133000
     11 C11        -0.0450    0.0650   -4.6210 ca        1 DR1     -0.092000
     12 C12         1.2690    0.1390   -4.0680 ca        1 DR1     -0.182000
     13 C13         1.4690    0.1150   -2.7150 ca        1 DR1     -0.059000
     14 C14         0.3600    0.0090   -1.8470 ca        1 DR1     -0.215000
     15 C15         0.1800   -0.0340   -0.4450 cd        1 DR1      0.016700
     16 N16         1.0370   -0.0640    0.6170 na        1 DR1     -0.022100
     17 C17         0.5240   -0.0020    1.9150 ca        1 DR1      0.030700
     18 C18         2.4570   -0.2240    0.4080 c3        1 DR1     -0.003400
     19 HC1         2.4780    0.1720    2.9130 ha        1 DR1      0.138000
     20 HC2         1.5470    0.2200    5.1870 ha        1 DR1      0.139000
     21 HC3        -0.9100    0.1110    5.5690 ha        1 DR1      0.141000
     22 HC4        -2.4680   -0.0250    3.6200 ha        1 DR1      0.142000
     23 HC6        -2.8820   -0.1260    1.2470 ha        1 DR1      0.160000
     24 H10        -2.1690   -0.0590   -4.2580 ha        1 DR1      0.146000
     25 H11        -0.1440    0.0800   -5.7180 ha        1 DR1      0.127000
     26 H12         2.1200    0.2220   -4.7590 ha        1 DR1      0.127000
     27 H13         2.4860    0.2000   -2.3050 ha        1 DR1      0.114000
     28 H181        2.8970   -0.8770    1.2080 h1        1 DR1      0.066367
     29 H182        2.6360   -0.7260   -0.5810 h1        1 DR1      0.066367
     30 H183        2.9630    0.7780    0.4190 h1        1 DR1      0.066367
@<TRIPOS>BOND
     1    1    2 ar  
     2    1   17 ar  
     3    1   19 1   
     4    2    3 ar  
     5    2   20 1   
     6    3    4 ar  
     7    3   21 1   
     8    4    5 ar  
     9    4   22 1   
    10    5    6 1   
    11    5   17 ar  
    12    6    7 2   
    13    6   23 1   
    14    7    8 1   
    15    7   15 1   
    16    8    9 2   
    17    9   10 ar  
    18    9   14 ar  
    19   10   11 ar  
    20   10   24 1   
    21   11   12 ar  
    22   11   25 1   
    23   12   13 ar  
    24   12   26 1   
    25   13   14 ar  
    26   13   27 1   
    27   14   15 2   
    28   15   16 1   
    29   16   17 1   
    30   16   18 1   
    31   18   28 1   
    32   18   29 1   
    33   18   30 1   
@<TRIPOS>SUBSTRUCTURE
     1 DR1         1 TEMP              0 ****  ****    0 ROOT
