@<TRIPOS>MOLECULE
DR4
   54    54     1     0     0
SMALL
bcc


@<TRIPOS>ATOM
      1 CAA        -7.9370   -2.3620   -6.6090 c3        1 DR4      0.125700
      2 OAP        -6.5710   -2.2120   -6.2970 os        1 DR4     -0.443900
      3 CAS        -6.2930   -1.1110   -5.4560 c         1 DR4      0.629100
      4 OAB        -7.2000   -0.5440   -4.8760 o         1 DR4     -0.541000
      5 CAO        -4.8320   -0.6350   -5.2620 c3        1 DR4     -0.127400
      6 CAL        -4.5350   -0.4760   -3.7560 c3        1 DR4     -0.079400
      7 CAJ        -3.0470   -0.0710   -3.5610 c3        1 DR4     -0.078400
      8 CAH        -2.7530    0.0800   -2.0670 c3        1 DR4     -0.079400
      9 CAG        -1.2320    0.3480   -1.8590 c3        1 DR4     -0.078400
     10 CAI        -0.9200    0.3830   -0.3630 c3        1 DR4     -0.076400
     11 CAK         0.5660    0.6770   -0.1600 c3        1 DR4     -0.113400
     12 CAM         0.9740    0.2890    1.2640 c3        1 DR4      0.133400
     13 O1          2.3850    0.1890    1.3400 os        1 DR4     -0.448600
     14 C1          2.7940    0.0370    2.4260 c3        1 DR4      0.326900
     15 O5          3.0200    1.4340    3.1820 os        1 DR4     -0.425600
     16 C5          3.5610    1.2890    4.5620 c3        1 DR4      0.117100
     17 C6          4.6390    2.4090    4.8170 c3        1 DR4      0.093400
     18 O6          4.0080    3.5570    5.4040 oh        1 DR4     -0.608800
     19 C4          4.1480    0.0470    4.7490 c3        1 DR4      0.095100
     20 O4          5.1090    0.2080    6.0580 oh        1 DR4     -0.593800
     21 C3          4.9250   -0.6250    3.7880 c3        1 DR4      0.079100
     22 O3          6.3190   -0.0850    3.8240 oh        1 DR4     -0.614800
     23 C2          4.3730   -0.4460    2.4280 c3        1 DR4      0.128100
     24 O2          4.4720   -1.6370    1.7510 oh        1 DR4     -0.597800
     25 HAA1       -8.2690   -1.5400   -7.0360 h1        1 DR4      0.050367
     26 HAA2       -8.4490   -2.5330   -5.7790 h1        1 DR4      0.050367
     27 HAA3       -8.0500   -3.1120   -7.2200 h1        1 DR4      0.050367
     28 HAO1       -4.2160   -1.3020   -5.6480 hc        1 DR4      0.078200
     29 HAO2       -4.7040    0.2310   -5.7150 hc        1 DR4      0.078200
     30 HAL1       -4.7050   -1.3230   -3.2980 hc        1 DR4      0.057700
     31 HAL2       -5.1130    0.2190   -3.3810 hc        1 DR4      0.057700
     32 HAJ1       -2.8760    0.7830   -4.0180 hc        1 DR4      0.041200
     33 HAJ2       -2.4770   -0.7540   -3.9330 hc        1 DR4      0.041200
     34 HAH1       -3.2680    0.8300   -1.7080 hc        1 DR4      0.042700
     35 HAH2       -3.0050   -0.7430   -1.6000 hc        1 DR4      0.042700
     36 HAG1       -0.9940    1.2120   -2.2630 hc        1 DR4      0.042200
     37 HAG2       -0.7140   -0.3650   -2.2840 hc        1 DR4      0.042200
     38 HAI1       -1.1370   -0.4800    0.0350 hc        1 DR4      0.040700
     39 HAI2       -1.4530    1.0830    0.0660 hc        1 DR4      0.040700
     40 HAK1        0.7320    1.6320   -0.2980 hc        1 DR4      0.051700
     41 HAK2        1.0950    0.1560   -0.8070 hc        1 DR4      0.051700
     42 HAM1        0.5680   -0.5810    1.4980 h1        1 DR4      0.053700
     43 HAM2        0.6620    0.9730    1.8890 h1        1 DR4      0.053700
     44 H1          2.2330   -0.5670    2.9480 h2        1 DR4      0.100700
     45 H5          2.8380    1.3960    5.1990 h1        1 DR4      0.102700
     46 H61         5.3360    2.0620    5.4350 h1        1 DR4      0.049200
     47 H62         5.0510    2.6610    3.9720 h1        1 DR4      0.049200
     48 HO6         4.6200    4.0760    5.7660 ho        1 DR4      0.410000
     49 H4          3.4190   -0.5700    4.9980 h1        1 DR4      0.086700
     50 HO4         4.9270   -0.4230    6.6340 ho        1 DR4      0.426000
     51 H3          4.9440   -1.5750    4.0010 h1        1 DR4      0.058700
     52 HO3         6.8850   -0.7450    3.9340 ho        1 DR4      0.427000
     53 H2          4.9070    0.2280    1.9590 h1        1 DR4      0.079700
     54 HO2         5.2400   -1.6710    1.3320 ho        1 DR4      0.421000
@<TRIPOS>BOND
     1    1    2 1   
     2    1   25 1   
     3    1   26 1   
     4    1   27 1   
     5    2    3 1   
     6    3    4 2   
     7    3    5 1   
     8    5    6 1   
     9    5   28 1   
    10    5   29 1   
    11    6    7 1   
    12    6   30 1   
    13    6   31 1   
    14    7    8 1   
    15    7   32 1   
    16    7   33 1   
    17    8    9 1   
    18    8   34 1   
    19    8   35 1   
    20    9   10 1   
    21    9   36 1   
    22    9   37 1   
    23   10   11 1   
    24   10   38 1   
    25   10   39 1   
    26   11   12 1   
    27   11   40 1   
    28   11   41 1   
    29   12   13 1   
    30   12   42 1   
    31   12   43 1   
    32   13   14 1   
    33   14   15 1   
    34   14   23 1   
    35   14   44 1   
    36   15   16 1   
    37   16   17 1   
    38   16   19 1   
    39   16   45 1   
    40   17   18 1   
    41   17   46 1   
    42   17   47 1   
    43   18   48 1   
    44   19   20 1   
    45   19   21 1   
    46   19   49 1   
    47   20   50 1   
    48   21   22 1   
    49   21   23 1   
    50   21   51 1   
    51   22   52 1   
    52   23   24 1   
    53   23   53 1   
    54   24   54 1   
@<TRIPOS>SUBSTRUCTURE
     1 DR4         1 TEMP              0 ****  ****    0 ROOT
