@<TRIPOS>MOLECULE
DR4
   54    54     1     0     0
SMALL
bcc


@<TRIPOS>ATOM
      1 CAA        10.8230   -0.5610   -0.3490 c3        1 DR4      0.125700
      2 OAP         9.5730   -0.0540   -0.8190 os        1 DR4     -0.442900
      3 CAS         8.5740    0.0810    0.1070 c         1 DR4      0.629100
      4 OAB         8.8150   -0.2470    1.2710 o         1 DR4     -0.541000
      5 CAO         7.3170    0.6440   -0.4770 c3        1 DR4     -0.127400
      6 CAL         6.0930    0.0280    0.1670 c3        1 DR4     -0.079400
      7 CAJ         4.8310    0.7050   -0.3210 c3        1 DR4     -0.078400
      8 CAH         3.6020    0.0780    0.3030 c3        1 DR4     -0.079400
      9 CAG         2.3380    0.7590   -0.1750 c3        1 DR4     -0.078400
     10 CAI         1.1090    0.1290    0.4460 c3        1 DR4     -0.078400
     11 CAK        -0.1520    0.8160   -0.0300 c3        1 DR4     -0.085400
     12 CAM        -1.3730    0.1680    0.5970 c3        1 DR4      0.137400
     13 O1         -2.5080    0.8820    0.0910 os        1 DR4     -0.423600
     14 C1         -3.7390    0.4210    0.6010 c3        1 DR4      0.311900
     15 O5         -3.8570   -0.8800    0.0400 os        1 DR4     -0.440600
     16 C5         -5.1190   -1.4960    0.3020 c3        1 DR4      0.111100
     17 C6         -5.0700   -2.8440   -0.4280 c3        1 DR4      0.142400
     18 O6         -4.0360   -3.6540    0.0850 oh        1 DR4     -0.599800
     19 C4         -6.3110   -0.6520   -0.1750 c3        1 DR4      0.124100
     20 O4         -6.3210   -0.6490   -1.5910 oh        1 DR4     -0.591800
     21 C3         -6.2060    0.7740    0.3940 c3        1 DR4      0.111100
     22 O3         -7.2400    1.5290   -0.2130 oh        1 DR4     -0.607800
     23 C2         -4.8290    1.3650    0.0590 c3        1 DR4      0.086100
     24 O2         -4.7570    2.6300    0.6890 oh        1 DR4     -0.606800
     25 HAA1       11.2420    0.1210    0.4290 h1        1 DR4      0.050700
     26 HAA2       10.6830   -1.5840    0.0750 h1        1 DR4      0.050700
     27 HAA3       11.4620   -0.5810   -1.2660 h1        1 DR4      0.050700
     28 HAO1        7.3340    1.7540   -0.3010 hc        1 DR4      0.078700
     29 HAO2        7.3080    0.4740   -1.5860 hc        1 DR4      0.078700
     30 HAL1        6.0540   -1.0670   -0.0720 hc        1 DR4      0.057700
     31 HAL2        6.1730    0.1200    1.2830 hc        1 DR4      0.057700
     32 HAJ1        4.8660    1.7970   -0.0680 hc        1 DR4      0.041700
     33 HAJ2        4.7680    0.6260   -1.4390 hc        1 DR4      0.041700
     34 HAH1        3.5630   -1.0130    0.0430 hc        1 DR4      0.043200
     35 HAH2        3.6700    0.1500    1.4210 hc        1 DR4      0.043200
     36 HAG1        2.3750    1.8500    0.0880 hc        1 DR4      0.042200
     37 HAG2        2.2720    0.6910   -1.2930 hc        1 DR4      0.042200
     38 HAI1        1.0700   -0.9600    0.1790 hc        1 DR4      0.042200
     39 HAI2        1.1770    0.1950    1.5640 hc        1 DR4      0.042200
     40 HAK1       -0.1260    1.9040    0.2390 hc        1 DR4      0.054700
     41 HAK2       -0.2310    0.7520   -1.1470 hc        1 DR4      0.054700
     42 HAM1       -1.4540   -0.9120    0.3080 h1        1 DR4      0.038200
     43 HAM2       -1.3510    0.2540    1.7160 h1        1 DR4      0.038200
     44 H1         -3.7410    0.3710    1.7250 h2        1 DR4      0.048700
     45 H5         -5.2170   -1.6530    1.4130 h1        1 DR4      0.052700
     46 H61        -6.0180   -3.4100   -0.2340 h1        1 DR4      0.067700
     47 H62        -4.9370   -2.6700   -1.5280 h1        1 DR4      0.067700
     48 HO6        -3.2050   -3.1910   -0.0830 ho        1 DR4      0.412000
     49 H4         -7.2660   -1.1210    0.1980 h1        1 DR4      0.056700
     50 HO4        -6.9710    0.0140   -1.8640 ho        1 DR4      0.425000
     51 H3         -6.3540    0.7600    1.5090 h1        1 DR4      0.057700
     52 HO3        -7.0820    2.4540    0.0190 ho        1 DR4      0.431000
     53 H2         -4.7160    1.4710   -1.0560 h1        1 DR4      0.086700
     54 HO2        -3.8830    2.9890    0.4840 ho        1 DR4      0.426000
@<TRIPOS>BOND
     1    1    2 1   
     2    1   25 1   
     3    1   26 1   
     4    1   27 1   
     5    2    3 1   
     6    3    4 2   
     7    3    5 1   
     8    5    6 1   
     9    5   28 1   
    10    5   29 1   
    11    6    7 1   
    12    6   30 1   
    13    6   31 1   
    14    7    8 1   
    15    7   32 1   
    16    7   33 1   
    17    8    9 1   
    18    8   34 1   
    19    8   35 1   
    20    9   10 1   
    21    9   36 1   
    22    9   37 1   
    23   10   11 1   
    24   10   38 1   
    25   10   39 1   
    26   11   12 1   
    27   11   40 1   
    28   11   41 1   
    29   12   13 1   
    30   12   42 1   
    31   12   43 1   
    32   13   14 1   
    33   14   15 1   
    34   14   23 1   
    35   14   44 1   
    36   15   16 1   
    37   16   17 1   
    38   16   19 1   
    39   16   45 1   
    40   17   18 1   
    41   17   46 1   
    42   17   47 1   
    43   18   48 1   
    44   19   20 1   
    45   19   21 1   
    46   19   49 1   
    47   20   50 1   
    48   21   22 1   
    49   21   23 1   
    50   21   51 1   
    51   22   52 1   
    52   23   24 1   
    53   23   53 1   
    54   24   54 1   
@<TRIPOS>SUBSTRUCTURE
     1 DR4         1 TEMP              0 ****  ****    0 ROOT
