@<TRIPOS>MOLECULE
DR5
   48    49     1     0     0
SMALL
bcc


@<TRIPOS>ATOM
      1 O2         -2.0890   -2.0390    1.8990 oh        1 DR5     -0.597800
      2 C2         -0.6510   -2.0390    1.8990 c3        1 DR5      0.081100
      3 C3         -0.1720   -2.0390    3.3020 c3        1 DR5      0.073100
      4 O3         -0.5280   -3.3100    3.9210 oh        1 DR5     -0.595800
      5 C4          1.2930   -1.8560    3.3920 c3        1 DR5      0.086100
      6 O4          1.9410   -3.0330    2.8770 oh        1 DR5     -0.596800
      7 C5          1.7730   -0.6510    2.6090 c3        1 DR5      0.067100
      8 C6          3.2720   -0.6430    2.6010 c3        1 DR5      0.147400
      9 O6          3.7400    0.6800    2.8010 oh        1 DR5     -0.601800
     10 O5          1.2890   -0.6520    1.2210 os        1 DR5     -0.432600
     11 C1         -0.1610   -0.8310    1.1230 c3        1 DR5      0.345900
     12 O1         -0.5100   -0.9880   -0.2300 os        1 DR5     -0.391600
     13 CAX        -0.4600    0.2670   -0.8800 c3        1 DR5      0.121100
     14 CAS         0.4970    0.1750   -2.0080 c3        1 DR5      0.131100
     15 OAH         1.8680   -0.0960   -1.4520 oh        1 DR5     -0.598800
     16 CAR         0.5540    1.3420   -2.7900 c3        1 DR5      0.083100
     17 OAG         1.4280    1.0580   -4.0180 oh        1 DR5     -0.603800
     18 CAV        -0.7260    1.8120   -3.2460 c3        1 DR5      0.300900
     19 OAK        -0.5460    3.0910   -3.8760 os        1 DR5     -0.422600
     20 CAA        -1.4130    3.3160   -4.9850 c3        1 DR5      0.120700
     21 OAM        -1.7260    1.9550   -2.1680 os        1 DR5     -0.429600
     22 CAU        -1.9570    0.6790   -1.3160 c3        1 DR5      0.142100
     23 CAJ        -2.7060    0.9500   -0.2480 c3        1 DR5      0.127400
     24 OAC        -3.8720    1.6520   -0.6530 oh        1 DR5     -0.599800
     25 HO2        -2.3850   -2.8750    1.8990 ho        1 DR5      0.424000
     26 H2         -0.3350   -2.8490    1.4570 h1        1 DR5      0.066700
     27 H3         -0.6130   -1.3150    3.7870 h1        1 DR5      0.090700
     28 HO3        -0.9350   -3.1580    4.6950 ho        1 DR5      0.422000
     29 H4          1.5410   -1.7430    4.3300 h1        1 DR5      0.098700
     30 HO4         2.3400   -3.4660    3.5420 ho        1 DR5      0.420000
     31 H5          1.4560    0.1590    3.0520 h1        1 DR5      0.066700
     32 H61         3.6040   -1.2170    3.3170 h1        1 DR5      0.058200
     33 H62         3.5950   -0.9750    1.7420 h1        1 DR5      0.058200
     34 HO6         4.5880    0.6580    3.0620 ho        1 DR5      0.427000
     35 H1         -0.6010   -0.0320    1.4720 h2        1 DR5      0.069700
     36 HAX        -0.1280    0.9320   -0.2470 h1        1 DR5      0.074700
     37 HAS         0.2370   -0.5730   -2.5800 h1        1 DR5      0.070700
     38 HAH         2.3540   -0.5250   -2.0580 ho        1 DR5      0.421000
     39 HAR         0.9750    2.0480   -2.2640 h1        1 DR5      0.075700
     40 HAG         2.0840    1.6550   -4.0590 ho        1 DR5      0.424000
     41 HAV        -1.0710    1.1830   -3.9080 h2        1 DR5      0.055700
     42 HAA1       -2.3420    3.2570   -4.6890 h1        1 DR5      0.043700
     43 HAA2       -1.2470    2.6420   -5.6700 h1        1 DR5      0.043700
     44 HAA3       -1.2450    4.2040   -5.3540 h1        1 DR5      0.043700
     45 HAU        -2.3650   -0.0250   -1.8540 h1        1 DR5      0.078700
     46 HAJ1       -2.9640    0.1160    0.1890 h1        1 DR5      0.052700
     47 HAJ2       -2.1960    1.5000    0.3770 h1        1 DR5      0.052700
     48 HAC        -4.4860    1.5990   -0.0140 ho        1 DR5      0.404000
@<TRIPOS>BOND
     1    1    2 1   
     2    1   25 1   
     3    2    3 1   
     4    2   11 1   
     5    2   26 1   
     6    3    4 1   
     7    3    5 1   
     8    3   27 1   
     9    4   28 1   
    10    5    6 1   
    11    5    7 1   
    12    5   29 1   
    13    6   30 1   
    14    7    8 1   
    15    7   10 1   
    16    7   31 1   
    17    8    9 1   
    18    8   32 1   
    19    8   33 1   
    20    9   34 1   
    21   10   11 1   
    22   11   12 1   
    23   11   35 1   
    24   12   13 1   
    25   13   14 1   
    26   13   22 1   
    27   13   36 1   
    28   14   15 1   
    29   14   16 1   
    30   14   37 1   
    31   15   38 1   
    32   16   17 1   
    33   16   18 1   
    34   16   39 1   
    35   17   40 1   
    36   18   19 1   
    37   18   21 1   
    38   18   41 1   
    39   19   20 1   
    40   20   42 1   
    41   20   43 1   
    42   20   44 1   
    43   21   22 1   
    44   22   23 1   
    45   22   45 1   
    46   23   24 1   
    47   23   46 1   
    48   23   47 1   
    49   24   48 1   
@<TRIPOS>SUBSTRUCTURE
     1 DR5         1 TEMP              0 ****  ****    0 ROOT
