@<TRIPOS>MOLECULE
DR5
   48    49     1     0     0
SMALL
bcc


@<TRIPOS>ATOM
      1 O2         -2.3690    2.6300   -0.5590 oh        1 DR5     -0.606800
      2 C2         -2.5740    1.2300   -0.6020 c3        1 DR5      0.083100
      3 C3         -3.9450    0.9580    0.0360 c3        1 DR5      0.111100
      4 O3         -4.9860    1.4810   -0.7690 oh        1 DR5     -0.606800
      5 C4         -4.1840   -0.5600    0.1340 c3        1 DR5      0.123100
      6 O4         -4.3240   -1.1460   -1.1470 oh        1 DR5     -0.589800
      7 C5         -3.0050   -1.2300    0.8540 c3        1 DR5      0.109100
      8 C6         -3.0720   -2.7600    0.7600 c3        1 DR5      0.149400
      9 O6         -1.9660   -3.3490    1.4060 oh        1 DR5     -0.608800
     10 O5         -1.7410   -0.8930    0.2810 os        1 DR5     -0.415600
     11 C1         -1.4950    0.5000    0.2220 c3        1 DR5      0.311900
     12 O1         -0.2940    0.5680   -0.5200 os        1 DR5     -0.412600
     13 CAX         0.8840    0.1900    0.2020 c3        1 DR5      0.127100
     14 CAS         1.4850   -1.0490   -0.4840 c3        1 DR5      0.144100
     15 OAH         0.7150   -2.1670   -0.0750 oh        1 DR5     -0.588800
     16 CAR         2.9420   -1.2650   -0.0380 c3        1 DR5      0.085100
     17 OAG         3.4740   -2.2640   -0.8890 oh        1 DR5     -0.600800
     18 CAV         3.7470    0.0380   -0.1780 c3        1 DR5      0.302900
     19 OAK         4.9720   -0.1580    0.4920 os        1 DR5     -0.418600
     20 CAA         5.8950    0.9130    0.3370 c3        1 DR5      0.121700
     21 OAM         3.1420    1.0890    0.5670 os        1 DR5     -0.445600
     22 CAU         1.8300    1.4010    0.1030 c3        1 DR5      0.090100
     23 CAJ         1.3380    2.5440    0.9990 c3        1 DR5      0.137400
     24 OAC         2.0870    3.7180    0.7820 oh        1 DR5     -0.592800
     25 HO2        -1.5230    2.7980   -0.9960 ho        1 DR5      0.424000
     26 H2         -2.5610    0.8560   -1.6620 h1        1 DR5      0.088700
     27 H3         -3.9870    1.4250    1.0580 h1        1 DR5      0.057700
     28 HO3        -4.7630    2.4050   -0.9470 ho        1 DR5      0.430000
     29 H4         -5.1270   -0.7390    0.7250 h1        1 DR5      0.056700
     30 HO4        -4.9740   -0.6140   -1.6270 ho        1 DR5      0.424000
     31 H5         -3.0120   -0.8980    1.9300 h1        1 DR5      0.050700
     32 H61        -3.9770   -3.1320    1.3080 h1        1 DR5      0.063200
     33 H62        -3.1150   -3.0660   -0.3180 h1        1 DR5      0.063200
     34 HO6        -1.1680   -3.0190    0.9670 ho        1 DR5      0.430000
     35 H1         -1.3860    0.9410    1.2520 h2        1 DR5      0.048700
     36 HAX         0.6520   -0.0560    1.2730 h1        1 DR5      0.083700
     37 HAS         1.4350   -0.9310   -1.6020 h1        1 DR5      0.069700
     38 HAH         1.0490   -2.9220   -0.5780 ho        1 DR5      0.420000
     39 HAR         2.9690   -1.6100    1.0330 h1        1 DR5      0.079700
     40 HAG         4.3720   -2.4380   -0.5800 ho        1 DR5      0.423000
     41 HAV         3.8910    0.3400   -1.2520 h2        1 DR5      0.055700
     42 HAA1        6.1550    1.0480   -0.7420 h1        1 DR5      0.042033
     43 HAA2        5.4710    1.8580    0.7540 h1        1 DR5      0.042033
     44 HAA3        6.7900    0.5860    0.9230 h1        1 DR5      0.042033
     45 HAU         1.8870    1.7480   -0.9670 h1        1 DR5      0.067700
     46 HAJ1        0.2820    2.8050    0.7170 h1        1 DR5      0.058200
     47 HAJ2        1.3900    2.2370    2.0770 h1        1 DR5      0.058200
     48 HAC         3.0060    3.5100    0.9960 ho        1 DR5      0.413000
@<TRIPOS>BOND
     1    1    2 1   
     2    1   25 1   
     3    2    3 1   
     4    2   11 1   
     5    2   26 1   
     6    3    4 1   
     7    3    5 1   
     8    3   27 1   
     9    4   28 1   
    10    5    6 1   
    11    5    7 1   
    12    5   29 1   
    13    6   30 1   
    14    7    8 1   
    15    7   10 1   
    16    7   31 1   
    17    8    9 1   
    18    8   32 1   
    19    8   33 1   
    20    9   34 1   
    21   10   11 1   
    22   11   12 1   
    23   11   35 1   
    24   12   13 1   
    25   13   14 1   
    26   13   22 1   
    27   13   36 1   
    28   14   15 1   
    29   14   16 1   
    30   14   37 1   
    31   15   38 1   
    32   16   17 1   
    33   16   18 1   
    34   16   39 1   
    35   17   40 1   
    36   18   19 1   
    37   18   21 1   
    38   18   41 1   
    39   19   20 1   
    40   20   42 1   
    41   20   43 1   
    42   20   44 1   
    43   21   22 1   
    44   22   23 1   
    45   22   45 1   
    46   23   24 1   
    47   23   46 1   
    48   23   47 1   
    49   24   48 1   
@<TRIPOS>SUBSTRUCTURE
     1 DR5         1 TEMP              0 ****  ****    0 ROOT
