@<TRIPOS>MOLECULE
DR5
   48    49     1     0     0
SMALL
bcc


@<TRIPOS>ATOM
      1 O2          0.1030    0.3490    0.6860 oh        1 DR5     -0.606800
      2 C2          1.4700    0.1990    0.3480 c3        1 DR5      0.083100
      3 C3          2.2180   -0.1390    1.6470 c3        1 DR5      0.111100
      4 O3          1.8420   -1.4180    2.1260 oh        1 DR5     -0.606800
      5 C4          3.7340   -0.1990    1.3780 c3        1 DR5      0.123100
      6 O4          4.0680   -1.2920    0.5420 oh        1 DR5     -0.589800
      7 C5          4.1950    1.0980    0.6970 c3        1 DR5      0.109100
      8 C6          5.6370    0.9930    0.1850 c3        1 DR5      0.149400
      9 O6          6.0270    2.1860   -0.4570 oh        1 DR5     -0.608800
     10 O5          3.4270    1.4210   -0.4630 os        1 DR5     -0.415600
     11 C1          2.0360    1.5160   -0.2170 c3        1 DR5      0.311900
     12 O1          1.5050    1.6670   -1.5180 os        1 DR5     -0.412600
     13 CAX         1.6910    2.9640   -2.0990 c3        1 DR5      0.127100
     14 CAS         2.5630    2.8000   -3.3550 c3        1 DR5      0.144100
     15 OAH         3.9040    2.6590   -2.9170 oh        1 DR5     -0.588800
     16 CAR         2.4680    4.0490   -4.2500 c3        1 DR5      0.085100
     17 OAG         3.1000    3.7110   -5.4710 oh        1 DR5     -0.600800
     18 CAV         0.9970    4.4240   -4.4970 c3        1 DR5      0.302900
     19 OAK         0.9900    5.7070   -5.0830 os        1 DR5     -0.418600
     20 CAA        -0.2970    6.1440   -5.5030 c3        1 DR5      0.121700
     21 OAM         0.3150    4.6330   -3.2650 os        1 DR5     -0.445600
     22 CAU         0.2780    3.4590   -2.4560 c3        1 DR5      0.090100
     23 CAJ        -0.4920    3.8550   -1.1910 c3        1 DR5      0.137400
     24 OAC        -1.8420    4.1360   -1.4840 oh        1 DR5     -0.592800
     25 HO2        -0.3670    0.5230   -0.1410 ho        1 DR5      0.424000
     26 H2          1.6090   -0.6280   -0.4030 h1        1 DR5      0.088700
     27 H3          1.9930    0.6380    2.4280 h1        1 DR5      0.057700
     28 HO3         0.8760   -1.4270    2.1640 ho        1 DR5      0.430000
     29 H4          4.2710   -0.3100    2.3620 h1        1 DR5      0.056700
     30 HO4         3.6430   -2.0730    0.9230 ho        1 DR5      0.424000
     31 H5          4.0980    1.9410    1.4390 h1        1 DR5      0.050700
     32 H61         5.7230    0.1180   -0.5120 h1        1 DR5      0.063200
     33 H62         6.3380    0.8720    1.0520 h1        1 DR5      0.063200
     34 HO6         5.4160    2.3280   -1.1960 ho        1 DR5      0.430000
     35 H1          1.7970    2.3920    0.4470 h2        1 DR5      0.048700
     36 HAX         2.1980    3.6680   -1.3860 h1        1 DR5      0.083700
     37 HAS         2.2440    1.8870   -3.9290 h1        1 DR5      0.069700
     38 HAH         4.4280    2.4720   -3.7080 ho        1 DR5      0.420000
     39 HAR         2.9990    4.9130   -3.7620 h1        1 DR5      0.079700
     40 HAG         3.0870    4.5080   -6.0170 ho        1 DR5      0.423000
     41 HAV         0.4610    3.6630   -5.1280 h2        1 DR5      0.055700
     42 HAA1       -0.1100    7.1580   -5.9350 h1        1 DR5      0.042033
     43 HAA2       -0.7080    5.4510   -6.2780 h1        1 DR5      0.042033
     44 HAA3       -0.9930    6.2060   -4.6310 h1        1 DR5      0.042033
     45 HAU        -0.2770    2.6470   -3.0060 h1        1 DR5      0.067700
     46 HAJ1       -0.0020    4.7400   -0.7050 h1        1 DR5      0.058200
     47 HAJ2       -0.5120    2.9820   -0.4840 h1        1 DR5      0.058200
     48 HAC        -1.8470    4.8710   -2.1110 ho        1 DR5      0.413000
@<TRIPOS>BOND
     1    1    2 1   
     2    1   25 1   
     3    2    3 1   
     4    2   11 1   
     5    2   26 1   
     6    3    4 1   
     7    3    5 1   
     8    3   27 1   
     9    4   28 1   
    10    5    6 1   
    11    5    7 1   
    12    5   29 1   
    13    6   30 1   
    14    7    8 1   
    15    7   10 1   
    16    7   31 1   
    17    8    9 1   
    18    8   32 1   
    19    8   33 1   
    20    9   34 1   
    21   10   11 1   
    22   11   12 1   
    23   11   35 1   
    24   12   13 1   
    25   13   14 1   
    26   13   22 1   
    27   13   36 1   
    28   14   15 1   
    29   14   16 1   
    30   14   37 1   
    31   15   38 1   
    32   16   17 1   
    33   16   18 1   
    34   16   39 1   
    35   17   40 1   
    36   18   19 1   
    37   18   21 1   
    38   18   41 1   
    39   19   20 1   
    40   20   42 1   
    41   20   43 1   
    42   20   44 1   
    43   21   22 1   
    44   22   23 1   
    45   22   45 1   
    46   23   24 1   
    47   23   46 1   
    48   23   47 1   
    49   24   48 1   
@<TRIPOS>SUBSTRUCTURE
     1 DR5         1 TEMP              0 ****  ****    0 ROOT
