@<TRIPOS>MOLECULE
DR5
   48    49     1     0     0
SMALL
bcc


@<TRIPOS>ATOM
      1 O2          0.1070    0.3390    0.6810 oh        1 DR5     -0.606800
      2 C2          1.4750    0.1940    0.3450 c3        1 DR5      0.083100
      3 C3          2.2220   -0.1450    1.6430 c3        1 DR5      0.111100
      4 O3          1.8490   -1.4260    2.1190 oh        1 DR5     -0.606800
      5 C4          3.7380   -0.1990    1.3760 c3        1 DR5      0.123100
      6 O4          4.0770   -1.2890    0.5370 oh        1 DR5     -0.589800
      7 C5          4.1960    1.1010    0.6990 c3        1 DR5      0.109100
      8 C6          5.6390    1.0020    0.1880 c3        1 DR5      0.149400
      9 O6          6.0270    2.1980   -0.4500 oh        1 DR5     -0.608800
     10 O5          3.4280    1.4250   -0.4610 os        1 DR5     -0.415600
     11 C1          2.0370    1.5140   -0.2160 c3        1 DR5      0.311900
     12 O1          1.5060    1.6680   -1.5180 os        1 DR5     -0.412600
     13 CAX         1.6910    2.9660   -2.0950 c3        1 DR5      0.128100
     14 CAS         2.5640    2.8070   -3.3510 c3        1 DR5      0.144100
     15 OAH         3.9050    2.6680   -2.9120 oh        1 DR5     -0.588800
     16 CAR         2.4660    4.0580   -4.2430 c3        1 DR5      0.085100
     17 OAG         3.1000    3.7230   -5.4650 oh        1 DR5     -0.600800
     18 CAV         0.9950    4.4290   -4.4910 c3        1 DR5      0.302900
     19 OAK         0.9850    5.7130   -5.0740 os        1 DR5     -0.418600
     20 CAA        -0.3030    6.1470   -5.4950 c3        1 DR5      0.121700
     21 OAM         0.3110    4.6340   -3.2590 os        1 DR5     -0.445600
     22 CAU         0.2760    3.4580   -2.4530 c3        1 DR5      0.090100
     23 CAJ        -0.4950    3.8500   -1.1870 c3        1 DR5      0.137400
     24 OAC        -1.8450    4.1290   -1.4800 oh        1 DR5     -0.592800
     25 HO2        -0.3630    0.5140   -0.1450 ho        1 DR5      0.424000
     26 H2          1.6170   -0.6300   -0.4080 h1        1 DR5      0.088700
     27 H3          1.9940    0.6290    2.4260 h1        1 DR5      0.057700
     28 HO3         0.8830   -1.4380    2.1560 ho        1 DR5      0.430000
     29 H4          4.2750   -0.3120    2.3610 h1        1 DR5      0.056700
     30 HO4         3.6540   -2.0730    0.9160 ho        1 DR5      0.424000
     31 H5          4.0960    1.9410    1.4430 h1        1 DR5      0.050700
     32 H61         5.7290    0.1290   -0.5110 h1        1 DR5      0.063200
     33 H62         6.3390    0.8810    1.0560 h1        1 DR5      0.063200
     34 HO6         5.4150    2.3400   -1.1900 ho        1 DR5      0.430000
     35 H1          1.7940    2.3880    0.4500 h2        1 DR5      0.048700
     36 HAX         2.1950    3.6700   -1.3800 h1        1 DR5      0.083700
     37 HAS         2.2480    1.8940   -3.9270 h1        1 DR5      0.069700
     38 HAH         4.4300    2.4840   -3.7030 ho        1 DR5      0.420000
     39 HAR         2.9950    4.9220   -3.7530 h1        1 DR5      0.079700
     40 HAG         3.0850    4.5220   -6.0090 ho        1 DR5      0.423000
     41 HAV         0.4610    3.6680   -5.1240 h2        1 DR5      0.055700
     42 HAA1       -0.7120    5.4550   -6.2720 h1        1 DR5      0.042033
     43 HAA2       -1.0000    6.2060   -4.6240 h1        1 DR5      0.042033
     44 HAA3       -0.1180    7.1630   -5.9250 h1        1 DR5      0.042033
     45 HAU        -0.2770    2.6460   -3.0040 h1        1 DR5      0.067700
     46 HAJ1       -0.5150    2.9750   -0.4820 h1        1 DR5      0.058200
     47 HAJ2       -0.0070    4.7350   -0.6990 h1        1 DR5      0.058200
     48 HAC        -1.8510    4.8650   -2.1060 ho        1 DR5      0.413000
@<TRIPOS>BOND
     1    1    2 1   
     2    1   25 1   
     3    2    3 1   
     4    2   11 1   
     5    2   26 1   
     6    3    4 1   
     7    3    5 1   
     8    3   27 1   
     9    4   28 1   
    10    5    6 1   
    11    5    7 1   
    12    5   29 1   
    13    6   30 1   
    14    7    8 1   
    15    7   10 1   
    16    7   31 1   
    17    8    9 1   
    18    8   32 1   
    19    8   33 1   
    20    9   34 1   
    21   10   11 1   
    22   11   12 1   
    23   11   35 1   
    24   12   13 1   
    25   13   14 1   
    26   13   22 1   
    27   13   36 1   
    28   14   15 1   
    29   14   16 1   
    30   14   37 1   
    31   15   38 1   
    32   16   17 1   
    33   16   18 1   
    34   16   39 1   
    35   17   40 1   
    36   18   19 1   
    37   18   21 1   
    38   18   41 1   
    39   19   20 1   
    40   20   42 1   
    41   20   43 1   
    42   20   44 1   
    43   21   22 1   
    44   22   23 1   
    45   22   45 1   
    46   23   24 1   
    47   23   46 1   
    48   23   47 1   
    49   24   48 1   
@<TRIPOS>SUBSTRUCTURE
     1 DR5         1 TEMP              0 ****  ****    0 ROOT
