@<TRIPOS>MOLECULE
DR8
   23    22     1     0     0
SMALL
bcc


@<TRIPOS>ATOM
      1 CAJ         0.1450    0.0090   -0.2670 c3        1 DR8     -0.060000
      2 CAI         1.5460    0.0700   -0.0250 c1        1 DR8      0.063900
      3 CAH         2.7310    0.1210    0.1790 cg        1 DR8     -0.166000
      4 CAG         4.0550    0.1780    0.4080 cg        1 DR8      0.196000
      5 CAF         5.2430    0.2290    0.6130 ch        1 DR8     -0.172000
      6 CAE         6.5640    0.2860    0.8410 ch        1 DR8      0.235000
      7 CAD         7.7470    0.3370    1.0450 c1        1 DR8     -0.271200
      8 NAC         9.1210    0.3960    1.2820 n4        1 DR8     -0.341400
      9 CAK         9.7540    1.3970    0.3530 c3        1 DR8      0.102100
     10 CAA         9.3730    0.8140    2.7070 c3        1 DR8      0.102100
     11 CAB         9.7360   -0.9570    1.0460 c3        1 DR8      0.102100
     12 HAJ1       -0.4250    0.2170    0.6780 hc        1 DR8      0.088700
     13 HAJ2       -0.1530    0.7700   -1.0370 hc        1 DR8      0.088700
     14 HAJ3       -0.1450   -1.0090   -0.6410 hc        1 DR8      0.088700
     15 HAK1       10.8550    1.4280    0.5620 hx        1 DR8      0.105033
     16 HAK2        9.2960    2.4060    0.5330 hx        1 DR8      0.105033
     17 HAK3        9.5680    1.0830   -0.7080 hx        1 DR8      0.105033
     18 HAA1        8.9160    1.8240    2.8800 hx        1 DR8      0.105033
     19 HAA2        8.9030    0.0650    3.3970 hx        1 DR8      0.105033
     20 HAA3       10.4810    0.8540    2.8730 hx        1 DR8      0.105033
     21 HAB1        9.2650   -1.7010    1.7410 hx        1 DR8      0.105033
     22 HAB2        9.5500   -1.2650   -0.0170 hx        1 DR8      0.105033
     23 HAB3       10.8380   -0.8850    1.2420 hx        1 DR8      0.105033
@<TRIPOS>BOND
     1    1    2 1   
     2    1   12 1   
     3    1   13 1   
     4    1   14 1   
     5    2    3 3   
     6    3    4 1   
     7    4    5 3   
     8    5    6 1   
     9    6    7 3   
    10    7    8 1   
    11    8    9 1   
    12    8   10 1   
    13    8   11 1   
    14    9   15 1   
    15    9   16 1   
    16    9   17 1   
    17   10   18 1   
    18   10   19 1   
    19   10   20 1   
    20   11   21 1   
    21   11   22 1   
    22   11   23 1   
@<TRIPOS>SUBSTRUCTURE
     1 DR8         1 TEMP              0 ****  ****    0 ROOT
