@<TRIPOS>MOLECULE
DR8
   23    22     1     0     0
SMALL
bcc


@<TRIPOS>ATOM
      1 CAJ         0.1450    0.0080   -0.2690 c3        1 DR8     -0.060000
      2 CAI         1.5460    0.0690   -0.0260 c1        1 DR8      0.063900
      3 CAH         2.7310    0.1200    0.1780 cg        1 DR8     -0.166000
      4 CAG         4.0550    0.1770    0.4070 cg        1 DR8      0.196000
      5 CAF         5.2430    0.2290    0.6130 ch        1 DR8     -0.172000
      6 CAE         6.5640    0.2860    0.8410 ch        1 DR8      0.235000
      7 CAD         7.7470    0.3370    1.0460 c1        1 DR8     -0.271200
      8 NAC         9.1210    0.3970    1.2840 n4        1 DR8     -0.341400
      9 CAK         9.7530    1.3990    0.3550 c3        1 DR8      0.102100
     10 CAA         9.3720    0.8130    2.7080 c3        1 DR8      0.102100
     11 CAB         9.7360   -0.9560    1.0470 c3        1 DR8      0.102100
     12 HAJ1       -0.4250    0.2070    0.6780 hc        1 DR8      0.088700
     13 HAJ2       -0.1540    0.7740   -1.0330 hc        1 DR8      0.088700
     14 HAJ3       -0.1430   -1.0080   -0.6510 hc        1 DR8      0.088700
     15 HAK1       10.8550    1.4290    0.5640 hx        1 DR8      0.105033
     16 HAK2        9.2960    2.4070    0.5350 hx        1 DR8      0.105033
     17 HAK3        9.5680    1.0850   -0.7060 hx        1 DR8      0.105033
     18 HAA1        8.9150    1.8230    2.8820 hx        1 DR8      0.105033
     19 HAA2        8.9020    0.0640    3.3980 hx        1 DR8      0.105033
     20 HAA3       10.4800    0.8550    2.8750 hx        1 DR8      0.105033
     21 HAB1        9.2650   -1.7010    1.7410 hx        1 DR8      0.105033
     22 HAB2        9.5510   -1.2640   -0.0170 hx        1 DR8      0.105033
     23 HAB3       10.8380   -0.8840    1.2430 hx        1 DR8      0.105033
@<TRIPOS>BOND
     1    1    2 1   
     2    1   12 1   
     3    1   13 1   
     4    1   14 1   
     5    2    3 3   
     6    3    4 1   
     7    4    5 3   
     8    5    6 1   
     9    6    7 3   
    10    7    8 1   
    11    8    9 1   
    12    8   10 1   
    13    8   11 1   
    14    9   15 1   
    15    9   16 1   
    16    9   17 1   
    17   10   18 1   
    18   10   19 1   
    19   10   20 1   
    20   11   21 1   
    21   11   22 1   
    22   11   23 1   
@<TRIPOS>SUBSTRUCTURE
     1 DR8         1 TEMP              0 ****  ****    0 ROOT
