@<TRIPOS>MOLECULE
DR8
   23    19     1     0     0
SMALL
bcc


@<TRIPOS>ATOM
      1 CAJ        -6.7180    0.4600   -1.5030 c3        1 DR8     -0.060000
      2 CAI        -5.2480    0.3600   -1.1750 c1        1 DR8      0.063900
      3 CAH        -4.1010    0.2820   -0.9190 c1        1 DR8     -0.166000
      4 CAG        -2.6250    0.1800   -0.5880 c1        1 DR8     -0.017000
      5 CAF        -1.4660    0.1000   -0.3270 c1        1 DR8     -0.017000
      6 CAE         0.0030   -0.0040    0.0010 c1        1 DR8     -0.017000
      7 CAD         1.1940   -0.0860    0.2680 c1        1 DR8     -0.017000
      8 NAC         2.5770   -0.1820    0.5730 n3        1 DR8     -0.285600
      9 CAK         3.3190    0.7160   -0.2750 c3        1 DR8      0.102100
     10 CAA         2.7940    0.1800    1.9760 c3        1 DR8      0.102100
     11 CAB         3.0250   -1.5270    0.3520 c3        1 DR8      0.102100
     12 HAJ1       -6.8300    0.8730   -2.4010 hc        1 DR8      0.088700
     13 HAJ2       -7.1750    1.0260   -0.8160 hc        1 DR8      0.088700
     14 HAJ3       -7.1150   -0.4400   -1.5040 hc        1 DR8      0.088700
     15 HAK1        4.2830    0.6370   -0.0750 h1        1 DR8      0.105033
     16 HAK2        3.0250    1.6390   -0.1120 h1        1 DR8      0.105033
     17 HAK3        3.1570    0.4790   -1.2320 h1        1 DR8      0.105033
     18 HAA1        2.5480    1.1340    2.1130 h1        1 DR8      0.105033
     19 HAA2        2.2450   -0.3790    2.5420 h1        1 DR8      0.105033
     20 HAA3        3.7470    0.0480    2.2080 h1        1 DR8      0.105033
     21 HAB1        2.5260   -2.1360    0.9310 h1        1 DR8      0.105033
     22 HAB2        2.8730   -1.7710   -0.5890 h1        1 DR8      0.105033
     23 HAB3        3.9620   -1.5890    0.5510 h1        1 DR8      0.105033
@<TRIPOS>BOND
     1    1    2 1   
     2    1   12 1   
     3    1   13 1   
     4    1   14 1   
     5    2    3 3   
     6    4    5 1   
     7    6    7 1   
     8    8    9 1   
     9    8   10 1   
    10    8   11 1   
    11    9   15 1   
    12    9   16 1   
    13    9   17 1   
    14   10   18 1   
    15   10   19 1   
    16   10   20 1   
    17   11   21 1   
    18   11   22 1   
    19   11   23 1   
@<TRIPOS>SUBSTRUCTURE
     1 DR8         1 TEMP              0 ****  ****    0 ROOT
