@<TRIPOS>MOLECULE
DR8
   23    22     1     0     0
SMALL
bcc


@<TRIPOS>ATOM
      1 CAJ         6.0960   -0.0000    0.0000 c3        1 DR8     -0.060000
      2 CAI         4.6730    0.0000    0.0000 c1        1 DR8      0.063900
      3 CAH         3.4690    0.0000   -0.0000 cg        1 DR8     -0.166000
      4 CAG         2.1240    0.0000   -0.0000 cg        1 DR8      0.196000
      5 CAF         0.9180    0.0000   -0.0000 ch        1 DR8     -0.172000
      6 CAE        -0.4240    0.0000   -0.0000 ch        1 DR8      0.235000
      7 CAD        -1.6250    0.0000   -0.0000 c1        1 DR8     -0.271200
      8 NAC        -3.0210    0.0000    0.0000 n4        1 DR8     -0.341400
      9 CAK        -3.5290    0.0130   -1.4170 c3        1 DR8      0.102100
     10 CAA        -3.5280   -1.2340    0.6970 c3        1 DR8      0.102100
     11 CAB        -3.5290    1.2200    0.7200 c3        1 DR8      0.102100
     12 HAJ1        6.4880   -0.0100    1.0520 hc        1 DR8      0.088700
     13 HAJ2        6.4880   -0.9060   -0.5350 hc        1 DR8      0.088700
     14 HAJ3        6.4880    0.9160   -0.5170 hc        1 DR8      0.088700
     15 HAK1       -3.1520   -0.8980   -1.9510 hx        1 DR8      0.105033
     16 HAK2       -4.6500    0.0130   -1.3920 hx        1 DR8      0.105033
     17 HAK3       -3.1520    0.9350   -1.9340 hx        1 DR8      0.105033
     18 HAA1       -3.1520   -1.2410    1.7540 hx        1 DR8      0.105033
     19 HAA2       -4.6500   -1.2120    0.6850 hx        1 DR8      0.105033
     20 HAA3       -3.1520   -2.1420    0.1570 hx        1 DR8      0.105033
     21 HAB1       -3.1520    2.1390    0.1980 hx        1 DR8      0.105033
     22 HAB2       -4.6500    1.1990    0.7080 hx        1 DR8      0.105033
     23 HAB3       -3.1520    1.2070    1.7770 hx        1 DR8      0.105033
@<TRIPOS>BOND
     1    1    2 1   
     2    1   12 1   
     3    1   13 1   
     4    1   14 1   
     5    2    3 3   
     6    3    4 1   
     7    4    5 3   
     8    5    6 1   
     9    6    7 3   
    10    7    8 1   
    11    8    9 1   
    12    8   10 1   
    13    8   11 1   
    14    9   15 1   
    15    9   16 1   
    16    9   17 1   
    17   10   18 1   
    18   10   19 1   
    19   10   20 1   
    20   11   21 1   
    21   11   22 1   
    22   11   23 1   
@<TRIPOS>SUBSTRUCTURE
     1 DR8         1 TEMP              0 ****  ****    0 ROOT
