@<TRIPOS>MOLECULE
DR9
  125   124     1     0     0
SMALL
bcc


@<TRIPOS>ATOM
      1 CBX        -0.0210   -5.3370    3.1210 c3        1 DR9     -0.092100
      2 CBV         1.4700   -5.4120    2.9140 c3        1 DR9     -0.080400
      3 CBS         2.1360   -4.0780    3.1810 c3        1 DR9     -0.078400
      4 CBH         3.6330   -4.1580    2.9730 c3        1 DR9     -0.079400
      5 CAQ         4.2970   -2.8250    3.2400 c3        1 DR9     -0.078400
      6 CAP         5.7940   -2.9050    3.0300 c3        1 DR9     -0.080400
      7 CAO         6.4580   -1.5710    3.2960 c3        1 DR9     -0.076400
      8 CAN         7.9560   -1.6540    3.0850 c3        1 DR9     -0.048200
      9 CAM         8.6320   -0.3600    3.3370 c2        1 DR9     -0.185200
     10 CAL         9.9530   -0.1810    3.2290 c2        1 DR9     -0.164200
     11 CAK        10.9020   -1.2530    2.8460 c3        1 DR9     -0.052200
     12 CAJ        12.3330   -0.7620    2.7840 c3        1 DR9     -0.076400
     13 CAI        13.2790   -1.8830    2.4080 c3        1 DR9     -0.081400
     14 CAH        14.7090   -1.3920    2.3300 c3        1 DR9     -0.076400
     15 CAG        15.6560   -2.5180    1.9760 c3        1 DR9     -0.081400
     16 CAF        17.0810   -2.0200    1.8710 c3        1 DR9     -0.075400
     17 CAE        18.0260   -3.1540    1.5380 c3        1 DR9     -0.136400
     18 CAD        19.4310   -2.6630    1.3910 c         1 DR9      0.668100
     19 OAA        19.8370   -1.6160    0.8790 o         1 DR9     -0.574000
     20 OAC        20.3380   -3.5140    1.9640 os        1 DR9     -0.415900
     21 CAB        21.7100   -3.3930    1.5960 c3        1 DR9      0.149400
     22 CBE        22.1340   -4.5280    0.6630 c3        1 DR9      0.103100
     23 CBK        21.5000   -4.4550   -0.7350 c3        1 DR9      0.183400
     24 OBL        20.1170   -4.5730   -0.7040 os        1 DR9     -0.575200
     25 PBM        19.4790   -5.8290   -1.5860 p5        1 DR9      1.436800
     26 OBU        19.8380   -5.5760   -2.9930 o         1 DR9     -0.829000
     27 OBF        19.6950   -7.0900   -0.8570 o         1 DR9     -0.829000
     28 OBN        17.9080   -5.3640   -1.3710 os        1 DR9     -0.572200
     29 CBO        17.5330   -4.3260   -2.2310 c3        1 DR9      0.133400
     30 CBP        16.0540   -4.0190   -1.9890 c3        1 DR9      0.102100
     31 OBG        15.2610   -5.1970   -1.9420 oh        1 DR9     -0.639800
     32 CBQ        15.4930   -3.1580   -3.1230 c3        1 DR9      0.129400
     33 OBR        14.1280   -2.8490   -2.9170 oh        1 DR9     -0.617800
     34 OBD        21.7770   -5.7460    1.3310 os        1 DR9     -0.417900
     35 CBC        22.4040   -6.8970    0.9310 c         1 DR9      0.661100
     36 OBJ        23.4640   -6.8020    0.3030 o         1 DR9     -0.585000
     37 CBB        21.6540   -8.1180    1.3500 c3        1 DR9     -0.155400
     38 CBA        22.5440   -9.3390    1.3800 c3        1 DR9     -0.070400
     39 CAZ        21.7260  -10.5900    1.6180 c3        1 DR9     -0.079400
     40 CAY        22.6070  -11.8210    1.6570 c3        1 DR9     -0.077400
     41 CAX        21.7890  -13.0740    1.8860 c3        1 DR9     -0.080400
     42 CAW        22.6690  -14.3050    1.9310 c3        1 DR9     -0.077400
     43 CAV        21.8470  -15.5570    2.1570 c3        1 DR9     -0.052200
     44 CAU        22.6840  -16.7790    2.2130 c2        1 DR9     -0.164200
     45 CAT        22.1970  -18.0040    2.4360 c2        1 DR9     -0.185200
     46 CAS        20.7590  -18.2890    2.6560 c3        1 DR9     -0.047200
     47 CAR        20.4900  -19.7660    2.8570 c3        1 DR9     -0.076400
     48 CBI        19.0160  -20.0270    3.0790 c3        1 DR9     -0.080400
     49 CBT        18.7440  -21.5030    3.2810 c3        1 DR9     -0.078400
     50 CBW        17.2690  -21.7660    3.5020 c3        1 DR9     -0.080400
     51 CBY        16.9930  -23.2330    3.7040 c3        1 DR9     -0.092100
     52 HBX1       -0.4910   -6.3300    2.9180 hc        1 DR9      0.031033
     53 HBX2       -0.4770   -4.5840    2.4340 hc        1 DR9      0.031033
     54 HBX3       -0.2590   -5.0420    4.1710 hc        1 DR9      0.031033
     55 HBV1        1.9070   -6.1900    3.5940 hc        1 DR9      0.039200
     56 HBV2        1.6890   -5.7340    1.8620 hc        1 DR9      0.039200
     57 HBS1        1.7020   -3.2990    2.5010 hc        1 DR9      0.038200
     58 HBS2        1.9190   -3.7550    4.2340 hc        1 DR9      0.038200
     59 HBH1        3.8490   -4.4820    1.9200 hc        1 DR9      0.040200
     60 HBH2        4.0670   -4.9370    3.6530 hc        1 DR9      0.040200
     61 HAQ1        4.0820   -2.5010    4.2920 hc        1 DR9      0.038200
     62 HAQ2        3.8640   -2.0450    2.5590 hc        1 DR9      0.038200
     63 HAP1        6.2280   -3.6840    3.7110 hc        1 DR9      0.041200
     64 HAP2        6.0100   -3.2290    1.9780 hc        1 DR9      0.041200
     65 HAO1        6.0250   -0.7920    2.6150 hc        1 DR9      0.038700
     66 HAO2        6.2440   -1.2470    4.3490 hc        1 DR9      0.038700
     67 HAN1        8.1690   -1.9870    2.0320 hc        1 DR9      0.049200
     68 HAN2        8.3880   -2.4410    3.7640 hc        1 DR9      0.049200
     69 HAM         7.9780    0.4790    3.6260 ha        1 DR9      0.116000
     70 HAL        10.3980    0.8080    3.4270 ha        1 DR9      0.120000
     71 HAK1       10.6060   -1.6730    1.8450 hc        1 DR9      0.049200
     72 HAK2       10.8250   -2.0990    3.5840 hc        1 DR9      0.049200
     73 HAJ1       12.4140    0.0670    2.0330 hc        1 DR9      0.038700
     74 HAJ2       12.6290   -0.3380    3.7800 hc        1 DR9      0.038700
     75 HAI1       13.2050   -2.7080    3.1640 hc        1 DR9      0.042700
     76 HAI2       12.9770   -2.3140    1.4170 hc        1 DR9      0.042700
     77 HAH1       14.7860   -0.5800    1.5600 hc        1 DR9      0.037700
     78 HAH2       15.0070   -0.9430    3.3140 hc        1 DR9      0.037700
     79 HAG1       15.3450   -2.9800    1.0010 hc        1 DR9      0.046700
     80 HAG2       15.5940   -3.3220    2.7560 hc        1 DR9      0.046700
     81 HAF1       17.1550   -1.2290    1.0780 hc        1 DR9      0.046200
     82 HAF2       17.3870   -1.5460    2.8400 hc        1 DR9      0.046200
     83 HAE1       17.7520   -3.6360    0.5550 hc        1 DR9      0.096700
     84 HAE2       17.9850   -3.9520    2.3250 hc        1 DR9      0.096700
     85 HAB1       22.2630   -3.4730    2.5710 h1        1 DR9      0.058200
     86 HAB2       21.9190   -2.4100    1.0990 h1        1 DR9      0.058200
     87 HBE        23.2550   -4.4830    0.5420 h1        1 DR9      0.056700
     88 HBK1       21.7690   -3.4470   -1.1670 h1        1 DR9      0.034200
     89 HBK2       21.9510   -5.2670   -1.3740 h1        1 DR9      0.034200
     90 HBO1       18.1630   -3.4230   -2.0100 h1        1 DR9      0.050700
     91 HBO2       17.7130   -4.6500   -3.2930 h1        1 DR9      0.050700
     92 HBP        15.9310   -3.4850   -1.0040 h1        1 DR9      0.038700
     93 HBG        15.8110   -5.8930   -1.5540 ho        1 DR9      0.441000
     94 HBQ1       16.0200   -2.1690   -3.1540 h1        1 DR9      0.046200
     95 HBQ2       15.6150   -3.6890   -4.1040 h1        1 DR9      0.046200
     96 HBR        13.6830   -3.6810   -2.7070 ho        1 DR9      0.413000
     97 HBB1       20.8160   -8.2370    0.5940 hc        1 DR9      0.117200
     98 HBB2       21.1780   -7.9420    2.3490 hc        1 DR9      0.117200
     99 HBA1       23.3170   -9.2310    2.1860 hc        1 DR9      0.044200
    100 HBA2       23.0940   -9.4210    0.4040 hc        1 DR9      0.044200
    101 HAZ1       21.1670  -10.4960    2.5860 hc        1 DR9      0.045200
    102 HAZ2       20.9620  -10.6960    0.8030 hc        1 DR9      0.045200
    103 HAY1       23.3680  -11.7140    2.4740 hc        1 DR9      0.037200
    104 HAY2       23.1690  -11.9100    0.6900 hc        1 DR9      0.037200
    105 HAX1       21.2210  -12.9820    2.8500 hc        1 DR9      0.040200
    106 HAX2       21.0310  -13.1820    1.0660 hc        1 DR9      0.040200
    107 HAW1       23.4250  -14.1970    2.7530 hc        1 DR9      0.039700
    108 HAW2       23.2370  -14.3960    0.9680 hc        1 DR9      0.039700
    109 HAV1       21.2660  -15.4570    3.1150 hc        1 DR9      0.048200
    110 HAV2       21.0890  -15.6620    1.3320 hc        1 DR9      0.048200
    111 HAU        23.7650  -16.6300    2.0560 ha        1 DR9      0.121000
    112 HAT        22.8720  -18.8750    2.4650 ha        1 DR9      0.117000
    113 HAS1       20.3980  -17.7150    3.5540 hc        1 DR9      0.048700
    114 HAS2       20.1650  -17.9150    1.7770 hc        1 DR9      0.048700
    115 HAR1       21.0750  -20.1390    3.7390 hc        1 DR9      0.039200
    116 HAR2       20.8430  -20.3380    1.9600 hc        1 DR9      0.039200
    117 HBI1       18.4310  -19.6540    2.1970 hc        1 DR9      0.041200
    118 HBI2       18.6620  -19.4530    3.9760 hc        1 DR9      0.041200
    119 HBT1       19.3280  -21.8760    4.1630 hc        1 DR9      0.038200
    120 HBT2       19.0970  -22.0770    2.3840 hc        1 DR9      0.038200
    121 HBW1       16.6860  -21.3900    2.6200 hc        1 DR9      0.039200
    122 HBW2       16.9180  -21.1890    4.3990 hc        1 DR9      0.039200
    123 HBY1       17.5460  -23.6200    4.5940 hc        1 DR9      0.031033
    124 HBY2       17.3140  -23.8210    2.8110 hc        1 DR9      0.031033
    125 HBY3       15.9010  -23.4040    3.8650 hc        1 DR9      0.031033
@<TRIPOS>BOND
     1    1    2 1   
     2    1   52 1   
     3    1   53 1   
     4    1   54 1   
     5    2    3 1   
     6    2   55 1   
     7    2   56 1   
     8    3    4 1   
     9    3   57 1   
    10    3   58 1   
    11    4    5 1   
    12    4   59 1   
    13    4   60 1   
    14    5    6 1   
    15    5   61 1   
    16    5   62 1   
    17    6    7 1   
    18    6   63 1   
    19    6   64 1   
    20    7    8 1   
    21    7   65 1   
    22    7   66 1   
    23    8    9 1   
    24    8   67 1   
    25    8   68 1   
    26    9   10 2   
    27    9   69 1   
    28   10   11 1   
    29   10   70 1   
    30   11   12 1   
    31   11   71 1   
    32   11   72 1   
    33   12   13 1   
    34   12   73 1   
    35   12   74 1   
    36   13   14 1   
    37   13   75 1   
    38   13   76 1   
    39   14   15 1   
    40   14   77 1   
    41   14   78 1   
    42   15   16 1   
    43   15   79 1   
    44   15   80 1   
    45   16   17 1   
    46   16   81 1   
    47   16   82 1   
    48   17   18 1   
    49   17   83 1   
    50   17   84 1   
    51   18   19 2   
    52   18   20 1   
    53   20   21 1   
    54   21   22 1   
    55   21   85 1   
    56   21   86 1   
    57   22   23 1   
    58   22   34 1   
    59   22   87 1   
    60   23   24 1   
    61   23   88 1   
    62   23   89 1   
    63   24   25 1   
    64   25   26 1   
    65   25   27 1   
    66   25   28 1   
    67   28   29 1   
    68   29   30 1   
    69   29   90 1   
    70   29   91 1   
    71   30   31 1   
    72   30   32 1   
    73   30   92 1   
    74   31   93 1   
    75   32   33 1   
    76   32   94 1   
    77   32   95 1   
    78   33   96 1   
    79   34   35 1   
    80   35   36 2   
    81   35   37 1   
    82   37   38 1   
    83   37   97 1   
    84   37   98 1   
    85   38   39 1   
    86   38   99 1   
    87   38  100 1   
    88   39   40 1   
    89   39  101 1   
    90   39  102 1   
    91   40   41 1   
    92   40  103 1   
    93   40  104 1   
    94   41   42 1   
    95   41  105 1   
    96   41  106 1   
    97   42   43 1   
    98   42  107 1   
    99   42  108 1   
   100   43   44 1   
   101   43  109 1   
   102   43  110 1   
   103   44   45 2   
   104   44  111 1   
   105   45   46 1   
   106   45  112 1   
   107   46   47 1   
   108   46  113 1   
   109   46  114 1   
   110   47   48 1   
   111   47  115 1   
   112   47  116 1   
   113   48   49 1   
   114   48  117 1   
   115   48  118 1   
   116   49   50 1   
   117   49  119 1   
   118   49  120 1   
   119   50   51 1   
   120   50  121 1   
   121   50  122 1   
   122   51  123 1   
   123   51  124 1   
   124   51  125 1   
@<TRIPOS>SUBSTRUCTURE
     1 DR9         1 TEMP              0 ****  ****    0 ROOT
