@<TRIPOS>MOLECULE
DR9
  125   122     1     0     0
SMALL
bcc


@<TRIPOS>ATOM
      1 CBX        10.4730   -1.8060   -8.4780 c3        1 DR9     -0.209000
      2 CBV         9.2300   -0.9480   -8.3350 c3        1 DR9     -0.160000
      3 CBS         8.0380   -1.8330   -8.0320 c3        1 DR9     -0.157000
      4 CBH         6.7580   -1.0320   -8.1940 c3        1 DR9     -0.159000
      5 CAQ         5.6170   -1.7580   -7.5090 c3        1 DR9     -0.156000
      6 CAP         4.3320   -0.9710   -7.6950 c3        1 DR9     -0.160000
      7 CAO         3.2780   -1.4860   -6.7290 c3        1 DR9     -0.153000
      8 CAN         2.0700   -0.5670   -6.7600 c3        1 DR9     -0.130000
      9 CAM         1.7830   -0.0620   -5.3590 c2        1 DR9     -0.176000
     10 CAL         0.5840    0.5010   -5.0740 c1        1 DR9     -0.164000
     11 CAK        -0.4710    0.6260   -6.1550 c2        1 DR9     -0.131000
     12 CAJ        -1.8400    0.7750   -5.5120 c3        1 DR9     -0.154000
     13 CAI        -2.1240    2.2450   -5.2610 c3        1 DR9     -0.160000
     14 CAH        -3.3230    2.3790   -4.3380 c3        1 DR9     -0.155000
     15 CAG        -3.3140    3.7510   -3.6920 c3        1 DR9     -0.163000
     16 CAF        -4.1880    3.7320   -2.4500 c3        1 DR9     -0.153000
     17 CAE        -3.8250    4.9050   -1.5560 c3        1 DR9     -0.161000
     18 CAD        -4.2350    4.5990   -0.1290 c2        1 DR9      0.300000
     19 OAA        -4.9860    3.6740    0.1010 o         1 DR9     -0.361000
     20 OAC        -3.7950    5.4260    0.9230 os        1 DR9     -0.282000
     21 CAB        -2.9700    4.7700    1.8590 c3        1 DR9     -0.034000
     22 CBE        -3.2510    5.3090    3.2440 c3        1 DR9     -0.010000
     23 CBK        -2.5020    6.6080    3.4410 c3        1 DR9      0.039000
     24 OBL        -1.2720    6.3490    4.0780 os        1 DR9     -0.736000
     25 PBM        -0.3990    7.5790    4.5610 p5        1 DR9      1.898000
     26 OBU        -0.5310    8.7100    3.5690 o         1 DR9     -0.832000
     27 OBF        -0.8840    8.0390    5.9150 o         1 DR9     -0.832000
     28 OBN         1.1200    7.1410    4.6650 os        1 DR9     -0.727000
     29 CBO         2.0480    8.0540    5.2160 c3        1 DR9      0.054000
     30 CBP         3.4300    7.4370    5.2040 c3        1 DR9     -0.030000
     31 OBG         3.4590    6.3370    6.0800 oh        1 DR9     -0.343000
     32 CBQ         4.4450    8.4650    5.6520 c3        1 DR9     -0.083000
     33 OBR         5.7480    7.9770    5.4090 oh        1 DR9     -0.358000
     34 OBD        -2.8280    4.3720    4.2080 os        1 DR9     -0.244000
     35 CBC        -3.8820    3.6470    4.8010 c2        1 DR9      0.310000
     36 OBJ        -5.0320    3.8890    4.4960 o         1 DR9     -0.388000
     37 CBB        -3.5810    2.5960    5.8540 c3        1 DR9     -0.156000
     38 CBA        -4.3890    1.3450    5.5640 c3        1 DR9     -0.163000
     39 CAZ        -3.6940    0.1410    6.1720 c3        1 DR9     -0.154000
     40 CAY        -4.4360   -1.1220    5.7830 c3        1 DR9     -0.158000
     41 CAX        -3.4640   -2.2870    5.7350 c3        1 DR9     -0.158000
     42 CAW        -4.2050   -3.5490    5.3330 c3        1 DR9     -0.156000
     43 CAV        -3.2170   -4.5660    4.7890 c3        1 DR9     -0.134000
     44 CAU        -3.8730   -5.3630    3.6780 c2        1 DR9     -0.162000
     45 CAT        -3.2450   -6.4420    3.1590 c1        1 DR9     -0.179000
     46 CAS        -1.8900   -6.8540    3.6870 c2        1 DR9     -0.130000
     47 CAR        -1.1130   -7.5520    2.5920 c3        1 DR9     -0.154000
     48 CBI        -0.6930   -8.9270    3.0680 c3        1 DR9     -0.159000
     49 CBT        -0.0240   -9.6730    1.9310 c3        1 DR9     -0.158000
     50 CBW         0.2150  -11.1120    2.3420 c3        1 DR9     -0.159000
     51 CBY         0.6240  -11.9230    1.1300 c3        1 DR9     -0.210000
     52 HBX1       10.6120   -2.3210   -7.6550 hc        1 DR9      0.070000
     53 HBX2       10.3600   -2.4210   -9.2330 hc        1 DR9      0.070000
     54 HBX3       11.2510   -1.2310   -8.6390 hc        1 DR9      0.070000
     55 HBV1        9.3560   -0.3100   -7.6040 hc        1 DR9      0.080500
     56 HBV2        9.0710   -0.4610   -9.1680 hc        1 DR9      0.080500
     57 HBS1        8.1010   -2.1630   -7.1130 hc        1 DR9      0.076000
     58 HBS2        8.0280   -2.5900   -8.6500 hc        1 DR9      0.076000
     59 HBH1        6.5550   -0.9300   -9.1450 hc        1 DR9      0.082000
     60 HBH2        6.8730   -0.1480   -7.7890 hc        1 DR9      0.082000
     61 HAQ1        5.8110   -1.8430   -6.5540 hc        1 DR9      0.075000
     62 HAQ2        5.5140   -2.6470   -7.9000 hc        1 DR9      0.075000
     63 HAP1        4.5010   -0.0240   -7.5190 hc        1 DR9      0.084000
     64 HAP2        4.0140   -1.0810   -8.6140 hc        1 DR9      0.084000
     65 HAO1        3.6490   -1.5080   -5.8230 hc        1 DR9      0.075500
     66 HAO2        3.0080   -2.3890   -6.9920 hc        1 DR9      0.075500
     67 HAN1        1.2940   -1.0600   -7.0940 hc        1 DR9      0.083500
     68 HAN2        2.2530    0.1910   -7.3490 hc        1 DR9      0.083500
     69 HAM         2.4620   -0.1430   -4.6630 ha        1 DR9      0.124000
     70 HAL         0.3990    0.8260   -4.1720 ha        1 DR9      0.130000
     71 HAK1       -0.4590   -0.1750   -6.7160 ha        1 DR9      0.083000
     72 HAK2       -0.2820    1.4120   -6.7060 ha        1 DR9      0.083000
     73 HAJ1       -2.5220    0.4090   -6.1100 hc        1 DR9      0.077000
     74 HAJ2       -1.8560    0.2900   -4.6620 hc        1 DR9      0.077000
     75 HAI1       -2.3150    2.6900   -6.1100 hc        1 DR9      0.084500
     76 HAI2       -1.3430    2.6610   -4.8430 hc        1 DR9      0.084500
     77 HAH1       -3.2790    1.6910   -3.6440 hc        1 DR9      0.075500
     78 HAH2       -4.1460    2.2680   -4.8550 hc        1 DR9      0.075500
     79 HAG1       -3.6600    4.4130   -4.3250 hc        1 DR9      0.088500
     80 HAG2       -2.3980    3.9880   -3.4420 hc        1 DR9      0.088500
     81 HAF1       -5.1290    3.8010   -2.7120 hc        1 DR9      0.088500
     82 HAF2       -4.0460    2.8960   -1.9630 hc        1 DR9      0.088500
     83 HAE1       -4.2920    5.7080   -1.8650 hc        1 DR9      0.110500
     84 HAE2       -2.8590    5.0550   -1.5930 hc        1 DR9      0.110500
     85 HAB1       -2.0290    4.9260    1.6320 h1        1 DR9      0.158000
     86 HAB2       -3.1540    3.8080    1.8390 h1        1 DR9      0.158000
     87 HBE        -4.2100    5.4680    3.3430 h1        1 DR9      0.106000
     88 HBK1       -2.3370    7.0250    2.5700 h1        1 DR9      0.077500
     89 HBK2       -3.0360    7.2110    3.9960 h1        1 DR9      0.077500
     90 HBO1        2.0540    8.8760    4.6830 h1        1 DR9      0.081000
     91 HBO2        1.7920    8.2640    6.1380 h1        1 DR9      0.081000
     92 HBP         3.6460    7.1380    4.2990 h1        1 DR9      0.084000
     93 HBG         4.0190    5.7210    5.7650 ho        1 DR9      0.195000
     94 HBQ1        4.3100    9.2960    5.1520 h1        1 DR9      0.125500
     95 HBQ2        4.3350    8.6380    6.6100 h1        1 DR9      0.125500
     96 HBR         6.3430    8.6060    5.6100 ho        1 DR9      0.194000
     97 HBB1       -3.8200    2.9410    6.7370 hc        1 DR9      0.110000
     98 HBB2       -2.6280    2.3790    5.8350 hc        1 DR9      0.110000
     99 HBA1       -4.4660    1.2230    4.5980 hc        1 DR9      0.103000
    100 HBA2       -5.2830    1.4360    5.9530 hc        1 DR9      0.103000
    101 HAZ1       -3.6850    0.2280    7.1470 hc        1 DR9      0.076500
    102 HAZ2       -2.7750    0.0950    5.8420 hc        1 DR9      0.076500
    103 HAY1       -4.8450   -1.0020    4.9020 hc        1 DR9      0.083000
    104 HAY2       -5.1350   -1.3070    6.4440 hc        1 DR9      0.083000
    105 HAX1       -3.0610   -2.4130    6.6170 hc        1 DR9      0.077000
    106 HAX2       -2.7620   -2.0990    5.0800 hc        1 DR9      0.077000
    107 HAW1       -4.8650   -3.3340    4.6430 hc        1 DR9      0.080500
    108 HAW2       -4.6600   -3.9230    6.1140 hc        1 DR9      0.080500
    109 HAV1       -2.4320   -4.1010    4.4370 hc        1 DR9      0.086500
    110 HAV2       -2.9440   -5.1720    5.5070 hc        1 DR9      0.086500
    111 HAU        -4.7470   -5.0970    3.3370 ha        1 DR9      0.122000
    112 HAT        -3.6670   -6.9550    2.4440 ha        1 DR9      0.119000
    113 HAS1       -1.3990   -6.0610    3.9800 ha        1 DR9      0.087500
    114 HAS2       -2.0060   -7.4630    4.4430 ha        1 DR9      0.087500
    115 HAR1       -0.3180   -7.0260    2.3700 hc        1 DR9      0.077500
    116 HAR2       -1.6770   -7.6400    1.7980 hc        1 DR9      0.077500
    117 HBI1       -1.4810   -9.4240    3.3650 hc        1 DR9      0.081000
    118 HBI2       -0.0650   -8.8360    3.8120 hc        1 DR9      0.081000
    119 HBT1       -0.6020   -9.6510    1.1420 hc        1 DR9      0.077000
    120 HBT2        0.8310   -9.2470    1.7200 hc        1 DR9      0.077000
    121 HBW1        0.9280  -11.1460    3.0120 hc        1 DR9      0.078000
    122 HBW2       -0.6070  -11.4840    2.7210 hc        1 DR9      0.078000
    123 HBY1        1.6010  -11.9160    1.0470 hc        1 DR9      0.070333
    124 HBY2        0.3110  -12.8470    1.2330 hc        1 DR9      0.070333
    125 HBY3        0.2250  -11.5310    0.3250 hc        1 DR9      0.070333
@<TRIPOS>BOND
     1    1    2 1   
     2    1   52 1   
     3    1   53 1   
     4    1   54 1   
     5    2    3 1   
     6    2   55 1   
     7    2   56 1   
     8    3    4 1   
     9    3   57 1   
    10    3   58 1   
    11    4    5 1   
    12    4   59 1   
    13    4   60 1   
    14    5    6 1   
    15    5   61 1   
    16    5   62 1   
    17    6    7 1   
    18    6   63 1   
    19    6   64 1   
    20    7    8 1   
    21    7   65 1   
    22    7   66 1   
    23    8    9 1   
    24    8   67 1   
    25    8   68 1   
    26    9   10 1   
    27    9   69 1   
    28   10   70 1   
    29   11   12 1   
    30   11   71 1   
    31   11   72 1   
    32   12   13 1   
    33   12   73 1   
    34   12   74 1   
    35   13   14 1   
    36   13   75 1   
    37   13   76 1   
    38   14   15 1   
    39   14   77 1   
    40   14   78 1   
    41   15   16 1   
    42   15   79 1   
    43   15   80 1   
    44   16   17 1   
    45   16   81 1   
    46   16   82 1   
    47   17   18 1   
    48   17   83 1   
    49   17   84 1   
    50   18   19 1   
    51   18   20 1   
    52   20   21 1   
    53   21   22 1   
    54   21   85 1   
    55   21   86 1   
    56   22   23 1   
    57   22   34 1   
    58   22   87 1   
    59   23   24 1   
    60   23   88 1   
    61   23   89 1   
    62   24   25 1   
    63   25   26 1   
    64   25   27 1   
    65   25   28 1   
    66   28   29 1   
    67   29   30 1   
    68   29   90 1   
    69   29   91 1   
    70   30   31 1   
    71   30   32 1   
    72   30   92 1   
    73   31   93 1   
    74   32   33 1   
    75   32   94 1   
    76   32   95 1   
    77   33   96 1   
    78   34   35 1   
    79   35   36 1   
    80   35   37 1   
    81   37   38 1   
    82   37   97 1   
    83   37   98 1   
    84   38   39 1   
    85   38   99 1   
    86   38  100 1   
    87   39   40 1   
    88   39  101 1   
    89   39  102 1   
    90   40   41 1   
    91   40  103 1   
    92   40  104 1   
    93   41   42 1   
    94   41  105 1   
    95   41  106 1   
    96   42   43 1   
    97   42  107 1   
    98   42  108 1   
    99   43   44 1   
   100   43  109 1   
   101   43  110 1   
   102   44   45 1   
   103   44  111 1   
   104   45  112 1   
   105   46   47 1   
   106   46  113 1   
   107   46  114 1   
   108   47   48 1   
   109   47  115 1   
   110   47  116 1   
   111   48   49 1   
   112   48  117 1   
   113   48  118 1   
   114   49   50 1   
   115   49  119 1   
   116   49  120 1   
   117   50   51 1   
   118   50  121 1   
   119   50  122 1   
   120   51  123 1   
   121   51  124 1   
   122   51  125 1   
@<TRIPOS>SUBSTRUCTURE
     1 DR9         1 TEMP              0 ****  ****    0 ROOT
