@<TRIPOS>MOLECULE
DR9
  125   124     1     0     0
SMALL
bcc


@<TRIPOS>ATOM
      1 CBX       -13.7740    8.8000    4.6120 c3        1 DR9     -0.092100
      2 CBV       -12.6030    7.9810    4.1360 c3        1 DR9     -0.080400
      3 CBS       -13.0330    6.9120    3.1540 c3        1 DR9     -0.078400
      4 CBH       -11.8530    6.0950    2.6760 c3        1 DR9     -0.079400
      5 CAQ       -12.2840    5.0290    1.6930 c3        1 DR9     -0.078400
      6 CAP       -11.1030    4.2150    1.2100 c3        1 DR9     -0.080400
      7 CAO       -11.5350    3.1520    0.2230 c3        1 DR9     -0.075400
      8 CAN       -10.3520    2.3380   -0.2590 c3        1 DR9     -0.047200
      9 CAM       -10.7490    1.2900   -1.2280 c2        1 DR9     -0.186200
     10 CAL        -9.8930    0.4150   -1.7670 c2        1 DR9     -0.162200
     11 CAK        -8.4440    0.3820   -1.4600 c3        1 DR9     -0.053200
     12 CAJ        -7.7090   -0.6660   -2.2700 c3        1 DR9     -0.075400
     13 CAI        -6.2290   -0.6660   -1.9500 c3        1 DR9     -0.081400
     14 CAH        -5.4970   -1.7250   -2.7470 c3        1 DR9     -0.074400
     15 CAG        -4.0140   -1.7120   -2.4460 c3        1 DR9     -0.091400
     16 CAF        -3.2930   -2.7990   -3.2140 c3        1 DR9     -0.073400
     17 CAE        -1.8060   -2.7630   -2.9380 c3        1 DR9     -0.140400
     18 CAD        -1.1020   -3.8820   -3.6380 c         1 DR9      0.651100
     19 OAA        -1.4630   -5.0530   -3.7830 o         1 DR9     -0.573000
     20 OAC         0.0760   -3.4800   -4.2100 os        1 DR9     -0.407900
     21 CAB         1.0140   -4.4810   -4.5980 c3        1 DR9      0.154400
     22 CBE         2.0560   -4.7450   -3.5120 c3        1 DR9      0.116100
     23 CBK         1.4560   -5.2270   -2.1810 c3        1 DR9      0.177400
     24 OBL         0.7490   -4.2320   -1.5170 os        1 DR9     -0.568200
     25 PBM         1.2930   -3.8470    0.0060 p5        1 DR9      1.442800
     26 OBU         1.3280   -5.1110    0.7620 o         1 DR9     -0.832000
     27 OBF         2.3970   -2.8770   -0.1020 o         1 DR9     -0.832000
     28 OBN        -0.0720   -3.0300    0.4460 os        1 DR9     -0.579200
     29 CBO        -1.1010   -3.8830    0.8590 c3        1 DR9      0.152400
     30 CBP        -2.2950   -3.0200    1.2720 c3        1 DR9      0.093100
     31 OBG        -1.9120   -1.9480    2.1230 oh        1 DR9     -0.646800
     32 CBQ        -3.3180   -3.8510    2.0470 c3        1 DR9      0.129400
     33 OBR        -4.4420   -3.0780    2.4230 oh        1 DR9     -0.618800
     34 OBD         2.7740   -3.5150   -3.3450 os        1 DR9     -0.416900
     35 CBC         4.0490   -3.5800   -2.8490 c         1 DR9      0.669100
     36 OBJ         4.6430   -4.6630   -2.8910 o         1 DR9     -0.588000
     37 CBB         4.5170   -2.2620   -2.3250 c3        1 DR9     -0.153400
     38 CBA         6.0250   -2.1890   -2.2630 c3        1 DR9     -0.070400
     39 CAZ         6.4710   -0.9310   -1.5490 c3        1 DR9     -0.079400
     40 CAY         7.9810   -0.8420   -1.4930 c3        1 DR9     -0.077400
     41 CAX         8.4310    0.4030   -0.7570 c3        1 DR9     -0.080400
     42 CAW         9.9410    0.5000   -0.7160 c3        1 DR9     -0.077400
     43 CAV        10.3910    1.7340    0.0370 c3        1 DR9     -0.052200
     44 CAU        11.8670    1.8590    0.0830 c2        1 DR9     -0.164200
     45 CAT        12.5160    2.7780    0.8060 c2        1 DR9     -0.185200
     46 CAS        11.8400    3.7810    1.6610 c3        1 DR9     -0.048200
     47 CAR        12.8160    4.7590    2.2820 c3        1 DR9     -0.076400
     48 CBI        12.0980    5.7710    3.1480 c3        1 DR9     -0.080400
     49 CBT        13.0720    6.7460    3.7760 c3        1 DR9     -0.078400
     50 CBW        12.3550    7.7600    4.6430 c3        1 DR9     -0.080400
     51 CBY        13.3200    8.7320    5.2710 c3        1 DR9     -0.092100
     52 HBX1      -14.2750    9.3090    3.7530 hc        1 DR9      0.031033
     53 HBX2      -14.5280    8.1520    5.1210 hc        1 DR9      0.031033
     54 HBX3      -13.4350    9.5810    5.3350 hc        1 DR9      0.031033
     55 HBV1      -11.8460    8.6520    3.6500 hc        1 DR9      0.039200
     56 HBV2      -12.0980    7.4990    5.0150 hc        1 DR9      0.039200
     57 HBS1      -13.7860    6.2370    3.6410 hc        1 DR9      0.038200
     58 HBS2      -13.5390    7.3920    2.2760 hc        1 DR9      0.038200
     59 HBH1      -11.0990    6.7700    2.1920 hc        1 DR9      0.040700
     60 HBH2      -11.3480    5.6140    3.5550 hc        1 DR9      0.040700
     61 HAQ1      -13.0340    4.3510    2.1790 hc        1 DR9      0.037700
     62 HAQ2      -12.7930    5.5100    0.8160 hc        1 DR9      0.037700
     63 HAP1      -10.3510    4.8940    0.7270 hc        1 DR9      0.041200
     64 HAP2      -10.5960    3.7310    2.0860 hc        1 DR9      0.041200
     65 HAO1      -12.2860    2.4730    0.7070 hc        1 DR9      0.038700
     66 HAO2      -12.0410    3.6360   -0.6530 hc        1 DR9      0.038700
     67 HAN1       -9.5960    3.0210   -0.7360 hc        1 DR9      0.048700
     68 HAN2       -9.8400    1.8600    0.6220 hc        1 DR9      0.048700
     69 HAM       -11.8180    1.2600   -1.4950 ha        1 DR9      0.116000
     70 HAL       -10.2520   -0.3430   -2.4820 ha        1 DR9      0.120000
     71 HAK1       -7.9960    1.3950   -1.6600 hc        1 DR9      0.050200
     72 HAK2       -8.3000    0.1780   -0.3630 hc        1 DR9      0.050200
     73 HAJ1       -8.1390   -1.6790   -2.0530 hc        1 DR9      0.038200
     74 HAJ2       -7.8580   -0.4700   -3.3640 hc        1 DR9      0.038200
     75 HAI1       -5.7940    0.3430   -2.1780 hc        1 DR9      0.043700
     76 HAI2       -6.0800   -0.8520   -0.8540 hc        1 DR9      0.043700
     77 HAH1       -5.9200   -2.7360   -2.5040 hc        1 DR9      0.036200
     78 HAH2       -5.6610   -1.5530   -3.8430 hc        1 DR9      0.036200
     79 HAG1       -3.5830   -0.7110   -2.7140 hc        1 DR9      0.052200
     80 HAG2       -3.8510   -1.8570   -1.3450 hc        1 DR9      0.052200
     81 HAF1       -3.7000   -3.8050   -2.9280 hc        1 DR9      0.047200
     82 HAF2       -3.4770   -2.6680   -4.3130 hc        1 DR9      0.047200
     83 HAE1       -1.3650   -1.7810   -3.2540 hc        1 DR9      0.094700
     84 HAE2       -1.5900   -2.8920   -1.8380 hc        1 DR9      0.094700
     85 HAB1        0.4960   -5.4420   -4.8520 h1        1 DR9      0.054700
     86 HAB2        1.5080   -4.0400   -5.5050 h1        1 DR9      0.054700
     87 HBE         2.7600   -5.5420   -3.8890 h1        1 DR9      0.054700
     88 HBK1        0.7420   -6.0660   -2.4310 h1        1 DR9      0.035700
     89 HBK2        2.2860   -5.6210   -1.5290 h1        1 DR9      0.035700
     90 HBO1       -1.3810   -4.5600    0.0080 h1        1 DR9      0.045700
     91 HBO2       -0.7340   -4.5080    1.7200 h1        1 DR9      0.045700
     92 HBP        -2.7770   -2.5740    0.3550 h1        1 DR9      0.047700
     93 HBG        -1.0310   -1.6630    1.8390 ho        1 DR9      0.444000
     94 HBQ1       -3.7240   -4.6700    1.3970 h1        1 DR9      0.045200
     95 HBQ2       -2.8400   -4.2900    2.9630 h1        1 DR9      0.045200
     96 HBR        -4.1000   -2.2720    2.8310 ho        1 DR9      0.412000
     97 HBB1        4.0990   -1.4380   -2.9590 hc        1 DR9      0.114700
     98 HBB2        4.0550   -2.1580   -1.2930 hc        1 DR9      0.114700
     99 HBA1        6.4180   -3.0940   -1.7270 hc        1 DR9      0.044200
    100 HBA2        6.4520   -2.2090   -3.3000 hc        1 DR9      0.044200
    101 HAZ1        6.0590   -0.0310   -2.0760 hc        1 DR9      0.043700
    102 HAZ2        6.0510   -0.9260   -0.5070 hc        1 DR9      0.043700
    103 HAY1        8.3910   -1.7510   -0.9790 hc        1 DR9      0.036700
    104 HAY2        8.3970   -0.8340   -2.5350 hc        1 DR9      0.036700
    105 HAX1        8.0090    1.3120   -1.2620 hc        1 DR9      0.039700
    106 HAX2        8.0250    0.3870    0.2890 hc        1 DR9      0.039700
    107 HAW1       10.3630   -0.4160   -0.2240 hc        1 DR9      0.039200
    108 HAW2       10.3450    0.5290   -1.7630 hc        1 DR9      0.039200
    109 HAV1        9.9580    2.6510   -0.4500 hc        1 DR9      0.048200
    110 HAV2        9.9830    1.7040    1.0850 hc        1 DR9      0.048200
    111 HAU        12.4300    1.1360   -0.5300 ha        1 DR9      0.121000
    112 HAT        13.6170    2.8190    0.7930 ha        1 DR9      0.117000
    113 HAS1       11.0800    4.3440    1.0500 hc        1 DR9      0.048700
    114 HAS2       11.2690    3.2530    2.4740 hc        1 DR9      0.048700
    115 HAR1       13.5670    4.2000    2.9000 hc        1 DR9      0.039200
    116 HAR2       13.3830    5.2900    1.4720 hc        1 DR9      0.039200
    117 HBI1       11.3500    6.3330    2.5300 hc        1 DR9      0.041200
    118 HBI2       11.5270    5.2390    3.9540 hc        1 DR9      0.041200
    119 HBT1       13.8190    6.1840    4.3960 hc        1 DR9      0.038200
    120 HBT2       13.6440    7.2780    2.9710 hc        1 DR9      0.038200
    121 HBW1       11.6060    8.3190    4.0220 hc        1 DR9      0.039200
    122 HBW2       11.7830    7.2250    5.4470 hc        1 DR9      0.039200
    123 HBY1       14.0590    8.1950    5.9120 hc        1 DR9      0.031033
    124 HBY2       13.8810    9.2930    4.4850 hc        1 DR9      0.031033
    125 HBY3       12.7710    9.4690    5.9050 hc        1 DR9      0.031033
@<TRIPOS>BOND
     1    1    2 1   
     2    1   52 1   
     3    1   53 1   
     4    1   54 1   
     5    2    3 1   
     6    2   55 1   
     7    2   56 1   
     8    3    4 1   
     9    3   57 1   
    10    3   58 1   
    11    4    5 1   
    12    4   59 1   
    13    4   60 1   
    14    5    6 1   
    15    5   61 1   
    16    5   62 1   
    17    6    7 1   
    18    6   63 1   
    19    6   64 1   
    20    7    8 1   
    21    7   65 1   
    22    7   66 1   
    23    8    9 1   
    24    8   67 1   
    25    8   68 1   
    26    9   10 2   
    27    9   69 1   
    28   10   11 1   
    29   10   70 1   
    30   11   12 1   
    31   11   71 1   
    32   11   72 1   
    33   12   13 1   
    34   12   73 1   
    35   12   74 1   
    36   13   14 1   
    37   13   75 1   
    38   13   76 1   
    39   14   15 1   
    40   14   77 1   
    41   14   78 1   
    42   15   16 1   
    43   15   79 1   
    44   15   80 1   
    45   16   17 1   
    46   16   81 1   
    47   16   82 1   
    48   17   18 1   
    49   17   83 1   
    50   17   84 1   
    51   18   19 2   
    52   18   20 1   
    53   20   21 1   
    54   21   22 1   
    55   21   85 1   
    56   21   86 1   
    57   22   23 1   
    58   22   34 1   
    59   22   87 1   
    60   23   24 1   
    61   23   88 1   
    62   23   89 1   
    63   24   25 1   
    64   25   26 1   
    65   25   27 1   
    66   25   28 1   
    67   28   29 1   
    68   29   30 1   
    69   29   90 1   
    70   29   91 1   
    71   30   31 1   
    72   30   32 1   
    73   30   92 1   
    74   31   93 1   
    75   32   33 1   
    76   32   94 1   
    77   32   95 1   
    78   33   96 1   
    79   34   35 1   
    80   35   36 2   
    81   35   37 1   
    82   37   38 1   
    83   37   97 1   
    84   37   98 1   
    85   38   39 1   
    86   38   99 1   
    87   38  100 1   
    88   39   40 1   
    89   39  101 1   
    90   39  102 1   
    91   40   41 1   
    92   40  103 1   
    93   40  104 1   
    94   41   42 1   
    95   41  105 1   
    96   41  106 1   
    97   42   43 1   
    98   42  107 1   
    99   42  108 1   
   100   43   44 1   
   101   43  109 1   
   102   43  110 1   
   103   44   45 2   
   104   44  111 1   
   105   45   46 1   
   106   45  112 1   
   107   46   47 1   
   108   46  113 1   
   109   46  114 1   
   110   47   48 1   
   111   47  115 1   
   112   47  116 1   
   113   48   49 1   
   114   48  117 1   
   115   48  118 1   
   116   49   50 1   
   117   49  119 1   
   118   49  120 1   
   119   50   51 1   
   120   50  121 1   
   121   50  122 1   
   122   51  123 1   
   123   51  124 1   
   124   51  125 1   
@<TRIPOS>SUBSTRUCTURE
     1 DR9         1 TEMP              0 ****  ****    0 ROOT
