@<TRIPOS>MOLECULE
DR9
  125   124     1     0     0
SMALL
bcc


@<TRIPOS>ATOM
      1 CBX        -1.2920    0.2130    0.9520 c3        1 DR9     -0.092100
      2 CBV         0.1110   -0.3050    0.7680 c3        1 DR9     -0.080400
      3 CBS         1.0170    0.1280    1.9010 c3        1 DR9     -0.078400
      4 CBH         2.4240   -0.3960    1.7120 c3        1 DR9     -0.079400
      5 CAQ         3.3290    0.0380    2.8450 c3        1 DR9     -0.078400
      6 CAP         4.7370   -0.4850    2.6550 c3        1 DR9     -0.080400
      7 CAO         5.6420   -0.0510    3.7880 c3        1 DR9     -0.076400
      8 CAN         7.0490   -0.5770    3.5950 c3        1 DR9     -0.048200
      9 CAM         7.9580   -0.1660    4.6910 c2        1 DR9     -0.185200
     10 CAL         9.2510   -0.5040    4.7460 c2        1 DR9     -0.164200
     11 CAK         9.9320   -1.3290    3.7210 c3        1 DR9     -0.052200
     12 CAJ        11.3940   -1.5620    4.0450 c3        1 DR9     -0.076400
     13 CAI        12.0580   -2.4150    2.9850 c3        1 DR9     -0.081400
     14 CAH        13.5200   -2.6460    3.3010 c3        1 DR9     -0.074400
     15 CAG        14.1800   -3.5000    2.2400 c3        1 DR9     -0.092400
     16 CAF        15.6490   -3.7070    2.5410 c3        1 DR9     -0.071400
     17 CAE        16.2760   -4.6330    1.5220 c3        1 DR9     -0.146400
     18 CAD        17.7680   -4.5580    1.5450 c         1 DR9      0.653100
     19 OAA        18.4980   -3.6120    1.8530 o         1 DR9     -0.567000
     20 OAC        18.3550   -5.7320    1.1530 os        1 DR9     -0.439900
     21 CAB        19.7040   -5.6640    0.6760 c3        1 DR9      0.125400
     22 CBE        19.8420   -6.6190   -0.5060 c3        1 DR9      0.136100
     23 CBK        18.7130   -6.4680   -1.5350 c3        1 DR9      0.181400
     24 OBL        18.8160   -5.1970   -2.1070 os        1 DR9     -0.562200
     25 PBM        17.5240   -4.8310   -3.0630 p5        1 DR9      1.427800
     26 OBU        17.7710   -3.5390   -3.7290 o         1 DR9     -0.825500
     27 OBF        17.0810   -6.0840   -3.6980 o         1 DR9     -0.825500
     28 OBN        16.4680   -4.4880   -1.8210 os        1 DR9     -0.588200
     29 CBO        15.4470   -3.5900   -2.1160 c3        1 DR9      0.203400
     30 CBP        15.6900   -2.2390   -1.4190 c3        1 DR9      0.075100
     31 OBG        14.4780   -1.8870   -0.7550 oh        1 DR9     -0.624800
     32 CBQ        16.0920   -1.1540   -2.4190 c3        1 DR9      0.072400
     33 OBR        16.3910    0.0530   -1.7320 oh        1 DR9     -0.630800
     34 OBD        19.7520   -7.9890   -0.0620 os        1 DR9     -0.425900
     35 CBC        20.8580   -8.5620    0.4840 c         1 DR9      0.634100
     36 OBJ        21.9010   -7.9100    0.5880 o         1 DR9     -0.563000
     37 CBB        20.6070   -9.9780    0.9130 c3        1 DR9     -0.130400
     38 CBA        21.8410  -10.8320    0.7160 c3        1 DR9     -0.078400
     39 CAZ        21.6290  -12.2210    1.2780 c3        1 DR9     -0.078400
     40 CAY        22.8540  -13.0860    1.0690 c3        1 DR9     -0.079400
     41 CAX        22.6470  -14.4750    1.6330 c3        1 DR9     -0.079400
     42 CAW        23.8720  -15.3400    1.4260 c3        1 DR9     -0.077400
     43 CAV        23.6630  -16.7300    1.9910 c3        1 DR9     -0.050200
     44 CAU        24.8490  -17.5980    1.8050 c2        1 DR9     -0.168200
     45 CAT        24.9140  -18.8660    2.2260 c2        1 DR9     -0.180200
     46 CAS        23.8090  -19.5560    2.9300 c3        1 DR9     -0.048200
     47 CAR        24.1570  -20.9880    3.2830 c3        1 DR9     -0.076400
     48 CBI        23.0100  -21.6680    4.0010 c3        1 DR9     -0.080400
     49 CBT        23.3550  -23.0980    4.3560 c3        1 DR9     -0.078400
     50 CBW        22.2100  -23.7800    5.0730 c3        1 DR9     -0.080400
     51 CBY        22.5480  -25.2040    5.4280 c3        1 DR9     -0.092100
     52 HBX1       -1.9430   -0.1170    0.1060 hc        1 DR9      0.031033
     53 HBX2       -1.2990    1.3290    0.9860 hc        1 DR9      0.031033
     54 HBX3       -1.7320   -0.1680    1.9050 hc        1 DR9      0.031033
     55 HBV1        0.0940   -1.4260    0.7110 hc        1 DR9      0.039200
     56 HBV2        0.5260    0.0680   -0.2050 hc        1 DR9      0.039200
     57 HBS1        1.0360    1.2480    1.9580 hc        1 DR9      0.038200
     58 HBS2        0.6040   -0.2460    2.8750 hc        1 DR9      0.038200
     59 HBH1        2.8370   -0.0220    0.7380 hc        1 DR9      0.040200
     60 HBH2        2.4050   -1.5160    1.6540 hc        1 DR9      0.040200
     61 HAQ1        2.9170   -0.3350    3.8190 hc        1 DR9      0.038200
     62 HAQ2        3.3490    1.1590    2.9020 hc        1 DR9      0.038200
     63 HAP1        5.1490   -0.1120    1.6810 hc        1 DR9      0.041700
     64 HAP2        4.7170   -1.6060    2.5980 hc        1 DR9      0.041700
     65 HAO1        5.6630    1.0690    3.8450 hc        1 DR9      0.038700
     66 HAO2        5.2310   -0.4250    4.7630 hc        1 DR9      0.038700
     67 HAN1        7.4570   -0.2090    2.6140 hc        1 DR9      0.049200
     68 HAN2        7.0260   -1.7000    3.5310 hc        1 DR9      0.049200
     69 HAM         7.5090    0.4520    5.4850 ha        1 DR9      0.116000
     70 HAL         9.8780   -0.1660    5.5880 ha        1 DR9      0.120000
     71 HAK1        9.4050   -2.3180    3.6280 hc        1 DR9      0.049700
     72 HAK2        9.8460   -0.8240    2.7190 hc        1 DR9      0.049700
     73 HAJ1       11.4830   -2.0640    5.0440 hc        1 DR9      0.037700
     74 HAJ2       11.9240   -0.5770    4.1210 hc        1 DR9      0.037700
     75 HAI1       11.9660   -1.9160    1.9850 hc        1 DR9      0.043700
     76 HAI2       11.5300   -3.4020    2.9110 hc        1 DR9      0.043700
     77 HAH1       13.6160   -3.1430    4.3020 hc        1 DR9      0.033700
     78 HAH2       14.0500   -1.6590    3.3700 hc        1 DR9      0.033700
     79 HAG1       13.6620   -4.4940    2.1820 hc        1 DR9      0.058200
     80 HAG2       14.0720   -3.0090    1.2330 hc        1 DR9      0.058200
     81 HAF1       15.7730   -4.1360    3.5700 hc        1 DR9      0.043700
     82 HAF2       16.1810   -2.7190    2.5260 hc        1 DR9      0.043700
     83 HAE1       15.9460   -5.6910    1.6880 hc        1 DR9      0.102700
     84 HAE2       15.9680   -4.3460    0.4700 hc        1 DR9      0.102700
     85 HAB1       20.3740   -5.9720    1.5200 h1        1 DR9      0.068700
     86 HAB2       19.9500   -4.6230    0.3340 h1        1 DR9      0.068700
     87 HBE        20.8440   -6.4430   -0.9860 h1        1 DR9      0.079700
     88 HBK1       18.8090   -7.2470   -2.3380 h1        1 DR9      0.051700
     89 HBK2       17.7120   -6.5760   -1.0350 h1        1 DR9      0.051700
     90 HBO1       15.3690   -3.4340   -3.2270 h1        1 DR9      0.034200
     91 HBO2       14.4810   -4.0220   -1.7270 h1        1 DR9      0.034200
     92 HBP        16.4980   -2.3530   -0.6410 h1        1 DR9      0.049700
     93 HBG        14.5530   -0.9500   -0.5370 ho        1 DR9      0.401000
     94 HBQ1       15.2250   -0.8930   -3.0830 h1        1 DR9      0.086200
     95 HBQ2       16.9620   -1.5000   -3.0410 h1        1 DR9      0.086200
     96 HBR        17.2400   -0.0810   -1.2960 ho        1 DR9      0.399000
     97 HBB1       19.7410  -10.3960    0.3360 hc        1 DR9      0.075700
     98 HBB2       20.3160   -9.9520    1.9970 hc        1 DR9      0.075700
     99 HBA1       22.7180  -10.3420    1.2180 hc        1 DR9      0.056200
    100 HBA2       22.0820  -10.8970   -0.3780 hc        1 DR9      0.056200
    101 HAZ1       21.3980  -12.1550    2.3730 hc        1 DR9      0.039200
    102 HAZ2       20.7430  -12.6980    0.7810 hc        1 DR9      0.039200
    103 HAY1       23.7410  -12.6070    1.5620 hc        1 DR9      0.042200
    104 HAY2       23.0830  -13.1550   -0.0270 hc        1 DR9      0.042200
    105 HAX1       22.4160  -14.4060    2.7290 hc        1 DR9      0.039200
    106 HAX2       21.7610  -14.9540    1.1390 hc        1 DR9      0.039200
    107 HAW1       24.7580  -14.8620    1.9210 hc        1 DR9      0.041700
    108 HAW2       24.1030  -15.4100    0.3310 hc        1 DR9      0.041700
    109 HAV1       23.4220  -16.6570    3.0880 hc        1 DR9      0.047200
    110 HAV2       22.7710  -17.2050    1.4980 hc        1 DR9      0.047200
    111 HAU        25.7060  -17.1400    1.2860 ha        1 DR9      0.122000
    112 HAT        25.8260  -19.4620    2.0560 ha        1 DR9      0.119000
    113 HAS1       23.5520  -18.9900    3.8670 hc        1 DR9      0.047700
    114 HAS2       22.8880  -19.5420    2.2840 hc        1 DR9      0.047700
    115 HAR1       25.0700  -21.0030    3.9340 hc        1 DR9      0.040200
    116 HAR2       24.4060  -21.5560    2.3490 hc        1 DR9      0.040200
    117 HBI1       22.0960  -21.6510    3.3500 hc        1 DR9      0.040200
    118 HBI2       22.7610  -21.0980    4.9350 hc        1 DR9      0.040200
    119 HBT1       23.6050  -23.6680    3.4220 hc        1 DR9      0.038700
    120 HBT2       24.2690  -23.1150    5.0070 hc        1 DR9      0.038700
    121 HBW1       21.9600  -23.2080    6.0060 hc        1 DR9      0.038700
    122 HBW2       21.2970  -23.7610    4.4210 hc        1 DR9      0.038700
    123 HBY1       23.4410  -25.2420    6.0980 hc        1 DR9      0.031367
    124 HBY2       22.7760  -25.7970    4.5090 hc        1 DR9      0.031367
    125 HBY3       21.6910  -25.6880    5.9560 hc        1 DR9      0.031367
@<TRIPOS>BOND
     1    1    2 1   
     2    1   52 1   
     3    1   53 1   
     4    1   54 1   
     5    2    3 1   
     6    2   55 1   
     7    2   56 1   
     8    3    4 1   
     9    3   57 1   
    10    3   58 1   
    11    4    5 1   
    12    4   59 1   
    13    4   60 1   
    14    5    6 1   
    15    5   61 1   
    16    5   62 1   
    17    6    7 1   
    18    6   63 1   
    19    6   64 1   
    20    7    8 1   
    21    7   65 1   
    22    7   66 1   
    23    8    9 1   
    24    8   67 1   
    25    8   68 1   
    26    9   10 2   
    27    9   69 1   
    28   10   11 1   
    29   10   70 1   
    30   11   12 1   
    31   11   71 1   
    32   11   72 1   
    33   12   13 1   
    34   12   73 1   
    35   12   74 1   
    36   13   14 1   
    37   13   75 1   
    38   13   76 1   
    39   14   15 1   
    40   14   77 1   
    41   14   78 1   
    42   15   16 1   
    43   15   79 1   
    44   15   80 1   
    45   16   17 1   
    46   16   81 1   
    47   16   82 1   
    48   17   18 1   
    49   17   83 1   
    50   17   84 1   
    51   18   19 2   
    52   18   20 1   
    53   20   21 1   
    54   21   22 1   
    55   21   85 1   
    56   21   86 1   
    57   22   23 1   
    58   22   34 1   
    59   22   87 1   
    60   23   24 1   
    61   23   88 1   
    62   23   89 1   
    63   24   25 1   
    64   25   26 1   
    65   25   27 1   
    66   25   28 1   
    67   28   29 1   
    68   29   30 1   
    69   29   90 1   
    70   29   91 1   
    71   30   31 1   
    72   30   32 1   
    73   30   92 1   
    74   31   93 1   
    75   32   33 1   
    76   32   94 1   
    77   32   95 1   
    78   33   96 1   
    79   34   35 1   
    80   35   36 2   
    81   35   37 1   
    82   37   38 1   
    83   37   97 1   
    84   37   98 1   
    85   38   39 1   
    86   38   99 1   
    87   38  100 1   
    88   39   40 1   
    89   39  101 1   
    90   39  102 1   
    91   40   41 1   
    92   40  103 1   
    93   40  104 1   
    94   41   42 1   
    95   41  105 1   
    96   41  106 1   
    97   42   43 1   
    98   42  107 1   
    99   42  108 1   
   100   43   44 1   
   101   43  109 1   
   102   43  110 1   
   103   44   45 2   
   104   44  111 1   
   105   45   46 1   
   106   45  112 1   
   107   46   47 1   
   108   46  113 1   
   109   46  114 1   
   110   47   48 1   
   111   47  115 1   
   112   47  116 1   
   113   48   49 1   
   114   48  117 1   
   115   48  118 1   
   116   49   50 1   
   117   49  119 1   
   118   49  120 1   
   119   50   51 1   
   120   50  121 1   
   121   50  122 1   
   122   51  123 1   
   123   51  124 1   
   124   51  125 1   
@<TRIPOS>SUBSTRUCTURE
     1 DR9         1 TEMP              0 ****  ****    0 ROOT
