@<TRIPOS>MOLECULE
DRC
   50    53     1     0     0
SMALL
bcc


@<TRIPOS>ATOM
      1 O24         0.3770   -2.4950    0.2860 os        1 DRC     -0.387600
      2 C20         2.0410   -2.7160    2.0580 c3        1 DRC      0.127300
      3 C21         1.2990   -3.3880    0.8930 c3        1 DRC      0.125900
      4 C22         0.1000   -1.2900    2.3890 c3        1 DRC      0.127300
      5 C23        -0.5810   -2.0060    1.2140 c3        1 DRC      0.125900
      6 N19         1.1250   -2.1150    3.0250 n3        1 DRC     -0.738600
      7 C18         1.8210   -1.4210    4.0910 c3        1 DRC      0.160800
      8 C17         0.9830   -1.4960    5.3940 c3        1 DRC      0.090800
      9 N16         1.7730   -1.0380    6.5790 n4        1 DRC     -0.659800
     10 C15         0.9030   -0.8340    7.7970 c         1 DRC      0.575700
     11 O15        -0.0790   -0.1240    7.6530 o         1 DRC     -0.377100
     12 N9          2.1820   -5.5430   11.7670 n4        1 DRC     -0.709000
     13 C4          1.3520   -1.4660    9.0550 ca        1 DRC     -0.234900
     14 C3          1.4950   -0.6730   10.1660 ca        1 DRC     -0.002000
     15 C2          1.8210   -1.2540   11.4240 ca        1 DRC     -0.076000
     16 C1          1.9540   -2.6080   11.5520 ca        1 DRC     -0.112000
     17 C11         1.7910   -3.4790   10.4300 ca        1 DRC     -0.107300
     18 C12         1.5080   -2.9040    9.1390 ca        1 DRC      0.435600
     19 C9          1.8770   -4.8920   10.4910 ca        1 DRC     -0.011400
     20 C13         1.6640   -5.6910    9.3470 ca        1 DRC     -0.080300
     21 C14         1.4150   -4.9930    8.0980 ca        1 DRC      0.450600
     22 N10         1.3550   -3.6500    8.0200 nb        1 DRC     -0.669000
     23 C8          1.6770   -7.1180    9.3410 ca        1 DRC     -0.191000
     24 C7          1.4790   -7.8200    8.1830 ca        1 DRC     -0.017000
     25 C6          1.2520   -7.1420    6.9480 ca        1 DRC     -0.082000
     26 C5          1.2180   -5.7810    6.8980 ca        1 DRC     -0.160300
     27 H201        2.6470   -3.4990    2.5930 h1        1 DRC      0.047950
     28 H202        2.7500   -1.9480    1.6330 h1        1 DRC      0.047950
     29 H211        2.0250   -3.6440    0.0760 h1        1 DRC      0.070700
     30 H212        0.7660   -4.3110    1.2430 h1        1 DRC      0.070700
     31 H221       -0.6800   -1.0500    3.1620 h1        1 DRC      0.047950
     32 H222        0.5320   -0.3190    2.0090 h1        1 DRC      0.047950
     33 H231       -1.2240   -2.8490    1.5810 h1        1 DRC      0.070700
     34 H232       -1.1970   -1.2750    0.6250 h1        1 DRC      0.070700
     35 H181        2.0090   -0.3330    3.8540 h1        1 DRC      0.052700
     36 H182        2.8180   -1.9170    4.2630 h1        1 DRC      0.052700
     37 H171        0.0740   -0.8340    5.3050 hx        1 DRC      0.123200
     38 H172        0.6460   -2.5540    5.5900 hx        1 DRC      0.123200
     39 H16         2.2140   -0.1370    6.3470 hn        1 DRC      0.461800
     40 HN91        1.3060   -5.7500   12.2660 hn        1 DRC      0.475800
     41 HN92        2.7690   -4.9330   12.3500 hn        1 DRC      0.475800
     42 HC3         1.3450    0.4220   10.1120 ha        1 DRC      0.190000
     43 HC2         1.9430   -0.5850   12.2960 ha        1 DRC      0.195000
     44 HC1         2.1740   -3.0120   12.5540 ha        1 DRC      0.145000
     45 HC8         1.8260   -7.6870   10.2720 ha        1 DRC      0.138000
     46 HC7         1.4860   -8.9260    8.1850 ha        1 DRC      0.185000
     47 HC6         1.0970   -7.7450    6.0350 ha        1 DRC      0.188000
     48 HC5         1.0280   -5.2520    5.9470 ha        1 DRC      0.178000
     49 H162        2.5150   -1.7150    6.7790 hn        1 DRC      0.461800
     50 H93         2.6900   -6.4230   11.6000 hn        1 DRC      0.475800
@<TRIPOS>BOND
     1    1    3 1   
     2    1    5 1   
     3    2    3 1   
     4    2    6 1   
     5    2   27 1   
     6    2   28 1   
     7    3   29 1   
     8    3   30 1   
     9    4    5 1   
    10    4    6 1   
    11    4   31 1   
    12    4   32 1   
    13    5   33 1   
    14    5   34 1   
    15    6    7 1   
    16    7    8 1   
    17    7   35 1   
    18    7   36 1   
    19    8    9 1   
    20    8   37 1   
    21    8   38 1   
    22    9   10 1   
    23    9   39 1   
    24    9   49 1   
    25   10   11 2   
    26   10   13 1   
    27   12   19 1   
    28   12   40 1   
    29   12   41 1   
    30   12   50 1   
    31   13   14 ar  
    32   13   18 ar  
    33   14   15 ar  
    34   14   42 1   
    35   15   16 ar  
    36   15   43 1   
    37   16   17 ar  
    38   16   44 1   
    39   17   18 ar  
    40   17   19 ar  
    41   18   22 ar  
    42   19   20 ar  
    43   20   21 ar  
    44   20   23 ar  
    45   21   22 ar  
    46   21   26 ar  
    47   23   24 ar  
    48   23   45 1   
    49   24   25 ar  
    50   24   46 1   
    51   25   26 ar  
    52   25   47 1   
    53   26   48 1   
@<TRIPOS>SUBSTRUCTURE
     1 DRC         1 TEMP              0 ****  ****    0 ROOT
