@<TRIPOS>MOLECULE
DRC
   49    52     1     0     0
SMALL
bcc


@<TRIPOS>ATOM
      1 O24         0.7040   -0.6340   -0.1050 os        1 DRC     -0.399600
      2 C20         1.9210   -1.2660    1.9150 c3        1 DRC      0.134300
      3 C21         1.7980   -1.3940    0.3910 c3        1 DRC      0.125400
      4 C22        -0.4730   -0.8790    2.0220 c3        1 DRC      0.134300
      5 C23        -0.5260   -1.0170    0.4940 c3        1 DRC      0.125400
      6 N19         0.6710   -1.5750    2.6000 n3        1 DRC     -0.741600
      7 C18         0.7630   -1.4220    4.0390 c3        1 DRC      0.163800
      8 C17         1.2300   -2.7550    4.6770 c3        1 DRC      0.100800
      9 N16         1.1920   -2.7300    6.1620 n4        1 DRC     -0.676800
     10 C15         2.3860   -2.0830    6.8160 c         1 DRC      0.576700
     11 O15         3.0650   -1.3540    6.0960 o         1 DRC     -0.468100
     12 N9          2.3180   -5.0190   12.3410 nh        1 DRC     -0.825200
     13 C4          2.6180   -2.3410    8.2380 ca        1 DRC     -0.312900
     14 C3          3.4200   -1.4150    8.8920 ca        1 DRC      0.041000
     15 C2          3.7430   -1.5680   10.2490 ca        1 DRC     -0.201000
     16 C1          3.2860   -2.6630   10.9480 ca        1 DRC      0.008000
     17 C11         2.4830   -3.6540   10.3320 ca        1 DRC     -0.276300
     18 C12         2.1180   -3.5050    8.9450 ca        1 DRC      0.534600
     19 C9          2.0120   -4.8210   11.0360 ca        1 DRC      0.328600
     20 C13         1.2050   -5.7760   10.3180 ca        1 DRC     -0.241300
     21 C14         0.9080   -5.5130    8.9430 ca        1 DRC      0.512600
     22 N10         1.3540   -4.4000    8.2930 nb        1 DRC     -0.855000
     23 C8          0.6940   -6.9640   10.9120 ca        1 DRC     -0.081000
     24 C7         -0.0690   -7.8470   10.1920 ca        1 DRC     -0.139000
     25 C6         -0.3640   -7.5900    8.8310 ca        1 DRC     -0.057000
     26 C5          0.1050   -6.4600    8.2180 ca        1 DRC     -0.220300
     27 H201        2.2750   -0.2210    2.1570 h1        1 DRC      0.045950
     28 H202        2.7020   -1.9910    2.2760 h1        1 DRC      0.045950
     29 H211        1.6820   -2.4690    0.0910 h1        1 DRC      0.064950
     30 H212        2.7000   -0.9480   -0.1060 h1        1 DRC      0.064950
     31 H221       -1.4100   -1.3310    2.4530 h1        1 DRC      0.045950
     32 H222       -0.4590    0.2190    2.2810 h1        1 DRC      0.045950
     33 H231       -1.2800   -0.3020    0.0720 h1        1 DRC      0.064950
     34 H232       -0.7810   -2.0690    0.2010 h1        1 DRC      0.064950
     35 H181       -0.2490   -1.1540    4.4560 h1        1 DRC      0.055700
     36 H182        1.4910   -0.6130    4.3420 h1        1 DRC      0.055700
     37 H171        0.5620   -3.5980    4.3390 hx        1 DRC      0.108200
     38 H172        2.2880   -2.9760    4.3560 hx        1 DRC      0.108200
     39 H16         1.1280   -3.7110    6.5340 hn        1 DRC      0.478800
     40 HN91        2.8790   -4.3750   12.8430 hn        1 DRC      0.454800
     41 HN92        1.9990   -5.8250   12.8230 hn        1 DRC      0.454800
     42 HC3         3.8150   -0.5420    8.3380 ha        1 DRC      0.169000
     43 HC2         4.3700   -0.8080   10.7430 ha        1 DRC      0.168000
     44 HC1         3.5720   -2.7420   12.0100 ha        1 DRC      0.141000
     45 HC8         0.9020   -7.2020   11.9660 ha        1 DRC      0.134000
     46 HC7        -0.4590   -8.7640   10.6610 ha        1 DRC      0.158000
     47 HC6        -0.9780   -8.3160    8.2710 ha        1 DRC      0.156000
     48 HC5        -0.1220   -6.2650    7.1580 ha        1 DRC      0.144000
     49 H162        0.3570   -2.2260    6.4790 hn        1 DRC      0.478800
@<TRIPOS>BOND
     1    1    3 1   
     2    1    5 1   
     3    2    3 1   
     4    2    6 1   
     5    2   27 1   
     6    2   28 1   
     7    3   29 1   
     8    3   30 1   
     9    4    5 1   
    10    4    6 1   
    11    4   31 1   
    12    4   32 1   
    13    5   33 1   
    14    5   34 1   
    15    6    7 1   
    16    7    8 1   
    17    7   35 1   
    18    7   36 1   
    19    8    9 1   
    20    8   37 1   
    21    8   38 1   
    22    9   10 1   
    23    9   39 1   
    24    9   49 1   
    25   10   11 2   
    26   10   13 1   
    27   12   19 1   
    28   12   40 1   
    29   12   41 1   
    30   13   14 ar  
    31   13   18 ar  
    32   14   15 ar  
    33   14   42 1   
    34   15   16 ar  
    35   15   43 1   
    36   16   17 ar  
    37   16   44 1   
    38   17   18 ar  
    39   17   19 ar  
    40   18   22 ar  
    41   19   20 ar  
    42   20   21 ar  
    43   20   23 ar  
    44   21   22 ar  
    45   21   26 ar  
    46   23   24 ar  
    47   23   45 1   
    48   24   25 ar  
    49   24   46 1   
    50   25   26 ar  
    51   25   47 1   
    52   26   48 1   
@<TRIPOS>SUBSTRUCTURE
     1 DRC         1 TEMP              0 ****  ****    0 ROOT
