@<TRIPOS>MOLECULE
DRC
   49    52     1     0     0
SMALL
bcc


@<TRIPOS>ATOM
      1 O24         0.7300   -0.6280   -0.1050 os        1 DRC     -0.399600
      2 C20         1.9410   -1.2720    1.9140 c3        1 DRC      0.134300
      3 C21         1.8160   -1.4000    0.3900 c3        1 DRC      0.125400
      4 C22        -0.4480   -0.8580    2.0230 c3        1 DRC      0.134300
      5 C23        -0.5040   -0.9970    0.4960 c3        1 DRC      0.125400
      6 N19         0.6890   -1.5670    2.6000 n3        1 DRC     -0.741600
      7 C18         0.7840   -1.4140    4.0390 c3        1 DRC      0.163800
      8 C17         1.2320   -2.7530    4.6770 c3        1 DRC      0.100800
      9 N16         1.1970   -2.7270    6.1630 ny        1 DRC     -0.676800
     10 C15         2.4020   -2.0980    6.8140 c         1 DRC      0.576700
     11 O15         3.0900   -1.3780    6.0930 o         1 DRC     -0.468100
     12 N9          2.3050   -5.0360   12.3380 nv        1 DRC     -0.825200
     13 C4          2.6340   -2.3610    8.2350 ca        1 DRC     -0.312900
     14 C3          3.4540   -1.4480    8.8870 ca        1 DRC      0.041000
     15 C2          3.7780   -1.6080   10.2430 ca        1 DRC     -0.201000
     16 C1          3.3060   -2.6960   10.9430 ca        1 DRC      0.008000
     17 C11         2.4860   -3.6730   10.3290 ca        1 DRC     -0.276300
     18 C12         2.1180   -3.5170    8.9430 ca        1 DRC      0.534600
     19 C9          1.9980   -4.8330   11.0330 ca        1 DRC      0.328600
     20 C13         1.1730   -5.7730   10.3170 ca        1 DRC     -0.241300
     21 C14         0.8760   -5.5050    8.9440 ca        1 DRC      0.512600
     22 N10         1.3380   -4.3990    8.2930 nb        1 DRC     -0.855000
     23 C8          0.6450   -6.9540   10.9130 ca        1 DRC     -0.081000
     24 C7         -0.1350   -7.8240   10.1950 ca        1 DRC     -0.139000
     25 C6         -0.4300   -7.5610    8.8350 ca        1 DRC     -0.057000
     26 C5          0.0560   -6.4390    8.2210 ca        1 DRC     -0.220300
     27 H201        2.7140   -2.0060    2.2750 h1        1 DRC      0.045950
     28 H202        2.3080   -0.2310    2.1550 h1        1 DRC      0.045950
     29 H211        1.6870   -2.4730    0.0910 h1        1 DRC      0.064950
     30 H212        2.7220   -0.9640   -0.1070 h1        1 DRC      0.064950
     31 H221       -1.3890   -1.2990    2.4550 h1        1 DRC      0.045950
     32 H222       -0.4220    0.2400    2.2810 h1        1 DRC      0.045950
     33 H231       -1.2510   -0.2730    0.0730 h1        1 DRC      0.064950
     34 H232       -0.7720   -2.0460    0.2030 h1        1 DRC      0.064950
     35 H181       -0.2240   -1.1310    4.4580 h1        1 DRC      0.055700
     36 H182        1.5230   -0.6150    4.3420 h1        1 DRC      0.055700
     37 H171        0.5500   -3.5860    4.3410 hx        1 DRC      0.108200
     38 H172        2.2860   -2.9910    4.3550 hx        1 DRC      0.108200
     39 H16         1.1180   -3.7060    6.5350 hn        1 DRC      0.478800
     40 HN91        1.9740   -5.8370   12.8200 hn        1 DRC      0.454800
     41 HN92        2.8780   -4.4020   12.8380 hn        1 DRC      0.454800
     42 HC3         3.8610   -0.5820    8.3320 ha        1 DRC      0.169000
     43 HC2         4.4190   -0.8580   10.7350 ha        1 DRC      0.168000
     44 HC1         3.5940   -2.7800   12.0040 ha        1 DRC      0.141000
     45 HC8         0.8520   -7.1960   11.9670 ha        1 DRC      0.134000
     46 HC7        -0.5380   -8.7350   10.6640 ha        1 DRC      0.158000
     47 HC6        -1.0570   -8.2770    8.2770 ha        1 DRC      0.156000
     48 HC5        -0.1720   -6.2390    7.1620 ha        1 DRC      0.144000
     49 H162        0.3710   -2.2090    6.4810 hn        1 DRC      0.478800
@<TRIPOS>BOND
     1    1    3 1   
     2    1    5 1   
     3    2    3 1   
     4    2    6 1   
     5    2   27 1   
     6    2   28 1   
     7    3   29 1   
     8    3   30 1   
     9    4    5 1   
    10    4    6 1   
    11    4   31 1   
    12    4   32 1   
    13    5   33 1   
    14    5   34 1   
    15    6    7 1   
    16    7    8 1   
    17    7   35 1   
    18    7   36 1   
    19    8    9 1   
    20    8   37 1   
    21    8   38 1   
    22    9   10 1   
    23    9   39 1   
    24    9   49 1   
    25   10   11 2   
    26   10   13 1   
    27   12   19 1   
    28   12   40 1   
    29   12   41 1   
    30   13   14 ar  
    31   13   18 ar  
    32   14   15 ar  
    33   14   42 1   
    34   15   16 ar  
    35   15   43 1   
    36   16   17 ar  
    37   16   44 1   
    38   17   18 ar  
    39   17   19 ar  
    40   18   22 ar  
    41   19   20 ar  
    42   20   21 ar  
    43   20   23 ar  
    44   21   22 ar  
    45   21   26 ar  
    46   23   24 ar  
    47   23   45 1   
    48   24   25 ar  
    49   24   46 1   
    50   25   26 ar  
    51   25   47 1   
    52   26   48 1   
@<TRIPOS>SUBSTRUCTURE
     1 DRC         1 TEMP              0 ****  ****    0 ROOT
