@<TRIPOS>MOLECULE
DRC
   48    51     1     0     0
SMALL
bcc


@<TRIPOS>ATOM
      1 O24         1.1000    0.1720   -7.4650 os        1 DRC     -0.416600
      2 C20         0.1040    1.4130   -5.6070 c3        1 DRC      0.130300
      3 C21         0.9790    1.4560   -6.8650 c3        1 DRC      0.126900
      4 C22         0.7590   -0.8900   -5.2850 c3        1 DRC      0.130300
      5 C23         1.6090   -0.7970   -6.5560 c3        1 DRC      0.126900
      6 N19         0.5500    0.4060   -4.6500 n3        1 DRC     -0.725600
      7 C18        -0.3430    0.3360   -3.5010 c3        1 DRC      0.151800
      8 C17         0.2470   -0.5090   -2.3450 c3        1 DRC      0.084000
      9 N16        -0.5190   -0.3750   -1.1370 n         1 DRC     -0.549900
     10 C15        -1.0650   -1.4650   -0.4920 c         1 DRC      0.686700
     11 O15        -1.0740   -2.5990   -1.0150 o         1 DRC     -0.615100
     12 N9         -1.6350    0.2810    5.4970 nh        1 DRC     -0.849200
     13 C4         -1.7380   -1.2280    0.8230 ca        1 DRC     -0.202900
     14 C3         -3.0310   -1.6530    0.9700 ca        1 DRC     -0.048000
     15 C2         -3.7140   -1.4810    2.2010 ca        1 DRC     -0.162000
     16 C1         -3.0770   -0.9110    3.2680 ca        1 DRC     -0.077000
     17 C11        -1.7220   -0.4770    3.1800 ca        1 DRC     -0.235300
     18 C12        -1.0260   -0.6190    1.9280 ca        1 DRC      0.484600
     19 C9         -1.0140    0.0970    4.2850 ca        1 DRC      0.263600
     20 C13         0.3400    0.5150    4.0870 ca        1 DRC     -0.230300
     21 C14         0.9230    0.3240    2.7890 ca        1 DRC      0.471600
     22 N10         0.2560   -0.2270    1.7470 nb        1 DRC     -0.731000
     23 C8          1.1340    1.1130    5.1120 ca        1 DRC     -0.095000
     24 C7          2.4260    1.4930    4.8790 ca        1 DRC     -0.149000
     25 C6          3.0120    1.2990    3.5990 ca        1 DRC     -0.103000
     26 C5          2.2950    0.7370    2.5850 ca        1 DRC     -0.187300
     27 H201       -0.9660    1.2420   -5.9230 h1        1 DRC      0.042700
     28 H202        0.1610    2.4170   -5.1010 h1        1 DRC      0.042700
     29 H211        0.4910    2.0880   -7.6520 h1        1 DRC      0.052950
     30 H212        1.9990    1.8560   -6.6260 h1        1 DRC      0.052950
     31 H221        1.2980   -1.5490   -4.5480 h1        1 DRC      0.042700
     32 H222       -0.2210   -1.3880   -5.5450 h1        1 DRC      0.042700
     33 H231        1.5620   -1.7640   -7.1230 h1        1 DRC      0.052950
     34 H232        2.6740   -0.5490   -6.3030 h1        1 DRC      0.052950
     35 H181       -1.3520   -0.0870   -3.7790 h1        1 DRC      0.037200
     36 H182       -0.5040    1.3910   -3.1390 h1        1 DRC      0.037200
     37 H171        1.3090   -0.1820   -2.1510 h1        1 DRC      0.064700
     38 H172        0.2620   -1.5950   -2.6510 h1        1 DRC      0.064700
     39 H16        -0.4250    0.4800   -0.6410 hn        1 DRC      0.319500
     40 HN91       -1.0850    0.5120    6.2880 hn        1 DRC      0.427300
     41 HN92       -2.4940   -0.1780    5.6740 hn        1 DRC      0.427300
     42 HC3        -3.5500   -2.1430    0.1290 ha        1 DRC      0.154000
     43 HC2        -4.7580   -1.8170    2.2790 ha        1 DRC      0.140000
     44 HC1        -3.6430   -0.7870    4.2040 ha        1 DRC      0.121000
     45 HC8         0.7120    1.2880    6.1130 ha        1 DRC      0.119000
     46 HC7         3.0300    1.9540    5.6740 ha        1 DRC      0.135000
     47 HC6         4.0560    1.6120    3.4420 ha        1 DRC      0.137000
     48 HC5         2.7430    0.5820    1.5900 ha        1 DRC      0.153000
@<TRIPOS>BOND
     1    1    3 1   
     2    1    5 1   
     3    2    3 1   
     4    2    6 1   
     5    2   27 1   
     6    2   28 1   
     7    3   29 1   
     8    3   30 1   
     9    4    5 1   
    10    4    6 1   
    11    4   31 1   
    12    4   32 1   
    13    5   33 1   
    14    5   34 1   
    15    6    7 1   
    16    7    8 1   
    17    7   35 1   
    18    7   36 1   
    19    8    9 1   
    20    8   37 1   
    21    8   38 1   
    22    9   10 1   
    23    9   39 1   
    24   10   11 2   
    25   10   13 1   
    26   12   19 1   
    27   12   40 1   
    28   12   41 1   
    29   13   14 ar  
    30   13   18 ar  
    31   14   15 ar  
    32   14   42 1   
    33   15   16 ar  
    34   15   43 1   
    35   16   17 ar  
    36   16   44 1   
    37   17   18 ar  
    38   17   19 ar  
    39   18   22 ar  
    40   19   20 ar  
    41   20   21 ar  
    42   20   23 ar  
    43   21   22 ar  
    44   21   26 ar  
    45   23   24 ar  
    46   23   45 1   
    47   24   25 ar  
    48   24   46 1   
    49   25   26 ar  
    50   25   47 1   
    51   26   48 1   
@<TRIPOS>SUBSTRUCTURE
     1 DRC         1 TEMP              0 ****  ****    0 ROOT
