@<TRIPOS>MOLECULE
DRC
   48    46     1     0     0
SMALL
bcc


@<TRIPOS>ATOM
      1 O24         0.9230    1.5110   -6.3300 os        1 DRC     -0.280000
      2 C20         1.3100    2.0500   -4.1170 c3        1 DRC     -0.102000
      3 C21         1.8600    1.6870   -5.4900 c3        1 DRC     -0.038500
      4 C22        -0.7100    2.5560   -5.0760 c3        1 DRC     -0.102000
      5 C23        -0.1430    2.1890   -6.4420 c3        1 DRC     -0.038500
      6 N19        -0.1730    1.6520   -3.9420 n3        1 DRC     -0.254000
      7 C18        -0.6660    2.1480   -2.6410 c3        1 DRC     -0.081000
      8 C17        -1.2940    0.9850   -1.8530 c3        1 DRC     -0.032000
      9 N16        -1.3980    1.3480   -0.4550 n         1 DRC     -0.359000
     10 C15        -1.6510    0.3430    0.5210 c2        1 DRC      0.360000
     11 O15        -2.3440   -0.6140    0.2410 o         1 DRC     -0.371000
     12 N9          0.9640   -1.4430    5.8140 n3        1 DRC     -0.358000
     13 C4         -1.1280    0.5120    1.9390 c2        1 DRC     -0.117000
     14 C3         -1.1690    1.7370    2.6010 c2        1 DRC     -0.048000
     15 C2         -0.6480    1.8520    3.8950 c1        1 DRC     -0.162000
     16 C1         -0.0890    0.7370    4.5220 c1        1 DRC     -0.077000
     17 C11        -0.0490   -0.5100    3.8480 c1        1 DRC     -0.170000
     18 C12        -0.5610   -0.6200    2.5750 c1        1 DRC      0.091000
     19 C9          0.5070   -1.6360    4.4800 c2        1 DRC      0.183000
     20 C13         0.5390   -2.8710    3.8130 c2        1 DRC     -0.166000
     21 C14         0.0250   -2.9790    2.5380 c1        1 DRC      0.078000
     22 N10        -0.5280   -1.8560    1.9080 n1        1 DRC     -0.206000
     23 C8          1.1240   -3.9990    4.4380 c1        1 DRC     -0.094000
     24 C7          1.1810   -5.2200    3.7640 c1        1 DRC     -0.126500
     25 C6          0.6620   -5.3310    2.4740 c1        1 DRC     -0.126500
     26 C5          0.0840   -4.2210    1.8540 c1        1 DRC     -0.123000
     27 H201        1.8430    1.5920   -3.4320 h1        1 DRC      0.092250
     28 H202        1.3940    3.0160   -3.9890 h1        1 DRC      0.092250
     29 H211        2.4440    2.4160   -5.8060 h1        1 DRC      0.089250
     30 H212        2.3870    0.8600   -5.4170 h1        1 DRC      0.089250
     31 H221       -1.6850    2.4750   -5.1080 h1        1 DRC      0.092250
     32 H222       -0.4770    3.4840   -4.8780 h1        1 DRC      0.092250
     33 H231       -0.8090    1.6620   -6.9350 h1        1 DRC      0.089250
     34 H232        0.0510    3.0160   -6.9450 h1        1 DRC      0.089250
     35 H181       -1.3400    2.8410   -2.7910 h1        1 DRC      0.076500
     36 H182        0.0790    2.5230   -2.1310 h1        1 DRC      0.076500
     37 H171       -2.1890    0.7940   -2.2080 h1        1 DRC      0.103000
     38 H172       -0.7310    0.1880   -1.9420 h1        1 DRC      0.103000
     39 H16        -1.3800    2.2240   -0.2110 hn        1 DRC      0.230000
     40 HN91        1.7470   -1.8250    6.0890 hn        1 DRC      0.223000
     41 HN92        0.4980   -0.8980    6.3820 hn        1 DRC      0.223000
     42 HC3        -1.5630    2.5220    2.1580 ha        1 DRC      0.155000
     43 HC2        -0.6760    2.7190    4.3640 ha        1 DRC      0.140000
     44 HC1         0.2760    0.8160    5.4300 ha        1 DRC      0.121000
     45 HC8         1.4940   -3.9220    5.3540 ha        1 DRC      0.119000
     46 HC7         1.5910   -6.0090    4.2020 ha        1 DRC      0.136000
     47 HC6         0.7040   -6.2010    1.9950 ha        1 DRC      0.136000
     48 HC5        -0.2840   -4.3010    0.9390 ha        1 DRC      0.151000
@<TRIPOS>BOND
     1    1    3 1   
     2    1    5 1   
     3    2    3 1   
     4    2    6 1   
     5    2   27 1   
     6    2   28 1   
     7    3   29 1   
     8    3   30 1   
     9    4    5 1   
    10    4    6 1   
    11    4   31 1   
    12    4   32 1   
    13    5   33 1   
    14    5   34 1   
    15    6    7 1   
    16    7    8 1   
    17    7   35 1   
    18    7   36 1   
    19    8    9 1   
    20    8   37 1   
    21    8   38 1   
    22    9   10 1   
    23    9   39 1   
    24   10   11 1   
    25   10   13 1   
    26   12   19 1   
    27   12   40 1   
    28   12   41 1   
    29   13   14 1   
    30   13   18 1   
    31   14   15 1   
    32   14   42 1   
    33   15   43 1   
    34   16   17 1   
    35   16   44 1   
    36   17   19 1   
    37   18   22 1   
    38   19   20 1   
    39   20   21 1   
    40   20   23 1   
    41   21   26 1   
    42   23   45 1   
    43   24   25 1   
    44   24   46 1   
    45   25   47 1   
    46   26   48 1   
@<TRIPOS>SUBSTRUCTURE
     1 DRC         1 TEMP              0 ****  ****    0 ROOT
