@<TRIPOS>MOLECULE
DRD
   75    79     1     0     0
SMALL
bcc


@<TRIPOS>ATOM
      1 CAV        -2.6370   -0.0470   -1.9900 ca        1 DRD     -0.091000
      2 CAY        -3.1900    0.5370   -3.1230 ca        1 DRD     -0.144500
      3 CAX        -3.0440   -0.0800   -4.3690 ca        1 DRD     -0.130000
      4 CAW        -2.3460   -1.2780   -4.4710 ca        1 DRD     -0.144500
      5 CAZ        -1.7760   -1.8650   -3.3350 ca        1 DRD     -0.091000
      6 CBA        -1.9130   -1.2480   -2.0890 ca        1 DRD     -0.172600
      7 CBB        -1.3450   -1.8000   -0.8370 c         1 DRD      0.606300
      8 OBO        -2.0070   -1.8080    0.2120 o         1 DRD     -0.556100
      9 CBC         0.0680   -2.2490   -0.8410 ca        1 DRD     -0.185600
     10 CBH         0.5210   -3.2730   -1.6400 ca        1 DRD     -0.043000
     11 CBD         0.9750   -1.5970    0.0380 ca        1 DRD     -0.088000
     12 CBG         2.2990   -1.9510    0.0740 ca        1 DRD     -0.156000
     13 CBF         2.8090   -2.9790   -0.7710 ca        1 DRD      0.006000
     14 CBK         4.1870   -3.3500   -0.7910 ca        1 DRD     -0.127300
     15 CBL         5.1630   -2.7010    0.1270 c3        1 DRD     -0.020100
     16 CBM         5.6060   -1.3400   -0.3810 c3        1 DRD     -0.080400
     17 CBN         6.5610   -0.6800    0.5790 c3        1 DRD     -0.090100
     18 CBE         1.8960   -3.6370   -1.6340 ca        1 DRD     -0.073000
     19 CBI         2.3570   -4.6420   -2.5260 ca        1 DRD     -0.054000
     20 CBJ         3.6830   -4.9870   -2.5510 ca        1 DRD     -0.204000
     21 CAE         4.5980   -4.3420   -1.6780 ca        1 DRD      0.124100
     22 OAD         5.9400   -4.7010   -1.6170 os        1 DRD     -0.344900
     23 CAC         6.5060   -5.3000   -2.7810 c3        1 DRD      0.133400
     24 CAB         6.5670   -4.3360   -3.9500 c3        1 DRD     -0.150400
     25 CAA         6.8230   -5.0520   -5.2770 c3        1 DRD      0.038300
     26 NAT         5.7010   -5.7280   -5.8720 na        1 DRD     -0.074400
     27 CAU         5.2860   -7.0110   -5.4180 cc        1 DRD     -0.180100
     28 CAM         3.9230   -7.1700   -5.5760 cd        1 DRD     -0.124200
     29 CAN         3.3950   -5.9110   -6.0660 ca        1 DRD     -0.150800
     30 CAO         4.5160   -5.0190   -6.2070 ca        1 DRD     -0.026200
     31 CAR         4.3450   -3.7050   -6.6540 ca        1 DRD     -0.206000
     32 CAQ         3.0480   -3.2860   -6.9330 ca        1 DRD     -0.070000
     33 CAP         1.9390   -4.1240   -6.7870 ca        1 DRD     -0.227000
     34 CAS         2.0960   -5.4490   -6.3560 ca        1 DRD      0.221100
     35 OAF         1.1050   -6.3760   -6.1910 os        1 DRD     -0.325900
     36 CAG        -0.2830   -5.9810   -6.3390 c3        1 DRD      0.034800
     37 CAL        -1.0410   -7.1780   -5.7690 c3        1 DRD     -0.090100
     38 CAK        -0.6120   -5.8050   -7.8110 c3        1 DRD     -0.090100
     39 CAH        -0.6500   -4.7310   -5.4850 c         1 DRD      0.910600
     40 OAJ        -1.2310   -3.7650   -6.0530 o         1 DRD     -0.836300
     41 OAI        -0.3830   -4.7590   -4.2500 o         1 DRD     -0.836300
     42 HAP         0.9280   -3.7190   -6.9690 ha        1 DRD      0.185000
     43 HAQ         2.8810   -2.2500   -7.2660 ha        1 DRD      0.122000
     44 HAR         5.1990   -3.0260   -6.7660 ha        1 DRD      0.120000
     45 HAU         6.0340   -7.7260   -5.0730 h4        1 DRD      0.149000
     46 HAM         3.3250   -8.0570   -5.3830 ha        1 DRD      0.159000
     47 HAA1        7.1740   -4.2820   -6.0240 h1        1 DRD      0.048700
     48 HAA2        7.6450   -5.8100   -5.1370 h1        1 DRD      0.048700
     49 HAB1        5.6040   -3.7580   -4.0060 hc        1 DRD      0.068700
     50 HAB2        7.3920   -3.5970   -3.7800 hc        1 DRD      0.068700
     51 HAC1        7.5400   -5.5730   -2.4320 h1        1 DRD      0.050200
     52 HAC2        5.9540   -6.2380   -3.0510 h1        1 DRD      0.050200
     53 HBJ         4.0320   -5.7470   -3.2680 ha        1 DRD      0.150000
     54 HBI         1.6210   -5.1070   -3.2160 ha        1 DRD      0.201000
     55 HBH        -0.1510   -3.8440   -2.3120 ha        1 DRD      0.203000
     56 HBD         0.5880   -0.8030    0.6960 ha        1 DRD      0.127000
     57 HBG         2.9860   -1.4340    0.7600 ha        1 DRD      0.124000
     58 HBL1        4.7080   -2.5920    1.1480 hc        1 DRD      0.045200
     59 HBL2        6.0680   -3.3580    0.2440 hc        1 DRD      0.045200
     60 HBM1        6.0980   -1.4630   -1.3810 hc        1 DRD      0.045200
     61 HBM2        4.7060   -0.6870   -0.5320 hc        1 DRD      0.045200
     62 HBN1        6.0770   -0.5270    1.5740 hc        1 DRD      0.025367
     63 HBN2        7.4710   -1.3110    0.7270 hc        1 DRD      0.025367
     64 HBN3        6.8810    0.3150    0.1860 hc        1 DRD      0.025367
     65 HAZ        -1.2390   -2.8250   -3.4820 ha        1 DRD      0.166000
     66 HAW        -2.2200   -1.8010   -5.4390 ha        1 DRD      0.150500
     67 HAX        -3.4840    0.3820   -5.2640 ha        1 DRD      0.117000
     68 HAY        -3.7470    1.4810   -3.0380 ha        1 DRD      0.150500
     69 HAV        -2.7660    0.4220   -1.0030 ha        1 DRD      0.166000
     70 HAL1       -2.1310   -7.0270   -5.9480 hc        1 DRD      0.037700
     71 HAL2       -0.7110   -8.1240   -6.2580 hc        1 DRD      0.037700
     72 HAL3       -0.8520   -7.2450   -4.6710 hc        1 DRD      0.037700
     73 HAK1       -1.5990   -5.2900   -7.9010 hc        1 DRD      0.037700
     74 HAK2       -0.6560   -6.7950   -8.3260 hc        1 DRD      0.037700
     75 HAK3        0.1610   -5.1790   -8.3170 hc        1 DRD      0.037700
@<TRIPOS>BOND
     1    1    2 ar  
     2    1    6 ar  
     3    1   69 1   
     4    2    3 ar  
     5    2   68 1   
     6    3    4 ar  
     7    3   67 1   
     8    4    5 ar  
     9    4   66 1   
    10    5    6 ar  
    11    5   65 1   
    12    6    7 1   
    13    7    8 2   
    14    7    9 1   
    15    9   10 ar  
    16    9   11 ar  
    17   10   18 ar  
    18   10   55 1   
    19   11   12 ar  
    20   11   56 1   
    21   12   13 ar  
    22   12   57 1   
    23   13   14 ar  
    24   13   18 ar  
    25   14   15 1   
    26   14   21 ar  
    27   15   16 1   
    28   15   58 1   
    29   15   59 1   
    30   16   17 1   
    31   16   60 1   
    32   16   61 1   
    33   17   62 1   
    34   17   63 1   
    35   17   64 1   
    36   18   19 ar  
    37   19   20 ar  
    38   19   54 1   
    39   20   21 ar  
    40   20   53 1   
    41   21   22 1   
    42   22   23 1   
    43   23   24 1   
    44   23   51 1   
    45   23   52 1   
    46   24   25 1   
    47   24   49 1   
    48   24   50 1   
    49   25   26 1   
    50   25   47 1   
    51   25   48 1   
    52   26   27 1   
    53   26   30 1   
    54   27   28 2   
    55   27   45 1   
    56   28   29 1   
    57   28   46 1   
    58   29   30 ar  
    59   29   34 ar  
    60   30   31 ar  
    61   31   32 ar  
    62   31   44 1   
    63   32   33 ar  
    64   32   43 1   
    65   33   34 ar  
    66   33   42 1   
    67   34   35 1   
    68   35   36 1   
    69   36   37 1   
    70   36   38 1   
    71   36   39 1   
    72   37   70 1   
    73   37   71 1   
    74   37   72 1   
    75   38   73 1   
    76   38   74 1   
    77   38   75 1   
    78   39   40 1   
    79   39   41 1   
@<TRIPOS>SUBSTRUCTURE
     1 DRD         1 TEMP              0 ****  ****    0 ROOT
