@<TRIPOS>MOLECULE
DRD
   75    68     1     0     0
SMALL
bcc


@<TRIPOS>ATOM
      1 CAV         4.5590    0.0370   -5.1680 c1        1 DRD     -0.088000
      2 CAY         3.8530   -0.0040   -6.3700 c1        1 DRD     -0.130167
      3 CAX         3.4440    1.1760   -6.9770 c1        1 DRD     -0.130167
      4 CAW         3.7380    2.4020   -6.3840 c1        1 DRD     -0.130167
      5 CAZ         4.4400    2.4440   -5.1900 c1        1 DRD     -0.130167
      6 CBA         4.8520    1.2550   -4.5790 c1        1 DRD     -0.146000
      7 CBB         5.6690    1.3030   -3.2980 c2        1 DRD      0.311000
      8 OBO         6.8850    1.3160   -3.3520 o         1 DRD     -0.299000
      9 CBC         4.9610    1.3270   -1.9350 c2        1 DRD     -0.158000
     10 CBH         4.5090    0.1820   -1.2900 c1        1 DRD     -0.049000
     11 CBD         4.6780    2.5880   -1.4020 c2        1 DRD     -0.103000
     12 CBG         3.9400    2.6990   -0.2230 c1        1 DRD     -0.129000
     13 CBF         3.4800    1.5380    0.4340 c2        1 DRD      0.006000
     14 CBK         2.8120    1.6480    1.6890 c2        1 DRD     -0.079000
     15 CBL         2.2380    2.9340    2.3070 c3        1 DRD     -0.123000
     16 CBM         1.0170    3.3910    1.5000 c3        1 DRD     -0.162000
     17 CBN         0.2960    4.5100    2.2540 c3        1 DRD     -0.211000
     18 CBE         3.7590    0.2930   -0.0910 c1        1 DRD     -0.069000
     19 CBI         3.3830   -0.8760    0.6180 c2        1 DRD     -0.096000
     20 CBJ         2.7260   -0.7670    1.8520 c1        1 DRD     -0.161000
     21 CAE         2.4420    0.4960    2.3860 c1        1 DRD      0.077000
     22 OAD         1.3370    0.3970    3.2990 os        1 DRD     -0.229000
     23 CAC         1.2530   -0.8820    3.9840 c3        1 DRD     -0.014000
     24 CAB        -0.1350   -1.5000    3.7480 c3        1 DRD     -0.230000
     25 CAA        -0.0990   -2.3650    2.4980 c3        1 DRD     -0.022000
     26 NAT        -1.2690   -2.1150    1.7100 n3        1 DRD     -0.167000
     27 CAU        -1.4600   -0.8120    1.3670 c1        1 DRD     -0.155000
     28 CAM        -2.6700   -0.7190    0.6990 c1        1 DRD     -0.130000
     29 CAN        -3.2190   -1.9770    0.6370 c1        1 DRD     -0.141000
     30 CAO        -2.3590   -2.8430    1.2590 c1        1 DRD      0.020000
     31 CAR        -2.6360   -4.2270    1.2690 c1        1 DRD     -0.221000
     32 CAQ        -3.7740   -4.7080    0.6520 c1        1 DRD     -0.130167
     33 CAP        -4.6460   -3.8310    0.0210 c1        1 DRD     -0.130167
     34 CAS        -4.3730   -2.4660    0.0110 c1        1 DRD      0.186000
     35 OAF        -5.2930   -1.6070   -0.6790 os        1 DRD     -0.206000
     36 CAG        -6.3780   -1.1350    0.1400 c3        1 DRD      0.001000
     37 CAL        -7.6880   -1.7580   -0.3410 c3        1 DRD     -0.204500
     38 CAK        -6.4730    0.3870    0.0340 c3        1 DRD     -0.204500
     39 CAH        -6.1300   -1.5300    1.5870 c2        1 DRD      0.325000
     40 OAJ        -5.5450   -0.7290    2.3660 o         1 DRD     -0.554000
     41 OAI        -6.6040   -2.6070    2.0350 o         1 DRD     -0.554000
     42 HAP        -5.4520   -4.1720   -0.4150 ha        1 DRD      0.145000
     43 HAQ        -3.9930   -5.6640    0.7030 ha        1 DRD      0.145000
     44 HAR        -2.0170   -4.8510    1.7180 ha        1 DRD      0.113000
     45 HAU        -0.8400   -0.0790    1.5360 DU        1 DRD      0.149333
     46 HAM        -3.0670    0.1050    0.3330 DU        1 DRD      0.149333
     47 HAA1       -0.0750   -3.3150    2.7570 h1        1 DRD      0.088500
     48 HAA2        0.6970   -2.1490    1.9760 h1        1 DRD      0.088500
     49 HAB1       -0.7960   -0.7870    3.6320 hc        1 DRD      0.113500
     50 HAB2       -0.3830   -2.0540    4.5210 hc        1 DRD      0.113500
     51 HAC1        1.3920   -0.7460    4.9550 h1        1 DRD      0.091500
     52 HAC2        1.9370   -1.4800    3.6380 h1        1 DRD      0.091500
     53 HBJ         2.9120   -1.6860    2.1370 ha        1 DRD      0.141000
     54 HBI         3.5260   -1.7810    0.2520 ha        1 DRD      0.136000
     55 HBH         4.6520   -0.6910   -1.6930 ha        1 DRD      0.148000
     56 HBD         5.0460    3.3870   -1.8230 ha        1 DRD      0.139000
     57 HBG         3.7440    3.5890    0.1540 DU        1 DRD      0.149333
     58 HBL1        1.9710    2.7610    3.2290 hc        1 DRD      0.096000
     59 HBL2        2.9220    3.6370    2.2920 hc        1 DRD      0.096000
     60 HBM1        1.3090    3.7220    0.6240 hc        1 DRD      0.087500
     61 HBM2        0.4140    2.6450    1.3770 hc        1 DRD      0.087500
     62 HBN1        0.8680    5.3020    2.2870 hc        1 DRD      0.073667
     63 HBN2        0.0970    4.2140    3.1670 hc        1 DRD      0.073667
     64 HBN3       -0.5410    4.7310    1.7920 hc        1 DRD      0.073667
     65 HAZ         4.6470    3.3040   -4.7750 ha        1 DRD      0.145000
     66 HAW         3.4540    3.2230   -6.8060 ha        1 DRD      0.145000
     67 HAX         2.9500    1.1460   -7.8180 ha        1 DRD      0.145000
     68 HAY         3.6490   -0.8570   -6.7820 ha        1 DRD      0.145000
     69 HAV         4.8460   -0.7900   -4.7430 ha        1 DRD      0.149000
     70 HAL1       -8.4380   -1.3560    0.1460 hc        1 DRD      0.073167
     71 HAL2       -7.6720   -2.7190   -0.1770 hc        1 DRD      0.073167
     72 HAL3       -7.7950   -1.5920   -1.3020 hc        1 DRD      0.073167
     73 HAK1       -7.3540    0.6820    0.3520 hc        1 DRD      0.073167
     74 HAK2       -6.3560    0.6580   -0.9020 hc        1 DRD      0.073167
     75 HAK3       -5.7730    0.7980    0.5830 hc        1 DRD      0.073167
@<TRIPOS>BOND
     1    1    6 1   
     2    1   69 1   
     3    2    3 1   
     4    2   68 1   
     5    3   67 1   
     6    4    5 1   
     7    4   66 1   
     8    5   65 1   
     9    6    7 1   
    10    7    8 1   
    11    7    9 1   
    12    9   10 1   
    13    9   11 1   
    14   10   55 1   
    15   11   12 1   
    16   11   56 1   
    17   12   13 1   
    18   13   14 1   
    19   13   18 1   
    20   14   15 1   
    21   14   21 1   
    22   15   16 1   
    23   15   58 1   
    24   15   59 1   
    25   16   17 1   
    26   16   60 1   
    27   16   61 1   
    28   17   62 1   
    29   17   63 1   
    30   17   64 1   
    31   18   19 1   
    32   19   20 1   
    33   19   54 1   
    34   20   53 1   
    35   21   22 1   
    36   22   23 1   
    37   23   24 1   
    38   23   51 1   
    39   23   52 1   
    40   24   25 1   
    41   24   49 1   
    42   24   50 1   
    43   25   26 1   
    44   25   47 1   
    45   25   48 1   
    46   26   27 1   
    47   26   30 1   
    48   27   28 1   
    49   28   29 1   
    50   29   34 1   
    51   30   31 1   
    52   31   44 1   
    53   32   33 1   
    54   32   43 1   
    55   33   42 1   
    56   34   35 1   
    57   35   36 1   
    58   36   37 1   
    59   36   38 1   
    60   36   39 1   
    61   37   70 1   
    62   37   71 1   
    63   37   72 1   
    64   38   73 1   
    65   38   74 1   
    66   38   75 1   
    67   39   40 1   
    68   39   41 1   
@<TRIPOS>SUBSTRUCTURE
     1 DRD         1 TEMP              0 ****  ****    0 ROOT
