@<TRIPOS>MOLECULE
DRD
   75    79     1     0     0
SMALL
bcc


@<TRIPOS>ATOM
      1 CAV         0.3410    2.0820    2.4740 ca        1 DRD     -0.091000
      2 CAY         1.4940    2.7690    2.8350 ca        1 DRD     -0.144500
      3 CAX         2.1610    2.4400    4.0180 ca        1 DRD     -0.130000
      4 CAW         1.6710    1.4240    4.8310 ca        1 DRD     -0.144500
      5 CAZ         0.5030    0.7370    4.4790 ca        1 DRD     -0.091000
      6 CBA        -0.1720    1.0670    3.3010 ca        1 DRD     -0.172600
      7 CBB        -1.4110    0.3900    2.8520 c         1 DRD      0.606300
      8 OBO        -1.5630    0.0640    1.6650 o         1 DRD     -0.556100
      9 CBC        -2.5070    0.2040    3.8330 ca        1 DRD     -0.185600
     10 CBH        -2.3650   -0.5520    4.9730 ca        1 DRD     -0.043000
     11 CBD        -3.7580    0.8210    3.5560 ca        1 DRD     -0.088000
     12 CBG        -4.8110    0.7020    4.4280 ca        1 DRD     -0.156000
     13 CBF        -4.6830   -0.0380    5.6380 ca        1 DRD      0.006000
     14 CBK        -5.7410   -0.1530    6.5890 ca        1 DRD     -0.127300
     15 CBL        -7.0700    0.4660    6.3270 c3        1 DRD     -0.020100
     16 CBM        -7.0740    1.9550    6.6230 c3        1 DRD     -0.080400
     17 CBN        -8.4130    2.5730    6.3130 c3        1 DRD     -0.090100
     18 CBE        -3.4380   -0.6650    5.9000 ca        1 DRD     -0.073000
     19 CBI        -3.2420   -1.3830    7.1110 ca        1 DRD     -0.054000
     20 CBJ        -4.2580   -1.4810    8.0270 ca        1 DRD     -0.204000
     21 CAE        -5.5100   -0.8680    7.7620 ca        1 DRD      0.124100
     22 OAD        -6.5920   -0.9920    8.6260 os        1 DRD     -0.344900
     23 CAC        -6.3010   -1.2470    9.9990 c3        1 DRD      0.133400
     24 CAB        -5.5960   -0.0790   10.6620 c3        1 DRD     -0.150400
     25 CAA        -4.9630   -0.4690   11.9990 c3        1 DRD      0.038300
     26 NAT        -3.7270   -1.2010   11.9370 na        1 DRD     -0.074400
     27 CAU        -3.7090   -2.6010   11.6780 cc        1 DRD     -0.180100
     28 CAM        -2.5550   -2.9610   11.0070 cd        1 DRD     -0.124200
     29 CAN        -1.8210   -1.7420   10.7260 ca        1 DRD     -0.150800
     30 CAO        -2.5880   -0.6590   11.2830 ca        1 DRD     -0.026200
     31 CAR        -2.1570    0.6670   11.1720 ca        1 DRD     -0.206000
     32 CAQ        -0.9710    0.9000   10.4820 ca        1 DRD     -0.070000
     33 CAP        -0.2150   -0.1300    9.9160 ca        1 DRD     -0.227000
     34 CAS        -0.6260   -1.4660   10.0320 ca        1 DRD      0.221100
     35 OAF         0.0250   -2.5640    9.5470 os        1 DRD     -0.325900
     36 CAG         1.1980   -2.3960    8.7100 c3        1 DRD      0.034800
     37 CAL         1.4090   -3.7940    8.1320 c3        1 DRD     -0.090100
     38 CAK         2.3870   -1.9980    9.5680 c3        1 DRD     -0.090100
     39 CAH         0.9570   -1.4180    7.5210 c         1 DRD      0.910600
     40 OAJ         1.7780   -0.4770    7.3420 o         1 DRD     -0.836300
     41 OAI        -0.0320   -1.6380    6.7660 o         1 DRD     -0.836300
     42 HAP         0.6870    0.1210    9.3310 ha        1 DRD      0.185000
     43 HAQ        -0.6180    1.9360   10.3610 ha        1 DRD      0.122000
     44 HAR        -2.7380    1.4930   11.5980 ha        1 DRD      0.120000
     45 HAU        -4.5150   -3.2270   12.0600 h4        1 DRD      0.149000
     46 HAM        -2.2260   -3.9580   10.7290 ha        1 DRD      0.159000
     47 HAA1       -4.7520    0.4800   12.5720 h1        1 DRD      0.048700
     48 HAA2       -5.6980   -1.0850   12.5910 h1        1 DRD      0.048700
     49 HAB1       -6.3330    0.7450   10.8450 hc        1 DRD      0.068700
     50 HAB2       -4.8080    0.3230    9.9670 hc        1 DRD      0.068700
     51 HAC1       -7.3260   -1.3990   10.4380 h1        1 DRD      0.050200
     52 HAC2       -5.7150   -2.1970   10.1090 h1        1 DRD      0.050200
     53 HBJ        -4.0830   -2.0150    8.9740 ha        1 DRD      0.150000
     54 HBI        -2.2420   -1.8260    7.3010 ha        1 DRD      0.201000
     55 HBH        -1.4270   -1.0900    5.2160 ha        1 DRD      0.203000
     56 HBD        -3.8650    1.3920    2.6220 ha        1 DRD      0.127000
     57 HBG        -5.7690    1.1880    4.1970 ha        1 DRD      0.124000
     58 HBL1       -7.3620    0.2950    5.2560 hc        1 DRD      0.045200
     59 HBL2       -7.8520   -0.0330    6.9600 hc        1 DRD      0.045200
     60 HBM1       -6.2730    2.4590    6.0190 hc        1 DRD      0.045200
     61 HBM2       -6.8230    2.1160    7.7040 hc        1 DRD      0.045200
     62 HBN1       -9.2180    2.0930    6.9210 hc        1 DRD      0.025367
     63 HBN2       -8.4000    3.6650    6.5440 hc        1 DRD      0.025367
     64 HBN3       -8.6660    2.4440    5.2330 hc        1 DRD      0.025367
     65 HAZ         0.1680   -0.0680    5.1660 ha        1 DRD      0.166000
     66 HAW         2.1790    1.1290    5.7690 ha        1 DRD      0.150500
     67 HAX         3.0750    2.9820    4.3010 ha        1 DRD      0.117000
     68 HAY         1.8820    3.5670    2.1870 ha        1 DRD      0.150500
     69 HAV        -0.1780    2.3210    1.5340 ha        1 DRD      0.166000
     70 HAL1        2.3680   -3.8030    7.5630 hc        1 DRD      0.037700
     71 HAL2        1.4510   -4.5550    8.9460 hc        1 DRD      0.037700
     72 HAL3        0.5670   -4.0380    7.4420 hc        1 DRD      0.037700
     73 HAK1        3.2140   -1.6550    8.9000 hc        1 DRD      0.037700
     74 HAK2        2.1170   -1.1610   10.2540 hc        1 DRD      0.037700
     75 HAK3        2.7340   -2.8620   10.1830 hc        1 DRD      0.037700
@<TRIPOS>BOND
     1    1    2 ar  
     2    1    6 ar  
     3    1   69 1   
     4    2    3 ar  
     5    2   68 1   
     6    3    4 ar  
     7    3   67 1   
     8    4    5 ar  
     9    4   66 1   
    10    5    6 ar  
    11    5   65 1   
    12    6    7 1   
    13    7    8 2   
    14    7    9 1   
    15    9   10 ar  
    16    9   11 ar  
    17   10   18 ar  
    18   10   55 1   
    19   11   12 ar  
    20   11   56 1   
    21   12   13 ar  
    22   12   57 1   
    23   13   14 ar  
    24   13   18 ar  
    25   14   15 1   
    26   14   21 ar  
    27   15   16 1   
    28   15   58 1   
    29   15   59 1   
    30   16   17 1   
    31   16   60 1   
    32   16   61 1   
    33   17   62 1   
    34   17   63 1   
    35   17   64 1   
    36   18   19 ar  
    37   19   20 ar  
    38   19   54 1   
    39   20   21 ar  
    40   20   53 1   
    41   21   22 1   
    42   22   23 1   
    43   23   24 1   
    44   23   51 1   
    45   23   52 1   
    46   24   25 1   
    47   24   49 1   
    48   24   50 1   
    49   25   26 1   
    50   25   47 1   
    51   25   48 1   
    52   26   27 1   
    53   26   30 1   
    54   27   28 2   
    55   27   45 1   
    56   28   29 1   
    57   28   46 1   
    58   29   30 ar  
    59   29   34 ar  
    60   30   31 ar  
    61   31   32 ar  
    62   31   44 1   
    63   32   33 ar  
    64   32   43 1   
    65   33   34 ar  
    66   33   42 1   
    67   34   35 1   
    68   35   36 1   
    69   36   37 1   
    70   36   38 1   
    71   36   39 1   
    72   37   70 1   
    73   37   71 1   
    74   37   72 1   
    75   38   73 1   
    76   38   74 1   
    77   38   75 1   
    78   39   40 1   
    79   39   41 1   
@<TRIPOS>SUBSTRUCTURE
     1 DRD         1 TEMP              0 ****  ****    0 ROOT
