@<TRIPOS>MOLECULE
DRD
   75    79     1     0     0
SMALL
bcc


@<TRIPOS>ATOM
      1 CAV         0.3510    2.1400    2.5080 ca        1 DRD     -0.091000
      2 CAY         1.5070    2.8170    2.8790 ca        1 DRD     -0.144500
      3 CAX         2.1740    2.4680    4.0570 ca        1 DRD     -0.130000
      4 CAW         1.6790    1.4420    4.8550 ca        1 DRD     -0.144500
      5 CAZ         0.5090    0.7650    4.4930 ca        1 DRD     -0.091000
      6 CBA        -0.1650    1.1150    3.3210 ca        1 DRD     -0.172600
      7 CBB        -1.4080    0.4500    2.8620 c         1 DRD      0.606300
      8 OBO        -1.5600    0.1420    1.6700 o         1 DRD     -0.556100
      9 CBC        -2.5050    0.2550    3.8390 ca        1 DRD     -0.185600
     10 CBH        -2.3660   -0.5170    4.9690 ca        1 DRD     -0.043000
     11 CBD        -3.7520    0.8820    3.5710 ca        1 DRD     -0.088000
     12 CBG        -4.8060    0.7550    4.4410 ca        1 DRD     -0.156000
     13 CBF        -4.6810   -0.0020    5.6410 ca        1 DRD      0.006000
     14 CBK        -5.7410   -0.1240    6.5900 ca        1 DRD     -0.127300
     15 CBL        -7.0660    0.5040    6.3360 c3        1 DRD     -0.020100
     16 CBM        -7.0630    1.9890    6.6530 c3        1 DRD     -0.080400
     17 CBN        -8.4000    2.6160    6.3510 c3        1 DRD     -0.090100
     18 CBE        -3.4400   -0.6380    5.8940 ca        1 DRD     -0.073000
     19 CBI        -3.2480   -1.3730    7.0950 ca        1 DRD     -0.054000
     20 CBJ        -4.2630   -1.4790    8.0100 ca        1 DRD     -0.204000
     21 CAE        -5.5130   -0.8570    7.7530 ca        1 DRD      0.124100
     22 OAD        -6.5950   -0.9880    8.6150 os        1 DRD     -0.344900
     23 CAC        -6.3060   -1.2620    9.9850 c3        1 DRD      0.133400
     24 CAB        -5.5950   -0.1070   10.6630 c3        1 DRD     -0.150400
     25 CAA        -4.9650   -0.5180   11.9950 c3        1 DRD      0.038300
     26 NAT        -3.7310   -1.2550   11.9230 na        1 DRD     -0.074400
     27 CAU        -3.7200   -2.6520   11.6450 cc        1 DRD     -0.180100
     28 CAM        -2.5690   -3.0080   10.9700 cd        1 DRD     -0.124200
     29 CAN        -1.8280   -1.7890   10.7050 ca        1 DRD     -0.150800
     30 CAO        -2.5900   -0.7100   11.2760 ca        1 DRD     -0.026200
     31 CAR        -2.1520    0.6160   11.1840 ca        1 DRD     -0.206000
     32 CAQ        -0.9650    0.8520   10.4970 ca        1 DRD     -0.070000
     33 CAP        -0.2150   -0.1740    9.9170 ca        1 DRD     -0.227000
     34 CAS        -0.6320   -1.5090   10.0150 ca        1 DRD      0.221100
     35 OAF         0.0140   -2.6040    9.5140 os        1 DRD     -0.325900
     36 CAG         1.1880   -2.4300    8.6800 c3        1 DRD      0.034800
     37 CAL         1.3920   -3.8210    8.0830 c3        1 DRD     -0.090100
     38 CAK         2.3780   -2.0500    9.5430 c3        1 DRD     -0.090100
     39 CAH         0.9510   -1.4350    7.5050 c         1 DRD      0.910600
     40 OAJ         1.7780   -0.4960    7.3390 o         1 DRD     -0.836300
     41 OAI        -0.0380   -1.6400    6.7460 o         1 DRD     -0.836300
     42 HAP         0.6890    0.0800    9.3350 ha        1 DRD      0.185000
     43 HAQ        -0.6080    1.8880   10.3900 ha        1 DRD      0.122000
     44 HAR        -2.7300    1.4380   11.6210 ha        1 DRD      0.120000
     45 HAU        -4.5290   -3.2790   12.0190 h4        1 DRD      0.149000
     46 HAM        -2.2440   -4.0030   10.6780 ha        1 DRD      0.159000
     47 HAA1       -4.7490    0.4220   12.5800 h1        1 DRD      0.048700
     48 HAA2       -5.7020   -1.1390   12.5790 h1        1 DRD      0.048700
     49 HAB1       -6.3280    0.7180   10.8570 hc        1 DRD      0.068700
     50 HAB2       -4.8060    0.3000    9.9740 hc        1 DRD      0.068700
     51 HAC1       -7.3310   -1.4150   10.4220 h1        1 DRD      0.050200
     52 HAC2       -5.7240   -2.2170   10.0820 h1        1 DRD      0.050200
     53 HBJ        -4.0910   -2.0270    8.9490 ha        1 DRD      0.150000
     54 HBI        -2.2500   -1.8240    7.2790 ha        1 DRD      0.201000
     55 HBH        -1.4310   -1.0620    5.2050 ha        1 DRD      0.203000
     56 HBD        -3.8570    1.4670    2.6440 ha        1 DRD      0.127000
     57 HBG        -5.7630    1.2490    4.2170 ha        1 DRD      0.124000
     58 HBL1       -7.3600    0.3480    5.2630 hc        1 DRD      0.045200
     59 HBL2       -7.8510   -0.0010    6.9630 hc        1 DRD      0.045200
     60 HBM1       -6.2610    2.4970    6.0560 hc        1 DRD      0.045200
     61 HBM2       -6.8120    2.1340    7.7360 hc        1 DRD      0.045200
     62 HBN1       -9.2070    2.1320    6.9520 hc        1 DRD      0.025367
     63 HBN2       -8.3820    3.7060    6.5970 hc        1 DRD      0.025367
     64 HBN3       -8.6540    2.5040    5.2700 hc        1 DRD      0.025367
     65 HAZ         0.1700   -0.0490    5.1680 ha        1 DRD      0.166000
     66 HAW         2.1860    1.1300    5.7880 ha        1 DRD      0.150500
     67 HAX         3.0890    3.0020    4.3480 ha        1 DRD      0.117000
     68 HAY         1.8990    3.6230    2.2430 ha        1 DRD      0.150500
     69 HAV        -0.1670    2.3950    1.5720 ha        1 DRD      0.166000
     70 HAL1        2.3510   -3.8270    7.5140 hc        1 DRD      0.037700
     71 HAL2        1.4300   -4.5930    8.8860 hc        1 DRD      0.037700
     72 HAL3        0.5480   -4.0520    7.3890 hc        1 DRD      0.037700
     73 HAK1        3.2070   -1.7020    8.8800 hc        1 DRD      0.037700
     74 HAK2        2.1120   -1.2210   10.2410 hc        1 DRD      0.037700
     75 HAK3        2.7210   -2.9240   10.1470 hc        1 DRD      0.037700
@<TRIPOS>BOND
     1    1    2 ar  
     2    1    6 ar  
     3    1   69 1   
     4    2    3 ar  
     5    2   68 1   
     6    3    4 ar  
     7    3   67 1   
     8    4    5 ar  
     9    4   66 1   
    10    5    6 ar  
    11    5   65 1   
    12    6    7 1   
    13    7    8 2   
    14    7    9 1   
    15    9   10 ar  
    16    9   11 ar  
    17   10   18 ar  
    18   10   55 1   
    19   11   12 ar  
    20   11   56 1   
    21   12   13 ar  
    22   12   57 1   
    23   13   14 ar  
    24   13   18 ar  
    25   14   15 1   
    26   14   21 ar  
    27   15   16 1   
    28   15   58 1   
    29   15   59 1   
    30   16   17 1   
    31   16   60 1   
    32   16   61 1   
    33   17   62 1   
    34   17   63 1   
    35   17   64 1   
    36   18   19 ar  
    37   19   20 ar  
    38   19   54 1   
    39   20   21 ar  
    40   20   53 1   
    41   21   22 1   
    42   22   23 1   
    43   23   24 1   
    44   23   51 1   
    45   23   52 1   
    46   24   25 1   
    47   24   49 1   
    48   24   50 1   
    49   25   26 1   
    50   25   47 1   
    51   25   48 1   
    52   26   27 1   
    53   26   30 1   
    54   27   28 2   
    55   27   45 1   
    56   28   29 1   
    57   28   46 1   
    58   29   30 ar  
    59   29   34 ar  
    60   30   31 ar  
    61   31   32 ar  
    62   31   44 1   
    63   32   33 ar  
    64   32   43 1   
    65   33   34 ar  
    66   33   42 1   
    67   34   35 1   
    68   35   36 1   
    69   36   37 1   
    70   36   38 1   
    71   36   39 1   
    72   37   70 1   
    73   37   71 1   
    74   37   72 1   
    75   38   73 1   
    76   38   74 1   
    77   38   75 1   
    78   39   40 1   
    79   39   41 1   
@<TRIPOS>SUBSTRUCTURE
     1 DRD         1 TEMP              0 ****  ****    0 ROOT
