@<TRIPOS>MOLECULE
DRE
   44    43     1     0     0
SMALL
bcc


@<TRIPOS>ATOM
      1 NAA        -7.7020    1.8680   -2.8640 n3        1 DRE     -0.916800
      2 CAB        -6.6060    0.9450   -3.0990 c3        1 DRE      0.158800
      3 CAC        -5.2750    1.5950   -2.6440 c3        1 DRE     -0.083400
      4 CAD        -4.1270    0.4930   -2.6290 c3        1 DRE     -0.079400
      5 CAE        -2.8150    1.1280   -2.1410 c3        1 DRE     -0.078400
      6 CAF        -1.7230   -0.0010   -1.9300 c3        1 DRE     -0.083400
      7 CAG        -0.4430    0.6270   -1.3700 c3        1 DRE      0.164800
      8 NAH         0.4560   -0.4360   -0.8830 n3        1 DRE     -0.824200
      9 CAI         1.5370    0.1560   -0.1260 c3        1 DRE      0.164800
     10 CAJ         2.2680   -0.9620    0.7080 c3        1 DRE     -0.083400
     11 CAK         3.4070   -0.3300    1.5230 c3        1 DRE     -0.078400
     12 CAL         4.0310   -1.3790    2.4250 c3        1 DRE     -0.079400
     13 CAM         5.0770   -0.7190    3.3160 c3        1 DRE     -0.083400
     14 CAN         5.5810   -1.7350    4.3610 c3        1 DRE      0.158800
     15 NAO         6.4190   -1.0430    5.3490 n3        1 DRE     -0.916800
     16 HAA1       -8.3220    1.4730   -2.3210 hn        1 DRE      0.348300
     17 HAA2       -8.1040    2.0960   -3.6880 hn        1 DRE      0.348300
     18 HAB1       -6.5560    0.7330   -4.0580 h1        1 DRE      0.024200
     19 HAB2       -6.7570    0.1260   -2.5930 h1        1 DRE      0.024200
     20 HAC1       -5.0270    2.3270   -3.2780 hc        1 DRE      0.046700
     21 HAC2       -5.3830    1.9660   -1.7440 hc        1 DRE      0.046700
     22 HAD1       -4.3800   -0.2320   -2.0280 hc        1 DRE      0.041200
     23 HAD2       -4.0020    0.1370   -3.5360 hc        1 DRE      0.041200
     24 HAE1       -2.4950    1.7720   -2.8120 hc        1 DRE      0.041700
     25 HAE2       -2.9730    1.5910   -1.2930 hc        1 DRE      0.041700
     26 HAF1       -1.5250   -0.4340   -2.7940 hc        1 DRE      0.046200
     27 HAF2       -2.0620   -0.6720   -1.2980 hc        1 DRE      0.046200
     28 HAG1       -0.6720    1.2260   -0.6300 h1        1 DRE      0.027700
     29 HAG2        0.0070    1.1380   -2.0770 h1        1 DRE      0.027700
     30 HAH         0.8020   -0.9000   -1.6020 hn        1 DRE      0.354800
     31 HAI1        2.1740    0.5740   -0.7390 h1        1 DRE      0.027700
     32 HAI2        1.1760    0.8370    0.4840 h1        1 DRE      0.027700
     33 HAJ1        2.6360   -1.6360    0.1000 hc        1 DRE      0.046200
     34 HAJ2        1.6240   -1.3890    1.3200 hc        1 DRE      0.046200
     35 HAK1        3.0530    0.3960    2.0670 hc        1 DRE      0.041700
     36 HAK2        4.0820    0.0180    0.9190 hc        1 DRE      0.041700
     37 HAL1        3.3430   -1.7820    2.9760 hc        1 DRE      0.041200
     38 HAL2        4.4550   -2.0650    1.8800 hc        1 DRE      0.041200
     39 HAM1        4.6770    0.0490    3.7740 hc        1 DRE      0.046700
     40 HAM2        5.8180   -0.4200    2.7740 hc        1 DRE      0.046700
     41 HAN1        6.1050   -2.4240    3.9180 h1        1 DRE      0.024200
     42 HAN2        4.8120   -2.1500    4.8150 h1        1 DRE      0.024200
     43 HAO1        6.1230   -1.2550    6.2160 hn        1 DRE      0.348300
     44 HAO2        7.2860   -1.3060    5.2500 hn        1 DRE      0.348300
@<TRIPOS>BOND
     1    1    2 1   
     2    1   16 1   
     3    1   17 1   
     4    2    3 1   
     5    2   18 1   
     6    2   19 1   
     7    3    4 1   
     8    3   20 1   
     9    3   21 1   
    10    4    5 1   
    11    4   22 1   
    12    4   23 1   
    13    5    6 1   
    14    5   24 1   
    15    5   25 1   
    16    6    7 1   
    17    6   26 1   
    18    6   27 1   
    19    7    8 1   
    20    7   28 1   
    21    7   29 1   
    22    8    9 1   
    23    8   30 1   
    24    9   10 1   
    25    9   31 1   
    26    9   32 1   
    27   10   11 1   
    28   10   33 1   
    29   10   34 1   
    30   11   12 1   
    31   11   35 1   
    32   11   36 1   
    33   12   13 1   
    34   12   37 1   
    35   12   38 1   
    36   13   14 1   
    37   13   39 1   
    38   13   40 1   
    39   14   15 1   
    40   14   41 1   
    41   14   42 1   
    42   15   43 1   
    43   15   44 1   
@<TRIPOS>SUBSTRUCTURE
     1 DRE         1 TEMP              0 ****  ****    0 ROOT
