@<TRIPOS>MOLECULE
DRE
   44    43     1     0     0
SMALL
bcc


@<TRIPOS>ATOM
      1 NAA         8.6700   -0.3900    0.1670 n3        1 DRE     -0.916800
      2 CAB         7.4580    0.3960    0.1550 c3        1 DRE      0.158800
      3 CAC         6.1880   -0.4500    0.0820 c3        1 DRE     -0.083400
      4 CAD         4.9680    0.4430    0.0200 c3        1 DRE     -0.079400
      5 CAE         3.6970   -0.3750   -0.0570 c3        1 DRE     -0.078400
      6 CAF         2.4770    0.5180   -0.1160 c3        1 DRE     -0.083400
      7 CAG         1.2080   -0.3300   -0.1940 c3        1 DRE      0.164800
      8 NAH         0.0000    0.4630   -0.3050 n3        1 DRE     -0.824200
      9 CAI        -1.2080   -0.3300   -0.1940 c3        1 DRE      0.164800
     10 CAJ        -2.4770    0.5180   -0.1160 c3        1 DRE     -0.083400
     11 CAK        -3.6970   -0.3750   -0.0570 c3        1 DRE     -0.078400
     12 CAL        -4.9680    0.4430    0.0200 c3        1 DRE     -0.079400
     13 CAM        -6.1880   -0.4500    0.0820 c3        1 DRE     -0.083400
     14 CAN        -7.4580    0.3960    0.1550 c3        1 DRE      0.158800
     15 NAO        -8.6700   -0.3900    0.1670 n3        1 DRE     -0.916800
     16 HAA1        9.4620    0.1960    0.3410 hn        1 DRE      0.348300
     17 HAA2        8.6300   -1.1050    0.8650 hn        1 DRE      0.348300
     18 HAB1        7.3740    1.0730    1.0580 h1        1 DRE      0.024200
     19 HAB2        7.5030    1.0640   -0.7520 h1        1 DRE      0.024200
     20 HAC1        6.2210   -1.1090   -0.8250 hc        1 DRE      0.046700
     21 HAC2        6.1200   -1.1200    0.9790 hc        1 DRE      0.046700
     22 HAD1        4.9360    1.1040    0.9260 hc        1 DRE      0.041200
     23 HAD2        5.0370    1.1140   -0.8770 hc        1 DRE      0.041200
     24 HAE1        3.7270   -1.0320   -0.9660 hc        1 DRE      0.041700
     25 HAE2        3.6290   -1.0500    0.8370 hc        1 DRE      0.041700
     26 HAF1        2.4460    1.1740    0.7940 hc        1 DRE      0.046200
     27 HAF2        2.5430    1.1910   -1.0110 hc        1 DRE      0.046200
     28 HAG1        1.2620   -0.9860   -1.1090 h1        1 DRE      0.027700
     29 HAG2        1.1850   -1.0170    0.7040 h1        1 DRE      0.027700
     30 HAH        -0.0000    1.2050    0.3690 hn        1 DRE      0.354800
     31 HAI1       -1.2620   -0.9860   -1.1090 h1        1 DRE      0.027700
     32 HAI2       -1.1850   -1.0170    0.7040 h1        1 DRE      0.027700
     33 HAJ1       -2.4460    1.1740    0.7940 hc        1 DRE      0.046200
     34 HAJ2       -2.5430    1.1900   -1.0110 hc        1 DRE      0.046200
     35 HAK1       -3.7270   -1.0320   -0.9660 hc        1 DRE      0.041700
     36 HAK2       -3.6290   -1.0500    0.8370 hc        1 DRE      0.041700
     37 HAL1       -4.9360    1.1040    0.9260 hc        1 DRE      0.041200
     38 HAL2       -5.0370    1.1140   -0.8770 hc        1 DRE      0.041200
     39 HAM1       -6.2210   -1.1090   -0.8250 hc        1 DRE      0.046700
     40 HAM2       -6.1200   -1.1200    0.9790 hc        1 DRE      0.046700
     41 HAN1       -7.3740    1.0730    1.0580 h1        1 DRE      0.024200
     42 HAN2       -7.5030    1.0630   -0.7520 h1        1 DRE      0.024200
     43 HAO1       -8.6300   -1.1050    0.8650 hn        1 DRE      0.348300
     44 HAO2       -9.4620    0.1960    0.3410 hn        1 DRE      0.348300
@<TRIPOS>BOND
     1    1    2 1   
     2    1   16 1   
     3    1   17 1   
     4    2    3 1   
     5    2   18 1   
     6    2   19 1   
     7    3    4 1   
     8    3   20 1   
     9    3   21 1   
    10    4    5 1   
    11    4   22 1   
    12    4   23 1   
    13    5    6 1   
    14    5   24 1   
    15    5   25 1   
    16    6    7 1   
    17    6   26 1   
    18    6   27 1   
    19    7    8 1   
    20    7   28 1   
    21    7   29 1   
    22    8    9 1   
    23    8   30 1   
    24    9   10 1   
    25    9   31 1   
    26    9   32 1   
    27   10   11 1   
    28   10   33 1   
    29   10   34 1   
    30   11   12 1   
    31   11   35 1   
    32   11   36 1   
    33   12   13 1   
    34   12   37 1   
    35   12   38 1   
    36   13   14 1   
    37   13   39 1   
    38   13   40 1   
    39   14   15 1   
    40   14   41 1   
    41   14   42 1   
    42   15   43 1   
    43   15   44 1   
@<TRIPOS>SUBSTRUCTURE
     1 DRE         1 TEMP              0 ****  ****    0 ROOT
