@<TRIPOS>MOLECULE
DRE
   47    46     1     0     0
SMALL
bcc


@<TRIPOS>ATOM
      1 NAA        -0.0800   -0.0010   -0.1000 nz        1 DRE     -0.837600
      2 CAB         1.4090    0.0000   -0.0040 c3        1 DRE      0.099800
      3 CAC         1.9190    0.0000    1.4340 c3        1 DRE     -0.108400
      4 CAD         3.4380    0.0010    1.4300 c3        1 DRE     -0.078400
      5 CAE         3.9820    0.0010    2.8460 c3        1 DRE     -0.077400
      6 CAF         5.5010    0.0020    2.8360 c3        1 DRE     -0.109400
      7 CAG         6.0230    0.0020    4.2700 c3        1 DRE      0.103800
      8 NAH         7.5180    0.0020    4.3410 ny        1 DRE     -0.764000
      9 CAI         8.0160    0.0030    5.7530 c3        1 DRE      0.103800
     10 CAJ         9.5400    0.0030    5.8400 c3        1 DRE     -0.109400
     11 CAK         9.9660    0.0030    7.2980 c3        1 DRE     -0.077400
     12 CAL        11.4790    0.0040    7.4120 c3        1 DRE     -0.078400
     13 CAM        11.9120    0.0040    8.8680 c3        1 DRE     -0.108400
     14 CAN        13.4360    0.0050    8.9430 c3        1 DRE      0.099800
     15 NAO        13.9560    0.0050   10.3410 nz        1 DRE     -0.837600
     16 HAA1       -0.4690   -0.8340    0.3560 hn        1 DRE      0.469800
     17 HAA2       -0.3650   -0.0010   -1.0880 hn        1 DRE      0.469800
     18 HAB1        1.7850   -0.9170   -0.5460 hx        1 DRE      0.118700
     19 HAB2        1.7850    0.9170   -0.5460 hx        1 DRE      0.118700
     20 HAC1        1.5450    0.9070    1.9810 hc        1 DRE      0.075700
     21 HAC2        1.5460   -0.9070    1.9810 hc        1 DRE      0.075700
     22 HAD1        3.8130    0.9060    0.8820 hc        1 DRE      0.065700
     23 HAD2        3.8140   -0.9040    0.8820 hc        1 DRE      0.065700
     24 HAE1        3.6070    0.9060    3.3940 hc        1 DRE      0.065700
     25 HAE2        3.6070   -0.9050    3.3940 hc        1 DRE      0.065700
     26 HAF1        5.8700   -0.9060    2.2860 hc        1 DRE      0.074700
     27 HAF2        5.8690    0.9090    2.2860 hc        1 DRE      0.074700
     28 HAG1        5.6530    0.9180    4.8150 hx        1 DRE      0.112700
     29 HAG2        5.6530   -0.9150    4.8150 hx        1 DRE      0.112700
     30 HAH         7.8800   -0.8270    3.8540 hn        1 DRE      0.454800
     31 HAI1        7.6000   -0.9140    6.2640 hx        1 DRE      0.112700
     32 HAI2        7.5990    0.9190    6.2640 hx        1 DRE      0.112700
     33 HAJ1        9.9600    0.9100    5.3290 hc        1 DRE      0.074700
     34 HAJ2        9.9600   -0.9040    5.3290 hc        1 DRE      0.074700
     35 HAK1        9.5490    0.9090    7.8140 hc        1 DRE      0.065700
     36 HAK2        9.5500   -0.9020    7.8140 hc        1 DRE      0.065700
     37 HAL1       11.8960   -0.9010    6.8950 hc        1 DRE      0.065700
     38 HAL2       11.8950    0.9090    6.8950 hc        1 DRE      0.065700
     39 HAM1       11.4950    0.9110    9.3820 hc        1 DRE      0.075700
     40 HAM2       11.4960   -0.9030    9.3830 hc        1 DRE      0.075700
     41 HAN1       13.8470    0.9220    8.4270 hx        1 DRE      0.118700
     42 HAN2       13.8480   -0.9120    8.4270 hx        1 DRE      0.118700
     43 HAO1       14.9840    0.0050   10.3310 hn        1 DRE      0.469800
     44 HAO2       13.6300    0.8380   10.8450 hn        1 DRE      0.469800
     45 HAA3       -0.4690    0.8330    0.3560 hn        1 DRE      0.469800
     46 HAH2        7.8800    0.8320    3.8540 hn        1 DRE      0.454800
     47 HAO3       13.6310   -0.8290   10.8450 hn        1 DRE      0.469800
@<TRIPOS>BOND
     1    1    2 1   
     2    1   16 1   
     3    1   17 1   
     4    1   45 1   
     5    2    3 1   
     6    2   18 1   
     7    2   19 1   
     8    3    4 1   
     9    3   20 1   
    10    3   21 1   
    11    4    5 1   
    12    4   22 1   
    13    4   23 1   
    14    5    6 1   
    15    5   24 1   
    16    5   25 1   
    17    6    7 1   
    18    6   26 1   
    19    6   27 1   
    20    7    8 1   
    21    7   28 1   
    22    7   29 1   
    23    8    9 1   
    24    8   30 1   
    25    8   46 1   
    26    9   10 1   
    27    9   31 1   
    28    9   32 1   
    29   10   11 1   
    30   10   33 1   
    31   10   34 1   
    32   11   12 1   
    33   11   35 1   
    34   11   36 1   
    35   12   13 1   
    36   12   37 1   
    37   12   38 1   
    38   13   14 1   
    39   13   39 1   
    40   13   40 1   
    41   14   15 1   
    42   14   41 1   
    43   14   42 1   
    44   15   43 1   
    45   15   44 1   
    46   15   47 1   
@<TRIPOS>SUBSTRUCTURE
     1 DRE         1 TEMP              0 ****  ****    0 ROOT
