@<TRIPOS>MOLECULE
DRE
   47    46     1     0     0
SMALL
bcc


@<TRIPOS>ATOM
      1 NAA        -0.0800   -0.0010   -0.1000 n4        1 DRE     -0.837600
      2 CAB         1.4090    0.0000   -0.0040 c3        1 DRE      0.099800
      3 CAC         1.9190   -0.0000    1.4340 c3        1 DRE     -0.108400
      4 CAD         3.4380    0.0000    1.4300 c3        1 DRE     -0.078400
      5 CAE         3.9820    0.0010    2.8460 c3        1 DRE     -0.077400
      6 CAF         5.5010   -0.0000    2.8360 c3        1 DRE     -0.109400
      7 CAG         6.0230    0.0020    4.2700 c3        1 DRE      0.103800
      8 NAH         7.5180    0.0000    4.3400 n4        1 DRE     -0.764000
      9 CAI         8.0160    0.0040    5.7520 c3        1 DRE      0.103800
     10 CAJ         9.5400    0.0010    5.8400 c3        1 DRE     -0.109400
     11 CAK         9.9660    0.0050    7.2980 c3        1 DRE     -0.077400
     12 CAL        11.4790    0.0030    7.4120 c3        1 DRE     -0.078400
     13 CAM        11.9120    0.0070    8.8680 c3        1 DRE     -0.108400
     14 CAN        13.4360    0.0030    8.9430 c3        1 DRE      0.099800
     15 NAO        13.9560    0.0070   10.3410 n4        1 DRE     -0.837600
     16 HAA1       -0.4680   -0.8350    0.3560 hn        1 DRE      0.469800
     17 HAA2       -0.4700    0.8320    0.3580 hn        1 DRE      0.469800
     18 HAB1        1.7860   -0.9160   -0.5470 hx        1 DRE      0.118700
     19 HAB2        1.7840    0.9180   -0.5460 hx        1 DRE      0.118700
     20 HAC1        1.5460    0.9060    1.9810 hc        1 DRE      0.075700
     21 HAC2        1.5460   -0.9080    1.9800 hc        1 DRE      0.075700
     22 HAD1        3.8140   -0.9050    0.8830 hc        1 DRE      0.065700
     23 HAD2        3.8130    0.9050    0.8820 hc        1 DRE      0.065700
     24 HAE1        3.6070   -0.9040    3.3940 hc        1 DRE      0.065700
     25 HAE2        3.6080    0.9070    3.3930 hc        1 DRE      0.065700
     26 HAF1        5.8690   -0.9090    2.2870 hc        1 DRE      0.074700
     27 HAF2        5.8700    0.9060    2.2840 hc        1 DRE      0.074700
     28 HAG1        5.6540    0.9200    4.8130 hx        1 DRE      0.112700
     29 HAG2        5.6520   -0.9130    4.8170 hx        1 DRE      0.112700
     30 HAH         7.8820    0.8280    3.8510 hn        1 DRE      0.454800
     31 HAI1        7.5980   -0.9100    6.2660 hx        1 DRE      0.112700
     32 HAI2        7.6020    0.9220    6.2610 hx        1 DRE      0.112700
     33 HAJ1        9.9620    0.9060    5.3260 hc        1 DRE      0.074700
     34 HAJ2        9.9590   -0.9090    5.3320 hc        1 DRE      0.074700
     35 HAK1        9.5470   -0.8970    7.8170 hc        1 DRE      0.065700
     36 HAK2        9.5510    0.9140    7.8110 hc        1 DRE      0.065700
     37 HAL1       11.8940   -0.9060    6.8980 hc        1 DRE      0.065700
     38 HAL2       11.8980    0.9050    6.8920 hc        1 DRE      0.065700
     39 HAM1       11.4980    0.9170    9.3790 hc        1 DRE      0.075700
     40 HAM2       11.4930   -0.8970    9.3860 hc        1 DRE      0.075700
     41 HAN1       13.8450   -0.9170    8.4310 hx        1 DRE      0.118700
     42 HAN2       13.8500    0.9170    8.4240 hx        1 DRE      0.118700
     43 HAO1       14.9830    0.0040   10.3310 hn        1 DRE      0.469800
     44 HAO2       13.6280   -0.8230   10.8480 hn        1 DRE      0.469800
     45 HAA3       -0.3650    0.0000   -1.0870 hn        1 DRE      0.469800
     46 HAH2        7.8800   -0.8310    3.8560 hn        1 DRE      0.454800
     47 HAO3       13.6330    0.8430   10.8420 hn        1 DRE      0.469800
@<TRIPOS>BOND
     1    1    2 1   
     2    1   16 1   
     3    1   17 1   
     4    1   45 1   
     5    2    3 1   
     6    2   18 1   
     7    2   19 1   
     8    3    4 1   
     9    3   20 1   
    10    3   21 1   
    11    4    5 1   
    12    4   22 1   
    13    4   23 1   
    14    5    6 1   
    15    5   24 1   
    16    5   25 1   
    17    6    7 1   
    18    6   26 1   
    19    6   27 1   
    20    7    8 1   
    21    7   28 1   
    22    7   29 1   
    23    8    9 1   
    24    8   30 1   
    25    8   46 1   
    26    9   10 1   
    27    9   31 1   
    28    9   32 1   
    29   10   11 1   
    30   10   33 1   
    31   10   34 1   
    32   11   12 1   
    33   11   35 1   
    34   11   36 1   
    35   12   13 1   
    36   12   37 1   
    37   12   38 1   
    38   13   14 1   
    39   13   39 1   
    40   13   40 1   
    41   14   15 1   
    42   14   41 1   
    43   14   42 1   
    44   15   43 1   
    45   15   44 1   
    46   15   47 1   
@<TRIPOS>SUBSTRUCTURE
     1 DRE         1 TEMP              0 ****  ****    0 ROOT
