@<TRIPOS>MOLECULE
DRF
   55    58     1     0     0
SMALL
bcc


@<TRIPOS>ATOM
      1 O45         0.2860    0.2350   -0.0360 o         1 DRF     -0.836300
      2 C44         1.1540   -0.6500    0.1960 c         1 DRF      0.901600
      3 O55         1.1530   -1.8010   -0.3270 o         1 DRF     -0.836300
      4 C41         2.2770   -0.3440    1.2280 c3        1 DRF      0.026100
      5 O46         3.5650   -0.2070    0.6040 os        1 DRF     -0.445600
      6 C48         4.0630   -1.4300    0.0700 c3        1 DRF      0.117400
      7 C49         5.2940   -1.0870   -0.7390 c3        1 DRF     -0.091100
      8 C40         2.0310    0.9760    1.9520 c3        1 DRF     -0.042100
      9 C33         2.6110    1.0250    3.3200 ca        1 DRF     -0.065300
     10 C34         3.9500    0.6650    3.5380 ca        1 DRF     -0.108500
     11 C35         4.5070    0.7180    4.8100 ca        1 DRF     -0.177000
     12 C30         3.7120    1.1450    5.8870 ca        1 DRF      0.083100
     13 O27         4.3600    1.2050    7.1160 os        1 DRF     -0.342900
     14 C24         3.4980    1.1450    8.2540 c3        1 DRF      0.099400
     15 C23         4.3910    0.7510    9.4410 c3        1 DRF      0.007300
     16 N22         4.8430    1.8140   10.3250 na        1 DRF     -0.112100
     17 C11         3.8140    2.5300   11.0020 ca        1 DRF     -0.084600
     18 C16         3.8140    3.9460   11.0600 ca        1 DRF      0.296000
     19 O21         4.7630    4.7270   10.4080 os        1 DRF     -0.405800
     20 C4          5.8750    4.0320    9.9350 ca        1 DRF      0.296000
     21 C3          5.9200    2.6190    9.8550 ca        1 DRF     -0.084600
     22 C2          7.1090    2.0370    9.3700 ca        1 DRF     -0.118000
     23 C1          8.1760    2.8370    8.9670 ca        1 DRF     -0.135500
     24 C6          8.1000    4.2260    9.0430 ca        1 DRF     -0.127000
     25 C5          6.9490    4.8340    9.5370 ca        1 DRF     -0.194300
     26 C15         2.8450    4.6570   11.7750 ca        1 DRF     -0.194300
     27 C14         1.8490    3.9560   12.4490 ca        1 DRF     -0.127000
     28 C13         1.8350    2.5640   12.4180 ca        1 DRF     -0.135500
     29 C12         2.8020    1.8530   11.7110 ca        1 DRF     -0.118000
     30 C31         2.3790    1.5140    5.6900 ca        1 DRF     -0.177000
     31 C32         1.8380    1.4470    4.4060 ca        1 DRF     -0.108500
     32 H41         2.3250   -1.1960    1.9620 h1        1 DRF      0.021700
     33 H481        4.3280   -2.1150    0.9210 h1        1 DRF      0.046200
     34 H482        3.2780   -1.9240   -0.5670 h1        1 DRF      0.046200
     35 H491        5.0260   -0.3980   -1.5740 hc        1 DRF      0.025367
     36 H492        6.0590   -0.5830   -0.1010 hc        1 DRF      0.025367
     37 H493        5.7320   -2.0220   -1.1630 hc        1 DRF      0.025367
     38 H401        0.9190    1.1420    1.9830 hc        1 DRF      0.076200
     39 H402        2.4740    1.8070    1.3380 hc        1 DRF      0.076200
     40 H34         4.5500    0.3260    2.6760 ha        1 DRF      0.148500
     41 H35         5.5540    0.4370    4.9850 ha        1 DRF      0.126500
     42 H241        2.7090    0.3630    8.1010 h1        1 DRF      0.048200
     43 H242        3.0090    2.1430    8.3990 h1        1 DRF      0.048200
     44 H231        3.8170    0.0210   10.0780 h1        1 DRF      0.069700
     45 H232        5.3010    0.2220    9.0380 h1        1 DRF      0.069700
     46 H2          7.2030    0.9430    9.2960 ha        1 DRF      0.141000
     47 H1          9.0880    2.3580    8.5790 ha        1 DRF      0.132500
     48 H6          8.9450    4.8460    8.7130 ha        1 DRF      0.133000
     49 H5          6.8630    5.9270    9.6070 ha        1 DRF      0.148500
     50 H15         2.8800    5.7560   11.7840 ha        1 DRF      0.148500
     51 H14         1.0760    4.5060   13.0050 ha        1 DRF      0.133000
     52 H13         1.0510    2.0120   12.9580 ha        1 DRF      0.132500
     53 H12         2.7680    0.7530   11.7160 ha        1 DRF      0.141000
     54 H31         1.7580    1.8550    6.5290 ha        1 DRF      0.126500
     55 H32         0.7860    1.7290    4.2470 ha        1 DRF      0.148500
@<TRIPOS>BOND
     1    1    2 1   
     2    2    3 1   
     3    2    4 1   
     4    4    5 1   
     5    4    8 1   
     6    4   32 1   
     7    5    6 1   
     8    6    7 1   
     9    6   33 1   
    10    6   34 1   
    11    7   35 1   
    12    7   36 1   
    13    7   37 1   
    14    8    9 1   
    15    8   38 1   
    16    8   39 1   
    17    9   10 ar  
    18    9   31 ar  
    19   10   11 ar  
    20   10   40 1   
    21   11   12 ar  
    22   11   41 1   
    23   12   13 1   
    24   12   30 ar  
    25   13   14 1   
    26   14   15 1   
    27   14   42 1   
    28   14   43 1   
    29   15   16 1   
    30   15   44 1   
    31   15   45 1   
    32   16   17 1   
    33   16   21 1   
    34   17   18 ar  
    35   17   29 ar  
    36   18   19 1   
    37   18   26 ar  
    38   19   20 1   
    39   20   21 ar  
    40   20   25 ar  
    41   21   22 ar  
    42   22   23 ar  
    43   22   46 1   
    44   23   24 ar  
    45   23   47 1   
    46   24   25 ar  
    47   24   48 1   
    48   25   49 1   
    49   26   27 ar  
    50   26   50 1   
    51   27   28 ar  
    52   27   51 1   
    53   28   29 ar  
    54   28   52 1   
    55   29   53 1   
    56   30   31 ar  
    57   30   54 1   
    58   31   55 1   
@<TRIPOS>SUBSTRUCTURE
     1 DRF         1 TEMP              0 ****  ****    0 ROOT
