@<TRIPOS>MOLECULE
DRF
   55    52     1     0     0
SMALL
bcc


@<TRIPOS>ATOM
      1 O45        -0.8440   -3.0220   -4.9350 o         1 DRF     -0.570500
      2 C44        -1.5290   -2.1360   -5.5120 c2        1 DRF      0.318000
      3 O55        -2.5940   -2.4480   -6.1000 o         1 DRF     -0.570500
      4 C41        -1.0520   -0.7160   -5.5310 c3        1 DRF     -0.039000
      5 O46        -1.1330   -0.2000   -6.8700 os        1 DRF     -0.296000
      6 C48        -0.1360   -0.7420   -7.7680 c3        1 DRF     -0.020000
      7 C49        -0.6870   -0.7600   -9.1960 c3        1 DRF     -0.214000
      8 C40        -1.9150    0.1110   -4.6240 c3        1 DRF     -0.150000
      9 C33        -1.2070    0.2990   -3.2750 c2        1 DRF     -0.061000
     10 C34        -0.7580    1.5480   -2.9000 c1        1 DRF     -0.122000
     11 C35        -0.0910    1.7160   -1.6760 c1        1 DRF     -0.162000
     12 C30         0.1160    0.6250   -0.8430 c1        1 DRF      0.034000
     13 O27         0.8970    0.7780    0.3660 o         1 DRF     -0.226000
     14 C24         0.1050    0.7890    1.5870 c3        1 DRF     -0.052000
     15 C23         0.8930    0.0940    2.7150 c3        1 DRF     -0.069000
     16 N22         0.5920    0.7330    3.9780 na        1 DRF     -0.196000
     17 C11         1.8160    1.0850    4.6380 c2        1 DRF      0.032500
     18 C16         2.0840    0.5930    5.8990 c2        1 DRF      0.024500
     19 O21         1.0960   -0.1870    6.5910 os        1 DRF     -0.150000
     20 C4         -0.1630   -0.4700    5.9620 c2        1 DRF      0.024500
     21 C3         -0.4080   -0.0260    4.6770 c2        1 DRF      0.032500
     22 C2         -1.6450   -0.2800    4.0740 c1        1 DRF     -0.152500
     23 C1         -2.6240   -0.9780    4.7670 c1        1 DRF     -0.131250
     24 C6         -2.3790   -1.4250    6.0590 c1        1 DRF     -0.131250
     25 C5         -1.1530   -1.1750    6.6600 c1        1 DRF     -0.123500
     26 C15         3.3410    0.8140    6.4860 c1        1 DRF     -0.123500
     27 C14         4.3180    1.5290    5.7950 c1        1 DRF     -0.131250
     28 C13         4.0470    2.0250    4.5200 c1        1 DRF     -0.131250
     29 C12         2.8020    1.8070    3.9390 c1        1 DRF     -0.152500
     30 C31        -0.3380   -0.6360   -1.2220 c2        1 DRF     -0.194000
     31 C32        -0.9980   -0.8020   -2.4350 c2        1 DRF     -0.095000
     32 H41        -0.1370   -0.6800   -5.2260 h1        1 DRF      0.102000
     33 H481        0.0880   -1.6550   -7.4940 h1        1 DRF      0.088500
     34 H482        0.6700   -0.1850   -7.7360 h1        1 DRF      0.088500
     35 H491       -1.6060   -1.1070   -9.1870 hc        1 DRF      0.062667
     36 H492       -0.1200   -1.3420   -9.7600 hc        1 DRF      0.062667
     37 H493       -0.6850    0.1510   -9.5600 hc        1 DRF      0.062667
     38 H401       -2.0750    0.9900   -5.0350 hc        1 DRF      0.093000
     39 H402       -2.7710   -0.3450   -4.4830 hc        1 DRF      0.093000
     40 H34        -0.8620    2.3110   -3.5120 ha        1 DRF      0.123000
     41 H35         0.3120    2.5710   -1.4610 ha        1 DRF      0.129000
     42 H241       -0.0860    1.7200    1.8460 h1        1 DRF      0.099000
     43 H242       -0.7420    0.3110    1.4340 h1        1 DRF      0.099000
     44 H231        0.6430   -0.8380    2.7570 h1        1 DRF      0.115500
     45 H232        1.8500    0.1670    2.5350 h1        1 DRF      0.115500
     46 H2         -1.8410    0.0880    3.1940 ha        1 DRF      0.150500
     47 H1         -3.4820   -1.1540    4.3480 ha        1 DRF      0.135500
     48 H6         -3.0760   -1.9210    6.5500 ha        1 DRF      0.135500
     49 H5         -1.0160   -1.4060    7.5850 ha        1 DRF      0.145000
     50 H15         3.5320    0.4630    7.3870 ha        1 DRF      0.145000
     51 H14         5.1660    1.7320    6.2250 ha        1 DRF      0.135500
     52 H13         4.7250    2.5220    4.0400 ha        1 DRF      0.135500
     53 H12         2.6110    2.1560    3.0420 ha        1 DRF      0.150500
     54 H31        -0.2310   -1.3980   -0.6150 ha        1 DRF      0.122000
     55 H32        -1.3190   -1.6920   -2.7030 ha        1 DRF      0.210000
@<TRIPOS>BOND
     1    1    2 1   
     2    2    3 1   
     3    2    4 1   
     4    4    5 1   
     5    4    8 1   
     6    4   32 1   
     7    5    6 1   
     8    6    7 1   
     9    6   33 1   
    10    6   34 1   
    11    7   35 1   
    12    7   36 1   
    13    7   37 1   
    14    8    9 1   
    15    8   38 1   
    16    8   39 1   
    17    9   10 1   
    18    9   31 1   
    19   10   40 1   
    20   11   12 1   
    21   11   41 1   
    22   12   30 1   
    23   13   14 1   
    24   14   15 1   
    25   14   42 1   
    26   14   43 1   
    27   15   16 1   
    28   15   44 1   
    29   15   45 1   
    30   16   17 1   
    31   16   21 1   
    32   17   18 1   
    33   17   29 1   
    34   18   19 1   
    35   18   26 1   
    36   19   20 1   
    37   20   21 1   
    38   20   25 1   
    39   21   22 1   
    40   22   46 1   
    41   23   24 1   
    42   23   47 1   
    43   24   48 1   
    44   25   49 1   
    45   26   50 1   
    46   27   28 1   
    47   27   51 1   
    48   28   52 1   
    49   29   53 1   
    50   30   31 1   
    51   30   54 1   
    52   31   55 1   
@<TRIPOS>SUBSTRUCTURE
     1 DRF         1 TEMP              0 ****  ****    0 ROOT
