@<TRIPOS>MOLECULE
DRF
   55    58     1     0     0
SMALL
bcc


@<TRIPOS>ATOM
      1 O45         0.2690    0.1910   -0.0150 o         1 DRF     -0.836300
      2 C44         1.1600   -0.6740    0.2070 c         1 DRF      0.901600
      3 O55         1.1850   -1.8210   -0.3260 o         1 DRF     -0.836300
      4 C41         2.2790   -0.3490    1.2370 c3        1 DRF      0.026100
      5 O46         3.5600   -0.1760    0.6090 os        1 DRF     -0.445600
      6 C48         4.0860   -1.3810    0.0640 c3        1 DRF      0.117400
      7 C49         5.3060   -1.0020   -0.7480 c3        1 DRF     -0.091100
      8 C40         2.0030    0.9590    1.9720 c3        1 DRF     -0.042100
      9 C33         2.5860    1.0110    3.3390 ca        1 DRF     -0.066300
     10 C34         3.9350    0.6820    3.5500 ca        1 DRF     -0.108500
     11 C35         4.4940    0.7380    4.8200 ca        1 DRF     -0.177000
     12 C30         3.6930    1.1370    5.9030 ca        1 DRF      0.083100
     13 O27         4.3430    1.2020    7.1300 os        1 DRF     -0.342900
     14 C24         3.4870    1.1170    8.2700 c3        1 DRF      0.099400
     15 C23         4.3900    0.7350    9.4530 c3        1 DRF      0.007300
     16 N22         4.8470    1.8060   10.3250 na        1 DRF     -0.112100
     17 C11         3.8210    2.5330   10.9940 ca        1 DRF     -0.083600
     18 C16         3.8270    3.9490   11.0390 ca        1 DRF      0.297000
     19 O21         4.7800    4.7210   10.3810 os        1 DRF     -0.405800
     20 C4          5.8890    4.0160    9.9140 ca        1 DRF      0.297000
     21 C3          5.9280    2.6020    9.8470 ca        1 DRF     -0.083600
     22 C2          7.1130    2.0100    9.3680 ca        1 DRF     -0.118500
     23 C1          8.1840    2.8000    8.9580 ca        1 DRF     -0.135500
     24 C6          8.1150    4.1900    9.0200 ca        1 DRF     -0.127000
     25 C5          6.9670    4.8080    9.5080 ca        1 DRF     -0.193800
     26 C15         2.8610    4.6720   11.7460 ca        1 DRF     -0.193800
     27 C14         1.8600    3.9820   12.4250 ca        1 DRF     -0.127000
     28 C13         1.8400    2.5900   12.4080 ca        1 DRF     -0.135500
     29 C12         2.8040    1.8680   11.7080 ca        1 DRF     -0.118500
     30 C31         2.3510    1.4760    5.7130 ca        1 DRF     -0.177000
     31 C32         1.8070    1.4070    4.4300 ca        1 DRF     -0.108500
     32 H41         2.3500   -1.2050    1.9640 h1        1 DRF      0.021700
     33 H481        4.3720   -2.0650    0.9090 h1        1 DRF      0.046200
     34 H482        3.3120   -1.8900   -0.5730 h1        1 DRF      0.046200
     35 H491        6.0600   -0.4830   -0.1100 hc        1 DRF      0.025367
     36 H492        5.0160   -0.3140   -1.5770 hc        1 DRF      0.025367
     37 H493        5.7650   -1.9220   -1.1800 hc        1 DRF      0.025367
     38 H401        0.8880    1.0970    2.0090 hc        1 DRF      0.076200
     39 H402        2.4230    1.8050    1.3630 hc        1 DRF      0.076200
     40 H34         4.5390    0.3640    2.6820 ha        1 DRF      0.148000
     41 H35         5.5480    0.4810    4.9900 ha        1 DRF      0.127000
     42 H241        2.9760    2.1030    8.4230 h1        1 DRF      0.048200
     43 H242        2.7140    0.3180    8.1150 h1        1 DRF      0.048200
     44 H231        3.8230    0.0090   10.1000 h1        1 DRF      0.069700
     45 H232        5.2980    0.2050    9.0470 h1        1 DRF      0.069700
     46 H2          7.2030    0.9140    9.3060 ha        1 DRF      0.140500
     47 H1          9.0940    2.3140    8.5750 ha        1 DRF      0.132500
     48 H6          8.9630    4.8030    8.6840 ha        1 DRF      0.133000
     49 H5          6.8860    5.9030    9.5680 ha        1 DRF      0.148500
     50 H15         2.9020    5.7710   11.7460 ha        1 DRF      0.148500
     51 H14         1.0900    4.5420   12.9760 ha        1 DRF      0.133000
     52 H13         1.0520    2.0470   12.9520 ha        1 DRF      0.132500
     53 H12         2.7640    0.7690   11.7220 ha        1 DRF      0.140500
     54 H31         1.7240    1.7950    6.5560 ha        1 DRF      0.127000
     55 H32         0.7480    1.6640    4.2770 ha        1 DRF      0.148000
@<TRIPOS>BOND
     1    1    2 1   
     2    2    3 1   
     3    2    4 1   
     4    4    5 1   
     5    4    8 1   
     6    4   32 1   
     7    5    6 1   
     8    6    7 1   
     9    6   33 1   
    10    6   34 1   
    11    7   35 1   
    12    7   36 1   
    13    7   37 1   
    14    8    9 1   
    15    8   38 1   
    16    8   39 1   
    17    9   10 ar  
    18    9   31 ar  
    19   10   11 ar  
    20   10   40 1   
    21   11   12 ar  
    22   11   41 1   
    23   12   13 1   
    24   12   30 ar  
    25   13   14 1   
    26   14   15 1   
    27   14   42 1   
    28   14   43 1   
    29   15   16 1   
    30   15   44 1   
    31   15   45 1   
    32   16   17 1   
    33   16   21 1   
    34   17   18 ar  
    35   17   29 ar  
    36   18   19 1   
    37   18   26 ar  
    38   19   20 1   
    39   20   21 ar  
    40   20   25 ar  
    41   21   22 ar  
    42   22   23 ar  
    43   22   46 1   
    44   23   24 ar  
    45   23   47 1   
    46   24   25 ar  
    47   24   48 1   
    48   25   49 1   
    49   26   27 ar  
    50   26   50 1   
    51   27   28 ar  
    52   27   51 1   
    53   28   29 ar  
    54   28   52 1   
    55   29   53 1   
    56   30   31 ar  
    57   30   54 1   
    58   31   55 1   
@<TRIPOS>SUBSTRUCTURE
     1 DRF         1 TEMP              0 ****  ****    0 ROOT
