@<TRIPOS>MOLECULE
DRF
   55    58     1     0     0
SMALL
bcc


@<TRIPOS>ATOM
      1 O45         0.2100    0.0510    0.0790 o         1 DRF     -0.835300
      2 C44         1.1590   -0.7620    0.2520 c         1 DRF      0.897600
      3 O55         1.2390   -1.8920   -0.3090 o         1 DRF     -0.835300
      4 C41         2.2900   -0.3930    1.2540 c3        1 DRF      0.025100
      5 O46         3.5630   -0.2030    0.6200 os        1 DRF     -0.454600
      6 C48         3.9110   -1.2490   -0.2840 c3        1 DRF      0.133400
      7 C49         5.3960   -1.1260   -0.5480 c3        1 DRF     -0.096100
      8 C40         1.9950    0.9120    1.9870 c3        1 DRF     -0.042100
      9 C33         2.5860    0.9780    3.3500 ca        1 DRF     -0.065300
     10 C34         3.9340    0.6470    3.5580 ca        1 DRF     -0.107500
     11 C35         4.5000    0.7170    4.8250 ca        1 DRF     -0.177500
     12 C30         3.7060    1.1340    5.9070 ca        1 DRF      0.083100
     13 O27         4.3620    1.2130    7.1300 os        1 DRF     -0.342900
     14 C24         3.5110    1.1330    8.2750 c3        1 DRF      0.099400
     15 C23         4.4210    0.7590    9.4550 c3        1 DRF      0.007300
     16 N22         4.8680    1.8330   10.3280 na        1 DRF     -0.112100
     17 C11         3.8370    2.5430   11.0070 ca        1 DRF     -0.084100
     18 C16         3.8240    3.9590   11.0570 ca        1 DRF      0.296000
     19 O21         4.7620    4.7460   10.3950 os        1 DRF     -0.405800
     20 C4          5.8770    4.0580    9.9180 ca        1 DRF      0.296000
     21 C3          5.9350    2.6450    9.8450 ca        1 DRF     -0.084100
     22 C2          7.1250    2.0710    9.3550 ca        1 DRF     -0.118000
     23 C1          8.1820    2.8780    8.9410 ca        1 DRF     -0.135500
     24 C6          8.0940    4.2660    9.0090 ca        1 DRF     -0.127000
     25 C5          6.9410    4.8670    9.5070 ca        1 DRF     -0.194300
     26 C15         2.8530    4.6660   11.7740 ca        1 DRF     -0.194300
     27 C14         1.8670    3.9600   12.4580 ca        1 DRF     -0.127000
     28 C13         1.8660    2.5670   12.4350 ca        1 DRF     -0.135500
     29 C12         2.8350    1.8620   11.7260 ca        1 DRF     -0.118000
     30 C31         2.3630    1.4740    5.7200 ca        1 DRF     -0.177500
     31 C32         1.8130    1.3900    4.4400 ca        1 DRF     -0.107500
     32 H41         2.3950   -1.2440    1.9840 h1        1 DRF      0.020700
     33 H481        3.6560   -2.2470    0.1620 h1        1 DRF      0.050700
     34 H482        3.3150   -1.1270   -1.2280 h1        1 DRF      0.050700
     35 H491        5.7090   -1.9120   -1.2740 hc        1 DRF      0.022700
     36 H492        5.9760   -1.2510    0.3970 hc        1 DRF      0.022700
     37 H493        5.6340   -0.1220   -0.9730 hc        1 DRF      0.022700
     38 H401        0.8780    1.0300    2.0310 hc        1 DRF      0.075700
     39 H402        2.3970    1.7650    1.3750 hc        1 DRF      0.075700
     40 H34         4.5350    0.3160    2.6930 ha        1 DRF      0.149000
     41 H35         5.5540    0.4590    4.9930 ha        1 DRF      0.126500
     42 H241        2.7380    0.3340    8.1280 h1        1 DRF      0.048200
     43 H242        3.0010    2.1200    8.4250 h1        1 DRF      0.048200
     44 H231        3.8630    0.0250   10.1020 h1        1 DRF      0.069700
     45 H232        5.3330    0.2380    9.0460 h1        1 DRF      0.069700
     46 H2          7.2290    0.9780    9.2870 ha        1 DRF      0.141000
     47 H1          9.0950    2.4050    8.5490 ha        1 DRF      0.132500
     48 H6          8.9310    4.8920    8.6690 ha        1 DRF      0.133000
     49 H5          6.8450    5.9600    9.5720 ha        1 DRF      0.148000
     50 H15         2.8790    5.7650   11.7770 ha        1 DRF      0.148000
     51 H14         1.0930    4.5060   13.0150 ha        1 DRF      0.133000
     52 H13         1.0900    2.0110   12.9830 ha        1 DRF      0.132500
     53 H12         2.8100    0.7610   11.7370 ha        1 DRF      0.141000
     54 H31         1.7420    1.8060    6.5620 ha        1 DRF      0.126500
     55 H32         0.7540    1.6490    4.2880 ha        1 DRF      0.149000
@<TRIPOS>BOND
     1    1    2 1   
     2    2    3 1   
     3    2    4 1   
     4    4    5 1   
     5    4    8 1   
     6    4   32 1   
     7    5    6 1   
     8    6    7 1   
     9    6   33 1   
    10    6   34 1   
    11    7   35 1   
    12    7   36 1   
    13    7   37 1   
    14    8    9 1   
    15    8   38 1   
    16    8   39 1   
    17    9   10 ar  
    18    9   31 ar  
    19   10   11 ar  
    20   10   40 1   
    21   11   12 ar  
    22   11   41 1   
    23   12   13 1   
    24   12   30 ar  
    25   13   14 1   
    26   14   15 1   
    27   14   42 1   
    28   14   43 1   
    29   15   16 1   
    30   15   44 1   
    31   15   45 1   
    32   16   17 1   
    33   16   21 1   
    34   17   18 ar  
    35   17   29 ar  
    36   18   19 1   
    37   18   26 ar  
    38   19   20 1   
    39   20   21 ar  
    40   20   25 ar  
    41   21   22 ar  
    42   22   23 ar  
    43   22   46 1   
    44   23   24 ar  
    45   23   47 1   
    46   24   25 ar  
    47   24   48 1   
    48   25   49 1   
    49   26   27 ar  
    50   26   50 1   
    51   27   28 ar  
    52   27   51 1   
    53   28   29 ar  
    54   28   52 1   
    55   29   53 1   
    56   30   31 ar  
    57   30   54 1   
    58   31   55 1   
@<TRIPOS>SUBSTRUCTURE
     1 DRF         1 TEMP              0 ****  ****    0 ROOT
