@<TRIPOS>MOLECULE
DRF
   55    58     1     0     0
SMALL
bcc


@<TRIPOS>ATOM
      1 O45        -2.0120    0.8860   -7.0470 o         1 DRF     -0.836300
      2 C44        -1.2230   -0.0910   -6.9330 c         1 DRF      0.901600
      3 O55        -1.1080   -1.0150   -7.7880 o         1 DRF     -0.836300
      4 C41        -0.3650   -0.2130   -5.6410 c3        1 DRF      0.026100
      5 O46         1.0320    0.0150   -5.8940 os        1 DRF     -0.445600
      6 C48         1.6350   -1.0110   -6.6750 c3        1 DRF      0.117400
      7 C49         3.0200   -0.5270   -7.0430 c3        1 DRF     -0.091100
      8 C40        -0.7670    0.8270   -4.5990 c3        1 DRF     -0.042100
      9 C33        -0.5150    0.3980   -3.1980 ca        1 DRF     -0.065300
     10 C34         0.7380   -0.1130   -2.8250 ca        1 DRF     -0.108500
     11 C35         0.9890   -0.5060   -1.5160 ca        1 DRF     -0.177000
     12 C30        -0.0300   -0.3800   -0.5570 ca        1 DRF      0.083100
     13 O27         0.3190   -0.7600    0.7340 os        1 DRF     -0.342900
     14 C24        -0.7800   -1.1100    1.5770 c3        1 DRF      0.099400
     15 C23        -0.1830   -1.9240    2.7350 c3        1 DRF      0.007300
     16 N22         0.0540   -1.2320    3.9920 na        1 DRF     -0.112100
     17 C11        -1.1020   -0.6940    4.6250 ca        1 DRF     -0.084600
     18 C16        -1.1170    0.6260    5.1390 ca        1 DRF      0.296000
     19 O21        -0.0440    1.5020    4.9980 os        1 DRF     -0.405800
     20 C4          1.1470    0.9120    4.5780 ca        1 DRF      0.296000
     21 C3          1.2100   -0.4020    4.0540 ca        1 DRF     -0.084600
     22 C2          2.4780   -0.8860    3.6750 ca        1 DRF     -0.118000
     23 C1          3.6090   -0.0820    3.7960 ca        1 DRF     -0.135500
     24 C6          3.5170    1.2130    4.3000 ca        1 DRF     -0.127000
     25 C5          2.2830    1.7170    4.7040 ca        1 DRF     -0.194300
     26 C15        -2.2240    1.1450    5.8190 ca        1 DRF     -0.194300
     27 C14        -3.3480    0.3420    5.9960 ca        1 DRF     -0.127000
     28 C13        -3.3530   -0.9640    5.5120 ca        1 DRF     -0.135500
     29 C12        -2.2500   -1.4840    4.8400 ca        1 DRF     -0.118000
     30 C31        -1.2820    0.1320   -0.9060 ca        1 DRF     -0.177000
     31 C32        -1.5160    0.5150   -2.2280 ca        1 DRF     -0.108500
     32 H41        -0.4890   -1.2530   -5.2310 h1        1 DRF      0.021700
     33 H481        1.0160   -1.2180   -7.5910 h1        1 DRF      0.046200
     34 H482        1.6970   -1.9480   -6.0550 h1        1 DRF      0.046200
     35 H491        3.5410   -1.3110   -7.6420 hc        1 DRF      0.025367
     36 H492        2.9520    0.4090   -7.6470 hc        1 DRF      0.025367
     37 H493        3.6200   -0.3090   -6.1280 hc        1 DRF      0.025367
     38 H401       -1.8560    1.0590   -4.7560 hc        1 DRF      0.076200
     39 H402       -0.1930    1.7730   -4.8000 hc        1 DRF      0.076200
     40 H34         1.5180   -0.2080   -3.6000 ha        1 DRF      0.148500
     41 H35         1.9670   -0.9070   -1.2200 ha        1 DRF      0.127000
     42 H241       -1.5150   -1.7420    1.0120 h1        1 DRF      0.048200
     43 H242       -1.2880   -0.1740    1.9280 h1        1 DRF      0.048200
     44 H231        0.7940   -2.3660    2.3890 h1        1 DRF      0.069700
     45 H232       -0.8890   -2.7740    2.9590 h1        1 DRF      0.069700
     46 H2          2.5870   -1.9050    3.2720 ha        1 DRF      0.141000
     47 H1          4.5850   -0.4790    3.4800 ha        1 DRF      0.132500
     48 H6          4.4150    1.8410    4.3810 ha        1 DRF      0.133000
     49 H5          2.1830    2.7350    5.1060 ha        1 DRF      0.148500
     50 H15        -2.1920    2.1780    6.1920 ha        1 DRF      0.148500
     51 H14        -4.2270    0.7440    6.5190 ha        1 DRF      0.133000
     52 H13        -4.2390   -1.5990    5.6600 ha        1 DRF      0.132500
     53 H12        -2.2840   -2.5220    4.4790 ha        1 DRF      0.141000
     54 H31        -2.0780    0.2380   -0.1580 ha        1 DRF      0.127000
     55 H32        -2.5020    0.9120   -2.5100 ha        1 DRF      0.148500
@<TRIPOS>BOND
     1    1    2 1   
     2    2    3 1   
     3    2    4 1   
     4    4    5 1   
     5    4    8 1   
     6    4   32 1   
     7    5    6 1   
     8    6    7 1   
     9    6   33 1   
    10    6   34 1   
    11    7   35 1   
    12    7   36 1   
    13    7   37 1   
    14    8    9 1   
    15    8   38 1   
    16    8   39 1   
    17    9   10 ar  
    18    9   31 ar  
    19   10   11 ar  
    20   10   40 1   
    21   11   12 ar  
    22   11   41 1   
    23   12   13 1   
    24   12   30 ar  
    25   13   14 1   
    26   14   15 1   
    27   14   42 1   
    28   14   43 1   
    29   15   16 1   
    30   15   44 1   
    31   15   45 1   
    32   16   17 1   
    33   16   21 1   
    34   17   18 ar  
    35   17   29 ar  
    36   18   19 1   
    37   18   26 ar  
    38   19   20 1   
    39   20   21 ar  
    40   20   25 ar  
    41   21   22 ar  
    42   22   23 ar  
    43   22   46 1   
    44   23   24 ar  
    45   23   47 1   
    46   24   25 ar  
    47   24   48 1   
    48   25   49 1   
    49   26   27 ar  
    50   26   50 1   
    51   27   28 ar  
    52   27   51 1   
    53   28   29 ar  
    54   28   52 1   
    55   29   53 1   
    56   30   31 ar  
    57   30   54 1   
    58   31   55 1   
@<TRIPOS>SUBSTRUCTURE
     1 DRF         1 TEMP              0 ****  ****    0 ROOT
