@<TRIPOS>MOLECULE
DRG
   26    28     1     0     0
SMALL
bcc


@<TRIPOS>ATOM
      1 C4         -0.9670   -0.1850    2.4000 ca        1 DRG     -0.274300
      2 C14        -0.9290   -0.1830    1.0070 ca        1 DRG     -0.095600
      3 C5         -2.1570   -0.3800    0.1990 c3        1 DRG     -0.038100
      4 C6         -2.0910    0.3590   -1.1240 c3        1 DRG     -0.034100
      5 C11        -0.7950    0.1570   -1.8260 ca        1 DRG     -0.070300
      6 C7         -0.7530    0.1580   -3.2220 ca        1 DRG     -0.134000
      7 C8          0.4590    0.0000   -3.8930 ca        1 DRG     -0.121000
      8 C9          1.6390   -0.1610   -3.1680 ca        1 DRG     -0.138000
      9 C10         1.6110   -0.1640   -1.7740 ca        1 DRG     -0.092000
     10 C12         0.3980   -0.0040   -1.0920 ca        1 DRG     -0.123500
     11 C13         0.3290   -0.0090    0.3710 ca        1 DRG      0.343800
     12 N1          1.4680    0.1590    1.1270 nb        1 DRG     -0.270000
     13 N2          1.4540    0.1600    2.3850 nb        1 DRG     -0.360000
     14 C3          0.2630   -0.0210    3.1030 ca        1 DRG      0.570200
     15 N3          0.3020   -0.1160    4.4910 nh        1 DRG     -0.922500
     16 HC4        -1.9150   -0.3180    2.9370 ha        1 DRG      0.147000
     17 HC51       -2.2810   -1.4820    0.0090 hc        1 DRG      0.060700
     18 HC52       -3.0600   -0.0370    0.7710 hc        1 DRG      0.060700
     19 HC61       -2.9410    0.0180   -1.7740 hc        1 DRG      0.055700
     20 HC62       -2.2300    1.4610   -0.9460 hc        1 DRG      0.055700
     21 HC7        -1.6840    0.2850   -3.7940 ha        1 DRG      0.131000
     22 HC8         0.4820    0.0020   -4.9920 ha        1 DRG      0.132000
     23 HC9         2.5960   -0.2860   -3.6950 ha        1 DRG      0.134000
     24 H10C        2.5510   -0.2920   -1.2140 ha        1 DRG      0.154000
     25 HN31        1.1410    0.1830    4.9360 hn        1 DRG      0.412800
     26 HN32       -0.5370    0.1510    4.9510 hn        1 DRG      0.412800
@<TRIPOS>BOND
     1    1    2 ar  
     2    1   14 ar  
     3    1   16 1   
     4    2    3 1   
     5    2   11 ar  
     6    3    4 1   
     7    3   17 1   
     8    3   18 1   
     9    4    5 1   
    10    4   19 1   
    11    4   20 1   
    12    5    6 ar  
    13    5   10 ar  
    14    6    7 ar  
    15    6   21 1   
    16    7    8 ar  
    17    7   22 1   
    18    8    9 ar  
    19    8   23 1   
    20    9   10 ar  
    21    9   24 1   
    22   10   11 1   
    23   11   12 ar  
    24   12   13 ar  
    25   13   14 ar  
    26   14   15 1   
    27   15   25 1   
    28   15   26 1   
@<TRIPOS>SUBSTRUCTURE
     1 DRG         1 TEMP              0 ****  ****    0 ROOT
