@<TRIPOS>MOLECULE
DRG
   26    28     1     0     0
SMALL
bcc


@<TRIPOS>ATOM
      1 C4         -0.0190   -0.0090    0.0290 ca        1 DRG     -0.274300
      2 C14         1.3740   -0.0360    0.0280 ca        1 DRG     -0.095600
      3 C5          2.1470   -0.1100    1.2920 c3        1 DRG     -0.038100
      4 C6          3.4590   -0.8490    1.1130 c3        1 DRG     -0.034100
      5 C11         4.2030   -0.4050   -0.0960 ca        1 DRG     -0.070300
      6 C7          5.6000   -0.4290   -0.1010 ca        1 DRG     -0.134000
      7 C8          6.3100   -0.0440   -1.2360 ca        1 DRG     -0.121000
      8 C9          5.6250    0.3690   -2.3780 ca        1 DRG     -0.138000
      9 C10         4.2310    0.3980   -2.3880 ca        1 DRG     -0.092000
     10 C12         3.5090    0.0110   -1.2510 ca        1 DRG     -0.123500
     11 C13         2.0450    0.0350   -1.2220 ca        1 DRG      0.343800
     12 N1          1.3220    0.1180   -2.3910 nb        1 DRG     -0.270000
     13 N2          0.0640    0.1420   -2.4110 nb        1 DRG     -0.360000
     14 C3         -0.6870    0.0950   -1.2270 ca        1 DRG      0.570200
     15 N3         -2.0710    0.2270   -1.2840 nv        1 DRG     -0.922500
     16 HC4        -0.5840   -0.0590    0.9690 ha        1 DRG      0.147000
     17 HC51        1.5420   -0.6150    2.0910 hc        1 DRG      0.060700
     18 HC52        2.3510    0.9410    1.6420 hc        1 DRG      0.060700
     19 HC61        4.0880   -0.7020    2.0320 hc        1 DRG      0.055700
     20 HC62        3.2580   -1.9520    1.0210 hc        1 DRG      0.055700
     21 HC7         6.1410   -0.7540    0.8000 ha        1 DRG      0.131000
     22 HC8         7.4100   -0.0660   -1.2300 ha        1 DRG      0.132000
     23 HC9         6.1830    0.6730   -3.2760 ha        1 DRG      0.134000
     24 H10C        3.7030    0.7260   -3.2960 ha        1 DRG      0.154000
     25 HN31       -2.5620   -0.1940   -0.5290 hn        1 DRG      0.412800
     26 HN32       -2.4960    0.1140   -2.1770 hn        1 DRG      0.412800
@<TRIPOS>BOND
     1    1    2 ar  
     2    1   14 ar  
     3    1   16 1   
     4    2    3 1   
     5    2   11 ar  
     6    3    4 1   
     7    3   17 1   
     8    3   18 1   
     9    4    5 1   
    10    4   19 1   
    11    4   20 1   
    12    5    6 ar  
    13    5   10 ar  
    14    6    7 ar  
    15    6   21 1   
    16    7    8 ar  
    17    7   22 1   
    18    8    9 ar  
    19    8   23 1   
    20    9   10 ar  
    21    9   24 1   
    22   10   11 1   
    23   11   12 ar  
    24   12   13 ar  
    25   13   14 ar  
    26   14   15 1   
    27   15   25 1   
    28   15   26 1   
@<TRIPOS>SUBSTRUCTURE
     1 DRG         1 TEMP              0 ****  ****    0 ROOT
