@<TRIPOS>MOLECULE
DRG
   26    28     1     0     0
SMALL
bcc


@<TRIPOS>ATOM
      1 C4         -0.0210   -0.0110    0.0240 ca        1 DRG     -0.274300
      2 C14         1.3730   -0.0360    0.0260 ca        1 DRG     -0.095600
      3 C5          2.1440   -0.1080    1.2920 c3        1 DRG     -0.038100
      4 C6          3.4570   -0.8470    1.1150 c3        1 DRG     -0.034100
      5 C11         4.2020   -0.4030   -0.0930 ca        1 DRG     -0.070300
      6 C7          5.5990   -0.4260   -0.0950 ca        1 DRG     -0.134000
      7 C8          6.3110   -0.0420   -1.2300 ca        1 DRG     -0.121000
      8 C9          5.6270    0.3700   -2.3730 ca        1 DRG     -0.138000
      9 C10         4.2340    0.3980   -2.3850 ca        1 DRG     -0.092000
     10 C12         3.5100    0.0110   -1.2490 ca        1 DRG     -0.123500
     11 C13         2.0460    0.0350   -1.2230 ca        1 DRG      0.343800
     12 N1          1.3250    0.1160   -2.3930 nb        1 DRG     -0.270000
     13 N2          0.0670    0.1390   -2.4150 nb        1 DRG     -0.360000
     14 C3         -0.6860    0.0920   -1.2330 ca        1 DRG      0.570200
     15 N3         -2.0700    0.2230   -1.2920 nh        1 DRG     -0.922500
     16 HC4        -0.5860   -0.0600    0.9640 ha        1 DRG      0.147000
     17 HC51        1.5370   -0.6140    2.0890 hc        1 DRG      0.060700
     18 HC52        2.3460    0.9430    1.6400 hc        1 DRG      0.060700
     19 HC61        3.2570   -1.9500    1.0230 hc        1 DRG      0.055700
     20 HC62        4.0840   -0.6990    2.0350 hc        1 DRG      0.055700
     21 HC7         6.1390   -0.7510    0.8070 ha        1 DRG      0.131000
     22 HC8         7.4110   -0.0630   -1.2220 ha        1 DRG      0.132000
     23 HC9         6.1870    0.6740   -3.2700 ha        1 DRG      0.134000
     24 H10C        3.7070    0.7250   -3.2950 ha        1 DRG      0.154000
     25 HN31       -2.4930    0.1090   -2.1860 hn        1 DRG      0.412800
     26 HN32       -2.5620   -0.1980   -0.5370 hn        1 DRG      0.412800
@<TRIPOS>BOND
     1    1    2 ar  
     2    1   14 ar  
     3    1   16 1   
     4    2    3 1   
     5    2   11 ar  
     6    3    4 1   
     7    3   17 1   
     8    3   18 1   
     9    4    5 1   
    10    4   19 1   
    11    4   20 1   
    12    5    6 ar  
    13    5   10 ar  
    14    6    7 ar  
    15    6   21 1   
    16    7    8 ar  
    17    7   22 1   
    18    8    9 ar  
    19    8   23 1   
    20    9   10 ar  
    21    9   24 1   
    22   10   11 1   
    23   11   12 ar  
    24   12   13 ar  
    25   13   14 ar  
    26   14   15 1   
    27   15   25 1   
    28   15   26 1   
@<TRIPOS>SUBSTRUCTURE
     1 DRG         1 TEMP              0 ****  ****    0 ROOT
