@<TRIPOS>MOLECULE
DRG
   27    29     1     0     0
SMALL
bcc


@<TRIPOS>ATOM
      1 C4         -0.0190   -0.0490    0.0130 ca        1 DRG     -0.146300
      2 C14         1.3800   -0.0620    0.0260 ca        1 DRG     -0.134600
      3 C5          2.1410   -0.1340    1.2970 c3        1 DRG     -0.044100
      4 C6          3.4710   -0.8400    1.1270 c3        1 DRG     -0.047100
      5 C11         4.2120   -0.3940   -0.0830 ca        1 DRG     -0.032300
      6 C7          5.6080   -0.4180   -0.0880 ca        1 DRG     -0.137000
      7 C8          6.3180   -0.0410   -1.2290 ca        1 DRG     -0.065000
      8 C9          5.6350    0.3590   -2.3780 ca        1 DRG     -0.140000
      9 C10         4.2430    0.3860   -2.3920 ca        1 DRG     -0.052000
     10 C12         3.5200    0.0120   -1.2470 ca        1 DRG     -0.204500
     11 C13         2.0660    0.0320   -1.2210 ca        1 DRG      0.505800
     12 N1          1.3420    0.1370   -2.4040 nb        1 DRG     -0.274000
     13 N2          0.0890    0.1510   -2.4280 nb        1 DRG     -0.251000
     14 C3         -0.6430    0.0570   -1.2480 ca        1 DRG      0.300200
     15 N3         -2.1070    0.0730   -1.3630 n4        1 DRG     -0.795300
     16 HC4        -0.5870   -0.1200    0.9540 ha        1 DRG      0.168000
     17 HC51        2.3170    0.9190    1.6590 hc        1 DRG      0.078700
     18 HC52        1.5390   -0.6610    2.0850 hc        1 DRG      0.078700
     19 HC61        4.0910   -0.6640    2.0480 hc        1 DRG      0.077700
     20 HC62        3.3050   -1.9510    1.0500 hc        1 DRG      0.077700
     21 HC7         6.1520   -0.7370    0.8150 ha        1 DRG      0.153000
     22 HC8         7.4200   -0.0620   -1.2200 ha        1 DRG      0.156000
     23 HC9         6.1970    0.6560   -3.2780 ha        1 DRG      0.157000
     24 H10C        3.7190    0.7050   -3.3080 ha        1 DRG      0.161000
     25 HN31       -2.4100    0.9460   -1.8150 hn        1 DRG      0.470133
     26 HN32       -2.5230    0.0070   -0.4290 hn        1 DRG      0.470133
     27 H33        -2.4180   -0.7220   -1.9370 hn        1 DRG      0.470133
@<TRIPOS>BOND
     1    1    2 ar  
     2    1   14 ar  
     3    1   16 1   
     4    2    3 1   
     5    2   11 ar  
     6    3    4 1   
     7    3   17 1   
     8    3   18 1   
     9    4    5 1   
    10    4   19 1   
    11    4   20 1   
    12    5    6 ar  
    13    5   10 ar  
    14    6    7 ar  
    15    6   21 1   
    16    7    8 ar  
    17    7   22 1   
    18    8    9 ar  
    19    8   23 1   
    20    9   10 ar  
    21    9   24 1   
    22   10   11 1   
    23   11   12 ar  
    24   12   13 ar  
    25   13   14 ar  
    26   14   15 1   
    27   15   25 1   
    28   15   26 1   
    29   15   27 1   
@<TRIPOS>SUBSTRUCTURE
     1 DRG         1 TEMP              0 ****  ****    0 ROOT
