@<TRIPOS>MOLECULE
DRG
   26    22     1     0     0
SMALL
bcc


@<TRIPOS>ATOM
      1 C4         -2.5530    0.0240    0.6210 c1        1 DRG     -0.209000
      2 C14        -1.1810    0.0240    0.6210 c1        1 DRG     -0.023000
      3 C5         -0.4330    0.0240    1.9270 c2        1 DRG     -0.124000
      4 C6          1.0170    0.0240    1.9020 c3        1 DRG     -0.120000
      5 C11         1.7160    0.0240    0.5750 c2        1 DRG     -0.063000
      6 C7          3.1140    0.0240    0.5270 c1        1 DRG     -0.134000
      7 C8          3.7700    0.0240   -0.7030 c1        1 DRG     -0.129500
      8 C9          3.0280    0.0240   -1.8930 c1        1 DRG     -0.129500
      9 C10         1.6350    0.0240   -1.8470 c1        1 DRG     -0.092000
     10 C12         0.9690    0.0240   -0.6090 c1        1 DRG     -0.016000
     11 C13        -0.4880    0.0240   -0.5850 c1        1 DRG     -0.092000
     12 N1         -1.1760    0.0240   -1.7680 n1        1 DRG     -0.007000
     13 N2         -2.5570    0.0240   -1.7650 n1        1 DRG     -0.097000
     14 C3         -3.2430    0.0240   -0.5770 c1        1 DRG      0.049000
     15 N3         -4.6240   -0.1500   -0.8520 n3        1 DRG     -0.320000
     16 HC4        -3.0420    0.0240    1.4660 ha        1 DRG      0.147000
     17 HC51       -0.7170   -0.7640    2.4280 ha        1 DRG      0.100000
     18 HC52       -0.7170    0.8130    2.4280 ha        1 DRG      0.100000
     19 HC61        1.3180   -0.7640    2.3920 hc        1 DRG      0.095000
     20 HC62        1.3180    0.8130    2.3920 hc        1 DRG      0.095000
     21 HC7         3.6310    0.0240    1.3560 ha        1 DRG      0.131000
     22 HC8         4.7450    0.0240   -0.7360 ha        1 DRG      0.133000
     23 HC9         3.4880    0.0240   -2.7540 ha        1 DRG      0.133000
     24 H10C        1.1210    0.0240   -2.6770 ha        1 DRG      0.154000
     25 HN31       -4.9830   -0.9880   -0.8690 hn        1 DRG      0.208000
     26 HN32       -5.1550    0.5770   -1.0000 hn        1 DRG      0.208000
@<TRIPOS>BOND
     1    1    2 1   
     2    1   16 1   
     3    2   11 1   
     4    3    4 1   
     5    3   17 1   
     6    3   18 1   
     7    4    5 1   
     8    4   19 1   
     9    4   20 1   
    10    5    6 1   
    11    5   10 1   
    12    6   21 1   
    13    7    8 1   
    14    7   22 1   
    15    8   23 1   
    16    9   10 1   
    17    9   24 1   
    18   11   12 1   
    19   13   14 1   
    20   14   15 1   
    21   15   25 1   
    22   15   26 1   
@<TRIPOS>SUBSTRUCTURE
     1 DRG         1 TEMP              0 ****  ****    0 ROOT
