@<TRIPOS>MOLECULE
DRH
   68    70     1     0     0
SMALL
bcc


@<TRIPOS>ATOM
      1 CAB       -14.9900   -3.0210    7.9350 c3        1 DRH     -0.084100
      2 CAO       -13.5620   -2.7200    7.5620 c3        1 DRH     -0.087400
      3 CBG       -13.2160   -1.2420    7.7220 c3        1 DRH      0.021800
      4 CAZ       -13.3930   -0.7900    9.2300 c         1 DRH      0.940600
      5 OAE       -13.8420    0.3680    9.4250 o         1 DRH     -0.815300
      6 OAD       -13.1100   -1.6320   10.1190 o         1 DRH     -0.815300
      7 CAC       -14.0430   -0.3630    6.8050 c3        1 DRH     -0.097100
      8 OAX       -11.8020   -1.0430    7.4730 os        1 DRH     -0.325900
      9 CBB       -11.3500   -1.4010    6.2200 ca        1 DRH      0.141100
     10 CAK       -11.3910   -0.4860    5.1560 ca        1 DRH     -0.156000
     11 CAI       -10.8210   -0.8230    3.9310 ca        1 DRH     -0.127000
     12 CAJ       -10.7180   -2.6450    6.0470 ca        1 DRH     -0.156000
     13 CAH       -10.1490   -2.9660    4.8200 ca        1 DRH     -0.127000
     14 CBA       -10.2080   -2.0670    3.7470 ca        1 DRH     -0.134300
     15 CAT        -9.6180   -2.4360    2.4330 c3        1 DRH     -0.056100
     16 CAV       -10.3650   -3.5860    1.7480 c3        1 DRH      0.209800
     17 NBF       -11.6100   -3.2590    1.0770 nh        1 DRH     -0.693600
     18 CAU       -12.7820   -3.0520    1.9160 c3        1 DRH      0.188800
     19 CAS       -13.4540   -4.3580    2.3420 c3        1 DRH     -0.083400
     20 CAR       -14.5450   -4.0530    3.3470 c3        1 DRH     -0.085400
     21 CAQ       -15.2110   -5.3230    3.8340 c3        1 DRH     -0.073400
     22 CAP       -16.2280   -5.0190    4.9130 c3        1 DRH     -0.088400
     23 CAN       -16.8550   -6.2850    5.4560 c3        1 DRH     -0.076400
     24 CAA       -17.8050   -5.9850    6.5870 c3        1 DRH     -0.094100
     25 CBC       -11.5300   -2.5980   -0.1340 cc        1 DRH      0.762500
     26 OAY       -12.7840   -2.1390   -0.6870 os        1 DRH     -0.327700
     27 CBE       -12.4300   -1.6270   -1.9350 ca        1 DRH      0.013100
     28 CAM       -13.2550   -1.0570   -2.8890 ca        1 DRH     -0.105000
     29 CAG       -12.6310   -0.6220   -4.0610 ca        1 DRH     -0.141000
     30 CAF       -11.2510   -0.7580   -4.2500 ca        1 DRH     -0.138000
     31 CAL       -10.4210   -1.3320   -3.2870 ca        1 DRH     -0.100000
     32 CBD       -11.0090   -1.7800   -2.1020 ca        1 DRH      0.102400
     33 NAW       -10.4700   -2.3860   -0.9510 nd        1 DRH     -0.642100
     34 HAB1      -15.1680   -4.1240    7.9310 hc        1 DRH      0.029367
     35 HAB2      -15.1990   -2.6260    8.9610 hc        1 DRH      0.029367
     36 HAB3      -15.7030   -2.5480    7.2160 hc        1 DRH      0.029367
     37 HAO1      -12.8740   -3.2970    8.2370 hc        1 DRH      0.033700
     38 HAO2      -13.3660   -3.0430    6.5040 hc        1 DRH      0.033700
     39 HAC1      -15.1070   -0.3870    7.1400 hc        1 DRH      0.031367
     40 HAC2      -13.9780   -0.7060    5.7450 hc        1 DRH      0.031367
     41 HAC3      -13.6790    0.6910    6.8800 hc        1 DRH      0.031367
     42 HAK       -11.8730    0.4910    5.3070 ha        1 DRH      0.149000
     43 HAI       -10.8540   -0.1020    3.1010 ha        1 DRH      0.118000
     44 HAJ       -10.6820   -3.3460    6.8940 ha        1 DRH      0.149000
     45 HAH        -9.6490   -3.9370    4.6880 ha        1 DRH      0.118000
     46 HAT1       -8.5590   -2.7790    2.5900 hc        1 DRH      0.057200
     47 HAT2       -9.5790   -1.5440    1.7530 hc        1 DRH      0.057200
     48 HAV1       -9.6760   -4.0550    0.9890 h1        1 DRH      0.065700
     49 HAV2      -10.6210   -4.3650    2.5240 h1        1 DRH      0.065700
     50 HAU1      -13.5420   -2.4230    1.3720 h1        1 DRH      0.071700
     51 HAU2      -12.4670   -2.4840    2.8440 h1        1 DRH      0.071700
     52 HAS1      -12.7060   -5.0540    2.8040 hc        1 DRH      0.044700
     53 HAS2      -13.8870   -4.8770    1.4480 hc        1 DRH      0.044700
     54 HAR1      -15.3120   -3.3810    2.8820 hc        1 DRH      0.051700
     55 HAR2      -14.1090   -3.5030    4.2240 hc        1 DRH      0.051700
     56 HAQ1      -14.4330   -6.0220    4.2400 hc        1 DRH      0.033700
     57 HAQ2      -15.7100   -5.8440    2.9760 hc        1 DRH      0.033700
     58 HAP1      -15.7310   -4.4570    5.7510 hc        1 DRH      0.051200
     59 HAP2      -17.0290   -4.3520    4.4980 hc        1 DRH      0.051200
     60 HAN1      -16.0470   -6.9750    5.8190 hc        1 DRH      0.031700
     61 HAN2      -17.3990   -6.8190    4.6330 hc        1 DRH      0.031700
     62 HAA1      -17.2700   -5.4600    7.4170 hc        1 DRH      0.033700
     63 HAA2      -18.6370   -5.3280    6.2370 hc        1 DRH      0.033700
     64 HAA3      -18.2440   -6.9290    6.9890 hc        1 DRH      0.033700
     65 HAM       -14.3350   -0.9530   -2.7310 ha        1 DRH      0.146000
     66 HAG       -13.2410   -0.1600   -4.8510 ha        1 DRH      0.129000
     67 HAF       -10.8040   -0.3980   -5.1890 ha        1 DRH      0.126000
     68 HAL        -9.3390   -1.4290   -3.4510 ha        1 DRH      0.145000
@<TRIPOS>BOND
     1    1    2 1   
     2    1   34 1   
     3    1   35 1   
     4    1   36 1   
     5    2    3 1   
     6    2   37 1   
     7    2   38 1   
     8    3    4 1   
     9    3    7 1   
    10    3    8 1   
    11    4    5 1   
    12    4    6 1   
    13    7   39 1   
    14    7   40 1   
    15    7   41 1   
    16    8    9 1   
    17    9   10 ar  
    18    9   12 ar  
    19   10   11 ar  
    20   10   42 1   
    21   11   14 ar  
    22   11   43 1   
    23   12   13 ar  
    24   12   44 1   
    25   13   14 ar  
    26   13   45 1   
    27   14   15 1   
    28   15   16 1   
    29   15   46 1   
    30   15   47 1   
    31   16   17 1   
    32   16   48 1   
    33   16   49 1   
    34   17   18 1   
    35   17   25 1   
    36   18   19 1   
    37   18   50 1   
    38   18   51 1   
    39   19   20 1   
    40   19   52 1   
    41   19   53 1   
    42   20   21 1   
    43   20   54 1   
    44   20   55 1   
    45   21   22 1   
    46   21   56 1   
    47   21   57 1   
    48   22   23 1   
    49   22   58 1   
    50   22   59 1   
    51   23   24 1   
    52   23   60 1   
    53   23   61 1   
    54   24   62 1   
    55   24   63 1   
    56   24   64 1   
    57   25   26 1   
    58   25   33 2   
    59   26   27 1   
    60   27   28 ar  
    61   27   32 ar  
    62   28   29 ar  
    63   28   65 1   
    64   29   30 ar  
    65   29   66 1   
    66   30   31 ar  
    67   30   67 1   
    68   31   32 ar  
    69   31   68 1   
    70   32   33 1   
@<TRIPOS>SUBSTRUCTURE
     1 DRH         1 TEMP              0 ****  ****    0 ROOT
