@<TRIPOS>MOLECULE
DRH
   68    64     1     0     0
SMALL
bcc


@<TRIPOS>ATOM
      1 CAB         3.8280   -5.1000   -6.0220 c3        1 DRH     -0.213000
      2 CAO         4.0530   -3.6170   -5.8790 c3        1 DRH     -0.128000
      3 CBG         3.2570   -3.0980   -4.6790 c3        1 DRH      0.002000
      4 CAZ         2.3080   -4.1810   -4.2010 c2        1 DRH      0.322000
      5 OAE         2.7620   -5.2430   -3.7190 o         1 DRH     -0.554500
      6 OAD         1.0520   -4.0320   -4.3400 o         1 DRH     -0.554500
      7 CAC         2.4790   -1.9140   -5.0700 c3        1 DRH     -0.217000
      8 OAX         4.1790   -2.7390   -3.6050 os        1 DRH     -0.207000
      9 CBB         3.5300   -2.2590   -2.4270 c2        1 DRH      0.144000
     10 CAK         3.3770   -0.8860   -2.2210 c1        1 DRH     -0.195000
     11 CAI         2.8160   -0.4180   -1.0310 c1        1 DRH     -0.097000
     12 CAJ         3.1230   -3.1630   -1.4440 c2        1 DRH     -0.188000
     13 CAH         2.5630   -2.6960   -0.2540 c1        1 DRH     -0.096000
     14 CBA         2.4090   -1.3250   -0.0460 c1        1 DRH     -0.164000
     15 CAT         1.8690   -0.8100    1.2980 c3        1 DRH     -0.111000
     16 CAV         0.4130   -0.3210    1.1260 c3        1 DRH     -0.029000
     17 NBF        -0.1030    0.1420    2.3690 n3        1 DRH     -0.240000
     18 CAU        -1.4970   -0.2260    2.4800 c3        1 DRH     -0.028000
     19 CAS        -2.3750    0.8400    1.7360 c3        1 DRH     -0.190000
     20 CAR        -3.8940    0.6620    2.1480 c3        1 DRH     -0.154000
     21 CAQ        -4.7840    1.6820    1.3410 c3        1 DRH     -0.157000
     22 CAP        -6.2610    1.6090    1.8590 c3        1 DRH     -0.158000
     23 CAN        -7.1230    2.6820    1.1350 c3        1 DRH     -0.159000
     24 CAA        -8.5540    2.5740    1.6050 c3        1 DRH     -0.210000
     25 CBC         0.0170    1.5700    2.4390 c2        1 DRH      0.197000
     26 OAY         0.0310    2.1280    3.6700 os        1 DRH     -0.159000
     27 CBE         1.0130    3.0590    3.6960 c1        1 DRH     -0.035000
     28 CAM         1.5080    3.8980    4.7380 c1        1 DRH     -0.122000
     29 CAG         2.5960    4.7280    4.5020 c1        1 DRH     -0.122000
     30 CAF         3.2030    4.7410    3.2460 c1        1 DRH     -0.122000
     31 CAL         2.7210    3.9230    2.2300 c1        1 DRH     -0.122000
     32 CBD         1.6070    3.0730    2.4710 c1        1 DRH     -0.034000
     33 NAW         0.9940    2.1570    1.7010 n1        1 DRH     -0.206000
     34 HAB1        2.8420   -5.2920   -5.9950 hc        1 DRH      0.076667
     35 HAB2        4.2800   -5.5770   -5.2720 hc        1 DRH      0.076667
     36 HAB3        4.2100   -5.4160   -6.8970 hc        1 DRH      0.076667
     37 HAO1        5.0180   -3.4430   -5.7350 hc        1 DRH      0.066000
     38 HAO2        3.7510   -3.1560   -6.7040 hc        1 DRH      0.066000
     39 HAC1        1.9760   -1.5820   -4.2860 hc        1 DRH      0.072333
     40 HAC2        3.0850   -1.2150   -5.3890 hc        1 DRH      0.072333
     41 HAC3        1.8270   -2.1640   -5.8120 hc        1 DRH      0.072333
     42 HAK         3.6240   -0.2510   -2.9320 ha        1 DRH      0.133000
     43 HAI         2.7070    0.5620   -0.8820 ha        1 DRH      0.114000
     44 HAJ         3.2540   -4.1270   -1.5790 ha        1 DRH      0.192000
     45 HAH         2.2800   -3.3300    0.4350 ha        1 DRH      0.115000
     46 HAT1        1.8960   -1.5530    1.9720 hc        1 DRH      0.085000
     47 HAT2        2.4370   -0.0510    1.6150 hc        1 DRH      0.085000
     48 HAV1       -0.1500   -1.0830    0.7880 h1        1 DRH      0.107000
     49 HAV2        0.3860    0.4340    0.4520 h1        1 DRH      0.107000
     50 HAU1       -1.6380   -1.1170    2.0690 h1        1 DRH      0.105000
     51 HAU2       -1.7510   -0.2580    3.4230 h1        1 DRH      0.105000
     52 HAS1       -2.0730    1.7390    1.9840 hc        1 DRH      0.092500
     53 HAS2       -2.2850    0.7230    0.7870 hc        1 DRH      0.092500
     54 HAR1       -4.1750   -0.2320    1.9510 hc        1 DRH      0.081000
     55 HAR2       -3.9910    0.8280    3.0790 hc        1 DRH      0.081000
     56 HAQ1       -4.4440    2.5760    1.4690 hc        1 DRH      0.081000
     57 HAQ2       -4.7600    1.4640    0.4210 hc        1 DRH      0.081000
     58 HAP1       -6.6230    0.7320    1.6800 hc        1 DRH      0.079000
     59 HAP2       -6.2740    1.7730    2.8040 hc        1 DRH      0.079000
     60 HAN1       -7.0840    2.5390    0.1800 hc        1 DRH      0.078500
     61 HAN2       -6.7880    3.5520    1.3400 hc        1 DRH      0.078500
     62 HAA1       -8.8750    1.6590    1.4720 hc        1 DRH      0.070000
     63 HAA2       -9.1120    3.1950    1.0890 hc        1 DRH      0.070000
     64 HAA3       -8.6040    2.7990    2.5480 hc        1 DRH      0.070000
     65 HAM         1.0210    3.9530    5.5990 ha        1 DRH      0.136000
     66 HAG         2.9290    5.2950    5.2050 ha        1 DRH      0.136000
     67 HAF         3.9620    5.3210    3.0800 ha        1 DRH      0.136000
     68 HAL         3.1370    3.9340    1.3680 ha        1 DRH      0.136000
@<TRIPOS>BOND
     1    1    2 1   
     2    1   34 1   
     3    1   35 1   
     4    1   36 1   
     5    2    3 1   
     6    2   37 1   
     7    2   38 1   
     8    3    4 1   
     9    3    7 1   
    10    3    8 1   
    11    4    5 1   
    12    4    6 1   
    13    7   39 1   
    14    7   40 1   
    15    7   41 1   
    16    8    9 1   
    17    9   10 1   
    18    9   12 1   
    19   10   42 1   
    20   11   14 1   
    21   11   43 1   
    22   12   13 1   
    23   12   44 1   
    24   13   45 1   
    25   14   15 1   
    26   15   16 1   
    27   15   46 1   
    28   15   47 1   
    29   16   17 1   
    30   16   48 1   
    31   16   49 1   
    32   17   18 1   
    33   17   25 1   
    34   18   19 1   
    35   18   50 1   
    36   18   51 1   
    37   19   20 1   
    38   19   52 1   
    39   19   53 1   
    40   20   21 1   
    41   20   54 1   
    42   20   55 1   
    43   21   22 1   
    44   21   56 1   
    45   21   57 1   
    46   22   23 1   
    47   22   58 1   
    48   22   59 1   
    49   23   24 1   
    50   23   60 1   
    51   23   61 1   
    52   24   62 1   
    53   24   63 1   
    54   24   64 1   
    55   25   26 1   
    56   25   33 1   
    57   26   27 1   
    58   27   32 1   
    59   28   29 1   
    60   28   65 1   
    61   29   66 1   
    62   30   31 1   
    63   30   67 1   
    64   31   68 1   
@<TRIPOS>SUBSTRUCTURE
     1 DRH         1 TEMP              0 ****  ****    0 ROOT
