@<TRIPOS>MOLECULE
DRI
   25    25     1     0     0
SMALL
bcc


@<TRIPOS>ATOM
      1 O1         -3.3000    1.1070   -0.5720 oh        1 DRI     -0.588800
      2 C1         -1.9190    1.1070   -0.5720 c3        1 DRI      0.345900
      3 C5          0.0090   -0.2580   -1.2550 c3        1 DRI      0.154100
      4 C2         -1.4300    1.1070    0.8560 c3        1 DRI     -0.175400
      5 C3          0.0350    0.9280    0.9500 c3        1 DRI      0.118100
      6 O3          0.3990    0.7570    2.3470 oh        1 DRI     -0.600800
      7 C4          0.5100   -0.2630    0.1780 c3        1 DRI      0.114100
      8 O4          1.9480   -0.2660    0.1670 os        1 DRI     -0.419600
      9 CME         2.5260   -1.2420    1.0190 c3        1 DRI      0.114700
     10 O5         -1.4360   -0.0770   -1.3410 os        1 DRI     -0.454600
     11 C6          0.3750   -1.5660   -1.9030 c3        1 DRI     -0.091100
     12 HO1        -3.5960    1.6850   -1.1780 ho        1 DRI      0.422000
     13 H1         -1.6030    1.9190   -1.0130 h2        1 DRI      0.074700
     14 H5          0.4470    0.4670   -1.7400 h1        1 DRI      0.054700
     15 H21        -1.6720    1.9560    1.2720 hc        1 DRI      0.065700
     16 H22        -1.8690    0.3820    1.3400 hc        1 DRI      0.065700
     17 H3          0.4750    1.7270    0.6030 h1        1 DRI      0.051700
     18 HO3         0.5690    1.5500    2.7070 ho        1 DRI      0.404000
     19 H4          0.1950   -1.0740    0.6200 h1        1 DRI      0.068700
     20 H41         3.2690   -1.6770    0.5580 h1        1 DRI      0.041033
     21 H42         2.8540   -0.8120    1.8310 h1        1 DRI      0.041033
     22 H43         1.8530   -1.9100    1.2530 h1        1 DRI      0.041033
     23 H61         1.2550   -1.4890   -2.3170 hc        1 DRI      0.051367
     24 H62         0.3940   -2.2700   -1.2270 hc        1 DRI      0.051367
     25 H63        -0.2880   -1.7880   -2.5840 hc        1 DRI      0.051367
@<TRIPOS>BOND
     1    1    2 1   
     2    1   12 1   
     3    2    4 1   
     4    2   10 1   
     5    2   13 1   
     6    3    7 1   
     7    3   10 1   
     8    3   11 1   
     9    3   14 1   
    10    4    5 1   
    11    4   15 1   
    12    4   16 1   
    13    5    6 1   
    14    5    7 1   
    15    5   17 1   
    16    6   18 1   
    17    7    8 1   
    18    7   19 1   
    19    8    9 1   
    20    9   20 1   
    21    9   21 1   
    22    9   22 1   
    23   11   23 1   
    24   11   24 1   
    25   11   25 1   
@<TRIPOS>SUBSTRUCTURE
     1 DRI         1 TEMP              0 ****  ****    0 ROOT
