@<TRIPOS>MOLECULE
DRI
   25    25     1     0     0
SMALL
bcc


@<TRIPOS>ATOM
      1 O1         -0.1720    0.1050   -3.2970 oh        1 DRI     -0.588800
      2 C1         -0.1860    0.5420   -1.9660 c3        1 DRI      0.345900
      3 C5          1.2950    0.3980   -0.1060 c3        1 DRI      0.154100
      4 C2         -1.3650   -0.0170   -1.1750 c3        1 DRI     -0.175400
      5 C3         -1.2050    0.2920    0.3080 c3        1 DRI      0.118100
      6 O3         -2.1600   -0.4380    1.0680 oh        1 DRI     -0.600800
      7 C4          0.1830   -0.1400    0.8180 c3        1 DRI      0.114100
      8 O4          0.4330    0.4500    2.0920 os        1 DRI     -0.419600
      9 CME        -0.0540   -0.3170    3.1830 c3        1 DRI      0.114700
     10 O5          1.0470    0.0350   -1.4640 os        1 DRI     -0.454600
     11 C6          2.6410   -0.2000    0.2550 c3        1 DRI     -0.091100
     12 HO1         0.1280   -0.8150   -3.3070 ho        1 DRI      0.422000
     13 H1         -0.1870    1.6670   -1.9960 h2        1 DRI      0.074700
     14 H5          1.3260    1.5210   -0.0230 h1        1 DRI      0.054700
     15 H21        -2.3140    0.4310   -1.5630 hc        1 DRI      0.065700
     16 H22        -1.4240   -1.1260   -1.3210 hc        1 DRI      0.065700
     17 H3         -1.3400    1.3940    0.4970 h1        1 DRI      0.051700
     18 HO3        -3.0310   -0.1790    0.7450 ho        1 DRI      0.404000
     19 H4          0.2280   -1.2610    0.8770 h1        1 DRI      0.068700
     20 H41         0.1920    0.3030    4.0810 h1        1 DRI      0.041033
     21 H42        -1.1570   -0.4730    3.0960 h1        1 DRI      0.041033
     22 H43         0.4710   -1.3030    3.2310 h1        1 DRI      0.041033
     23 H61         3.4400    0.2490   -0.3820 hc        1 DRI      0.051367
     24 H62         2.8520    0.0160    1.3300 hc        1 DRI      0.051367
     25 H63         2.6350   -1.3030    0.0930 hc        1 DRI      0.051367
@<TRIPOS>BOND
     1    1    2 1   
     2    1   12 1   
     3    2    4 1   
     4    2   10 1   
     5    2   13 1   
     6    3    7 1   
     7    3   10 1   
     8    3   11 1   
     9    3   14 1   
    10    4    5 1   
    11    4   15 1   
    12    4   16 1   
    13    5    6 1   
    14    5    7 1   
    15    5   17 1   
    16    6   18 1   
    17    7    8 1   
    18    7   19 1   
    19    8    9 1   
    20    9   20 1   
    21    9   21 1   
    22    9   22 1   
    23   11   23 1   
    24   11   24 1   
    25   11   25 1   
@<TRIPOS>SUBSTRUCTURE
     1 DRI         1 TEMP              0 ****  ****    0 ROOT
