@<TRIPOS>MOLECULE
DRJ
   68    64     1     0     0
SMALL
bcc


@<TRIPOS>ATOM
      1 CAB         4.1020   -6.8500    0.8860 c3        1 DRJ     -0.213000
      2 CAO         4.3940   -6.6300   -0.5780 c3        1 DRJ     -0.128000
      3 CBG         3.2190   -5.9150   -1.2270 c3        1 DRJ      0.001000
      4 CAZ         3.5240   -4.4450   -1.3320 c2        1 DRJ      0.322000
      5 OAE         3.8780   -3.8020   -0.3120 o         1 DRJ     -0.554000
      6 OAD         3.4630   -3.8710   -2.4430 o         1 DRJ     -0.554000
      7 CAC         2.9850   -6.4820   -2.6100 c3        1 DRJ     -0.217000
      8 OAX         2.0560   -6.1020   -0.4340 os        1 DRJ     -0.207000
      9 CBB         1.2170   -4.9460   -0.3540 c2        1 DRJ      0.147000
     10 CAK         1.4140   -4.0120    0.6600 c1        1 DRJ     -0.189000
     11 CAI         0.5600   -2.9210    0.7750 c1        1 DRJ     -0.086000
     12 CAJ         0.1690   -4.7880   -1.2480 c2        1 DRJ     -0.194000
     13 CAH        -0.6860   -3.6950   -1.1330 c1        1 DRJ     -0.105000
     14 CBA        -0.4900   -2.7620   -0.1210 c1        1 DRJ     -0.166000
     15 CAT        -1.4090   -1.5250   -0.0240 c3        1 DRJ     -0.108000
     16 CAV        -0.5670   -0.2390   -0.2270 c3        1 DRJ     -0.035000
     17 NBF        -1.3960    0.9260    0.0150 n3        1 DRJ     -0.236000
     18 CAU        -1.4870    1.9840   -0.9910 c3        1 DRJ     -0.024000
     19 CAS        -0.5610    3.1400   -0.6030 c3        1 DRJ     -0.191000
     20 CAR        -0.8020    4.3350   -1.5530 c3        1 DRJ     -0.154000
     21 CAQ        -0.0150    5.5630   -1.0450 c3        1 DRJ     -0.158000
     22 CAP        -0.3800    6.7940   -1.8930 c3        1 DRJ     -0.158000
     23 CAN         0.4130    8.0050   -1.4010 c3        1 DRJ     -0.159000
     24 CAA         0.1070    9.1960   -2.2770 c3        1 DRJ     -0.210000
     25 CBC        -2.1120    1.0530    1.2550 c2        1 DRJ      0.191000
     26 OAY        -1.6170    0.6290    2.4570 os        1 DRJ     -0.141000
     27 CBE        -2.5980    0.7820    3.3960 c1        1 DRJ     -0.031000
     28 CAM        -2.6160    0.5590    4.7910 c1        1 DRJ     -0.121000
     29 CAG        -3.7520    0.8650    5.5290 c1        1 DRJ     -0.121000
     30 CAF        -4.8730    1.3930    4.8940 c1        1 DRJ     -0.121000
     31 CAL        -4.8560    1.6120    3.5250 c1        1 DRJ     -0.121000
     32 CBD        -3.7000    1.3000    2.7730 c1        1 DRJ     -0.039000
     33 NAW        -3.3970    1.4670    1.4500 n1        1 DRJ     -0.220000
     34 HAB1        4.8950   -7.2290    1.3260 hc        1 DRJ      0.076333
     35 HAB2        3.3530   -7.4670    0.9780 hc        1 DRJ      0.076333
     36 HAB3        3.8730   -5.9920    1.3060 hc        1 DRJ      0.076333
     37 HAO1        5.2020   -6.0820   -0.6710 hc        1 DRJ      0.066000
     38 HAO2        4.5330   -7.4910   -1.0150 hc        1 DRJ      0.066000
     39 HAC1        2.4380   -5.8570   -3.1300 hc        1 DRJ      0.072667
     40 HAC2        2.5200   -7.3410   -2.5360 hc        1 DRJ      0.072667
     41 HAC3        3.8470   -6.6130   -3.0590 hc        1 DRJ      0.072667
     42 HAK         2.1430   -4.1220    1.2830 ha        1 DRJ      0.192000
     43 HAI         0.6980   -2.2700    1.4810 ha        1 DRJ      0.122000
     44 HAJ         0.0070   -5.4640   -1.9310 ha        1 DRJ      0.132000
     45 HAH        -1.4220   -3.5840   -1.7610 ha        1 DRJ      0.106000
     46 HAT1       -2.1000   -1.5770   -0.7170 hc        1 DRJ      0.085500
     47 HAT2       -1.8330   -1.5030    0.8590 hc        1 DRJ      0.085500
     48 HAV1       -0.2300   -0.2130   -1.1420 h1        1 DRJ      0.102500
     49 HAV2        0.1860   -0.2400    0.3990 h1        1 DRJ      0.102500
     50 HAU1       -1.2180    1.6300   -1.8630 h1        1 DRJ      0.105000
     51 HAU2       -2.4050    2.3060   -1.0410 h1        1 DRJ      0.105000
     52 HAS1        0.3710    2.8490   -0.6730 hc        1 DRJ      0.093500
     53 HAS2       -0.7480    3.4110    0.3140 hc        1 DRJ      0.093500
     54 HAR1       -1.7580    4.5470   -1.5750 hc        1 DRJ      0.080000
     55 HAR2       -0.4970    4.1010   -2.4580 hc        1 DRJ      0.080000
     56 HAQ1        0.9470    5.3880   -1.1190 hc        1 DRJ      0.081000
     57 HAQ2       -0.2440    5.7310   -0.1130 hc        1 DRJ      0.081000
     58 HAP1       -0.1610    6.6200   -2.8340 hc        1 DRJ      0.078000
     59 HAP2       -1.3350    6.9750   -1.8090 hc        1 DRJ      0.078000
     60 HAN1        1.3710    7.8080   -1.4420 hc        1 DRJ      0.078000
     61 HAN2        0.1610    8.2070   -0.4770 hc        1 DRJ      0.078000
     62 HAA1        0.4210    9.0190   -3.1910 hc        1 DRJ      0.070000
     63 HAA2        0.5640    9.9900   -1.9220 hc        1 DRJ      0.070000
     64 HAA3       -0.8590    9.3530   -2.2880 hc        1 DRJ      0.070000
     65 HAM        -1.8330    0.1900    5.2350 ha        1 DRJ      0.137500
     66 HAG        -3.7640    0.7110    6.4920 ha        1 DRJ      0.137500
     67 HAF        -5.6710    1.6080    5.4130 ha        1 DRJ      0.137500
     68 HAL        -5.6410    1.9820    3.0810 ha        1 DRJ      0.137500
@<TRIPOS>BOND
     1    1    2 1   
     2    1   34 1   
     3    1   35 1   
     4    1   36 1   
     5    2    3 1   
     6    2   37 1   
     7    2   38 1   
     8    3    4 1   
     9    3    7 1   
    10    3    8 1   
    11    4    5 1   
    12    4    6 1   
    13    7   39 1   
    14    7   40 1   
    15    7   41 1   
    16    8    9 1   
    17    9   10 1   
    18    9   12 1   
    19   10   42 1   
    20   11   14 1   
    21   11   43 1   
    22   12   13 1   
    23   12   44 1   
    24   13   45 1   
    25   14   15 1   
    26   15   16 1   
    27   15   46 1   
    28   15   47 1   
    29   16   17 1   
    30   16   48 1   
    31   16   49 1   
    32   17   18 1   
    33   17   25 1   
    34   18   19 1   
    35   18   50 1   
    36   18   51 1   
    37   19   20 1   
    38   19   52 1   
    39   19   53 1   
    40   20   21 1   
    41   20   54 1   
    42   20   55 1   
    43   21   22 1   
    44   21   56 1   
    45   21   57 1   
    46   22   23 1   
    47   22   58 1   
    48   22   59 1   
    49   23   24 1   
    50   23   60 1   
    51   23   61 1   
    52   24   62 1   
    53   24   63 1   
    54   24   64 1   
    55   25   26 1   
    56   25   33 1   
    57   26   27 1   
    58   27   32 1   
    59   28   29 1   
    60   28   65 1   
    61   29   66 1   
    62   30   31 1   
    63   30   67 1   
    64   31   68 1   
@<TRIPOS>SUBSTRUCTURE
     1 DRJ         1 TEMP              0 ****  ****    0 ROOT
