@<TRIPOS>MOLECULE
DRJ
   68    70     1     0     0
SMALL
bcc


@<TRIPOS>ATOM
      1 CAB         3.5800   -0.5870   -1.9320 c3        1 DRJ     -0.086100
      2 CAO         3.2370   -1.5210   -3.0610 c3        1 DRJ     -0.067400
      3 CBG         1.7370   -1.7590   -3.2410 c3        1 DRJ      0.036800
      4 CAZ         1.5430   -2.7120   -4.4660 c         1 DRJ      0.901600
      5 OAE         2.1000   -2.4030   -5.5540 o         1 DRJ     -0.829800
      6 OAD         0.8580   -3.7600   -4.2950 o         1 DRJ     -0.829800
      7 CAC         1.0930   -2.3380   -1.9950 c3        1 DRJ     -0.092100
      8 OAX         1.1820   -0.4340   -3.4740 os        1 DRJ     -0.360900
      9 CBB        -0.0810   -0.4060   -4.0310 ca        1 DRJ      0.142100
     10 CAK        -1.1810   -0.1300   -3.2050 ca        1 DRJ     -0.143000
     11 CAI        -2.4480    0.0040   -3.7680 ca        1 DRJ     -0.130000
     12 CAJ        -0.2510   -0.5280   -5.4200 ca        1 DRJ     -0.143000
     13 CAH        -1.5210   -0.3860   -5.9650 ca        1 DRJ     -0.130000
     14 CBA        -2.6320   -0.1390   -5.1470 ca        1 DRJ     -0.128300
     15 CAT        -3.9910   -0.0510   -5.7430 c3        1 DRJ     -0.054100
     16 CAV        -4.4410   -1.3710   -6.3810 c3        1 DRJ      0.215800
     17 NBF        -4.7880   -2.4490   -5.4760 nh        1 DRJ     -0.697600
     18 CAU        -3.6990   -3.2500   -4.9320 c3        1 DRJ      0.192800
     19 CAS        -3.2050   -4.3360   -5.8890 c3        1 DRJ     -0.080400
     20 CAR        -2.0070   -5.0300   -5.2760 c3        1 DRJ     -0.102400
     21 CAQ        -1.4140   -6.0470   -6.2280 c3        1 DRJ     -0.057400
     22 CAP        -0.1220   -6.6020   -5.6660 c3        1 DRJ     -0.100400
     23 CAN         0.5600   -7.5210   -6.6550 c3        1 DRJ     -0.072400
     24 CAA         1.8420   -8.0800   -6.0920 c3        1 DRJ     -0.089100
     25 CBC        -5.9860   -2.3770   -4.8070 cc        1 DRJ      0.774500
     26 OAY        -6.2200   -3.4000   -3.8140 os        1 DRJ     -0.324700
     27 CBE        -7.5220   -3.1510   -3.3780 ca        1 DRJ      0.010100
     28 CAM        -8.2490   -3.8420   -2.4260 ca        1 DRJ     -0.103000
     29 CAG        -9.5430   -3.3730   -2.1780 ca        1 DRJ     -0.149000
     30 CAF       -10.0620   -2.2670   -2.8590 ca        1 DRJ     -0.138000
     31 CAL        -9.3260   -1.5700   -3.8190 ca        1 DRJ     -0.109000
     32 CBD        -8.0290   -2.0100   -4.0940 ca        1 DRJ      0.110400
     33 NAW        -7.0420   -1.5400   -4.9790 nd        1 DRJ     -0.658100
     34 HAB1        4.6740   -0.3600   -1.9360 hc        1 DRJ      0.020700
     35 HAB2        3.0160    0.3720   -2.0380 hc        1 DRJ      0.020700
     36 HAB3        3.3210   -1.0390   -0.9440 hc        1 DRJ      0.020700
     37 HAO1        3.6300   -1.1120   -4.0300 hc        1 DRJ      0.054700
     38 HAO2        3.7150   -2.5220   -2.8940 hc        1 DRJ      0.054700
     39 HAC1        0.0110   -2.5330   -2.1940 hc        1 DRJ      0.031367
     40 HAC2        1.1840   -1.6340   -1.1340 hc        1 DRJ      0.031367
     41 HAC3        1.5840   -3.3070   -1.7440 hc        1 DRJ      0.031367
     42 HAK        -1.0330   -0.0350   -2.1200 ha        1 DRJ      0.163500
     43 HAI        -3.3120    0.2100   -3.1190 ha        1 DRJ      0.118000
     44 HAJ         0.6260   -0.7830   -6.0430 ha        1 DRJ      0.163500
     45 HAH        -1.6580   -0.4850   -7.0520 ha        1 DRJ      0.118000
     46 HAT1       -3.9880    0.7220   -6.5590 hc        1 DRJ      0.053700
     47 HAT2       -4.7400    0.2760   -4.9750 hc        1 DRJ      0.053700
     48 HAV1       -5.3370   -1.1600   -7.0330 h1        1 DRJ      0.065200
     49 HAV2       -3.6070   -1.7620   -7.0340 h1        1 DRJ      0.065200
     50 HAU1       -4.0260   -3.7400   -3.9720 h1        1 DRJ      0.076700
     51 HAU2       -2.8350   -2.5600   -4.6910 h1        1 DRJ      0.076700
     52 HAS1       -2.9120   -3.8830   -6.8720 hc        1 DRJ      0.036200
     53 HAS2       -4.0220   -5.0760   -6.0900 hc        1 DRJ      0.036200
     54 HAR1       -2.3130   -5.5400   -4.3250 hc        1 DRJ      0.074700
     55 HAR2       -1.2100   -4.2770   -5.0070 hc        1 DRJ      0.074700
     56 HAQ1       -1.2090   -5.5580   -7.2170 hc        1 DRJ      0.020200
     57 HAQ2       -2.1460   -6.8770   -6.4130 hc        1 DRJ      0.020200
     58 HAP1        0.5610   -5.7430   -5.3960 hc        1 DRJ      0.073200
     59 HAP2       -0.3360   -7.1620   -4.7190 hc        1 DRJ      0.073200
     60 HAN1        0.7830   -6.9530   -7.5970 hc        1 DRJ      0.023700
     61 HAN2       -0.1300   -8.3620   -6.9320 hc        1 DRJ      0.023700
     62 HAA1        2.5380   -7.2510   -5.8170 hc        1 DRJ      0.027367
     63 HAA2        1.6380   -8.6830   -5.1750 hc        1 DRJ      0.027367
     64 HAA3        2.3460   -8.7360   -6.8410 hc        1 DRJ      0.027367
     65 HAM        -7.8330   -4.7080   -1.8970 ha        1 DRJ      0.145000
     66 HAG       -10.1630   -3.8880   -1.4300 ha        1 DRJ      0.125000
     67 HAF       -11.0850   -1.9330   -2.6310 ha        1 DRJ      0.122000
     68 HAL        -9.7500   -0.7040   -4.3420 ha        1 DRJ      0.142000
@<TRIPOS>BOND
     1    1    2 1   
     2    1   34 1   
     3    1   35 1   
     4    1   36 1   
     5    2    3 1   
     6    2   37 1   
     7    2   38 1   
     8    3    4 1   
     9    3    7 1   
    10    3    8 1   
    11    4    5 1   
    12    4    6 1   
    13    7   39 1   
    14    7   40 1   
    15    7   41 1   
    16    8    9 1   
    17    9   10 ar  
    18    9   12 ar  
    19   10   11 ar  
    20   10   42 1   
    21   11   14 ar  
    22   11   43 1   
    23   12   13 ar  
    24   12   44 1   
    25   13   14 ar  
    26   13   45 1   
    27   14   15 1   
    28   15   16 1   
    29   15   46 1   
    30   15   47 1   
    31   16   17 1   
    32   16   48 1   
    33   16   49 1   
    34   17   18 1   
    35   17   25 1   
    36   18   19 1   
    37   18   50 1   
    38   18   51 1   
    39   19   20 1   
    40   19   52 1   
    41   19   53 1   
    42   20   21 1   
    43   20   54 1   
    44   20   55 1   
    45   21   22 1   
    46   21   56 1   
    47   21   57 1   
    48   22   23 1   
    49   22   58 1   
    50   22   59 1   
    51   23   24 1   
    52   23   60 1   
    53   23   61 1   
    54   24   62 1   
    55   24   63 1   
    56   24   64 1   
    57   25   26 1   
    58   25   33 2   
    59   26   27 1   
    60   27   28 ar  
    61   27   32 ar  
    62   28   29 ar  
    63   28   65 1   
    64   29   30 ar  
    65   29   66 1   
    66   30   31 ar  
    67   30   67 1   
    68   31   32 ar  
    69   31   68 1   
    70   32   33 1   
@<TRIPOS>SUBSTRUCTURE
     1 DRJ         1 TEMP              0 ****  ****    0 ROOT
