@<TRIPOS>MOLECULE
DRJ
   69    71     1     0     0
SMALL
bcc


@<TRIPOS>ATOM
      1 CAB         2.6480   -0.2840   -0.2880 c3        1 DRJ     -0.090100
      2 CAO         3.3490   -0.0200    1.0180 c3        1 DRJ     -0.080400
      3 CBG         2.5060    0.7760    2.0100 c3        1 DRJ      0.059800
      4 CAZ         3.3290    1.0840    3.2900 c         1 DRJ      0.892600
      5 OAE         4.4400    0.5000    3.4810 o         1 DRJ     -0.847300
      6 OAD         2.8600    1.8950    4.1410 o         1 DRJ     -0.847300
      7 CAC         1.9660    2.0630    1.4110 c3        1 DRJ     -0.084100
      8 OAX         1.3140   -0.0240    2.3210 os        1 DRJ     -0.356900
      9 CBB         1.4140   -0.6620    3.5440 ca        1 DRJ      0.146100
     10 CAK         0.9650   -0.0020    4.7010 ca        1 DRJ     -0.117500
     11 CAI         1.2880   -0.5300    5.9460 ca        1 DRJ     -0.121500
     12 CAJ         1.9840   -1.9420    3.6240 ca        1 DRJ     -0.117500
     13 CAH         2.3040   -2.4560    4.8760 ca        1 DRJ     -0.121500
     14 CBA         2.0500   -1.7020    6.0290 ca        1 DRJ     -0.158300
     15 CAT         2.7480   -2.0480    7.2920 c3        1 DRJ     -0.029100
     16 CAV         4.2220   -1.6430    7.1870 c3        1 DRJ      0.122800
     17 NBF         4.5740   -0.2280    7.5600 n4        1 DRJ     -0.600400
     18 CAU         4.3380    0.8200    6.4890 c3        1 DRJ      0.078800
     19 CAS         5.1050    2.0940    6.8160 c3        1 DRJ     -0.083400
     20 CAR         4.9210    3.0880    5.6860 c3        1 DRJ     -0.090400
     21 CAQ         5.8130    4.2930    5.8840 c3        1 DRJ     -0.072400
     22 CAP         5.6090    5.3010    4.7730 c3        1 DRJ     -0.079400
     23 CAN         6.5010    6.5110    4.9560 c3        1 DRJ     -0.079400
     24 CAA         6.2990    7.5160    3.8520 c3        1 DRJ     -0.092100
     25 CBC         3.9500    0.1440    8.8240 cc        1 DRJ      0.573500
     26 OAY         2.6970    0.8240    8.7450 os        1 DRJ     -0.259700
     27 CBE         2.3670    1.0450   10.0840 ca        1 DRJ      0.050100
     28 CAM         1.2440    1.6810   10.5970 ca        1 DRJ     -0.104000
     29 CAG         1.1750    1.7600   11.9870 ca        1 DRJ     -0.087000
     30 CAF         2.1800    1.2300   12.8130 ca        1 DRJ     -0.138000
     31 CAL         3.3060    0.5940   12.2990 ca        1 DRJ     -0.050000
     32 CBD         3.4100    0.4950   10.9050 ca        1 DRJ      0.041400
     33 NAW         4.3950   -0.0690   10.0670 nd        1 DRJ     -0.503100
     34 HAB1        1.6460   -0.7430   -0.1060 hc        1 DRJ      0.028033
     35 HAB2        2.5000    0.6650   -0.8580 hc        1 DRJ      0.028033
     36 HAB3        3.2520   -0.9810   -0.9180 hc        1 DRJ      0.028033
     37 HAO1        4.3000    0.5490    0.8460 hc        1 DRJ      0.052700
     38 HAO2        3.6290   -0.9920    1.5060 hc        1 DRJ      0.052700
     39 HAC1        1.5390    2.7000    2.2220 hc        1 DRJ      0.043033
     40 HAC2        1.1680    1.8390    0.6630 hc        1 DRJ      0.043033
     41 HAC3        2.7970    2.6120    0.9100 hc        1 DRJ      0.043033
     42 HAK         0.4710    0.9770    4.6070 ha        1 DRJ      0.158000
     43 HAI         1.0100    0.0110    6.8620 ha        1 DRJ      0.122000
     44 HAJ         2.2390   -2.4860    2.7030 ha        1 DRJ      0.158000
     45 HAH         2.8120   -3.4280    4.9560 ha        1 DRJ      0.122000
     46 HAT1        2.7320   -3.1590    7.4600 hc        1 DRJ      0.069700
     47 HAT2        2.2530   -1.5650    8.1750 hc        1 DRJ      0.069700
     48 HAV1        4.5690   -1.7770    6.1190 hx        1 DRJ      0.103200
     49 HAV2        4.8270   -2.3010    7.8740 hx        1 DRJ      0.103200
     50 HAU1        3.2300    1.0220    6.3870 hx        1 DRJ      0.174700
     51 HAU2        4.6730    0.4020    5.4760 hx        1 DRJ      0.174700
     52 HAS1        6.2000    1.8740    6.9400 hc        1 DRJ      0.032700
     53 HAS2        4.7340    2.5380    7.7780 hc        1 DRJ      0.032700
     54 HAR1        3.8430    3.4000    5.6320 hc        1 DRJ      0.097700
     55 HAR2        5.1370    2.5850    4.7020 hc        1 DRJ      0.097700
     56 HAQ1        6.8880    3.9720    5.9060 hc        1 DRJ      0.026200
     57 HAQ2        5.5920    4.7740    6.8740 hc        1 DRJ      0.026200
     58 HAP1        4.5350    5.6230    4.7520 hc        1 DRJ      0.050700
     59 HAP2        5.8260    4.8160    3.7850 hc        1 DRJ      0.050700
     60 HAN1        6.2830    6.9900    5.9470 hc        1 DRJ      0.032700
     61 HAN2        7.5740    6.1850    4.9760 hc        1 DRJ      0.032700
     62 HAA1        5.2400    7.8710    3.8310 hc        1 DRJ      0.032367
     63 HAA2        6.5340    7.0630    2.8590 hc        1 DRJ      0.032367
     64 HAA3        6.9650    8.4000    4.0030 hc        1 DRJ      0.032367
     65 HAM         0.4650    2.0960    9.9430 ha        1 DRJ      0.172000
     66 HAG         0.3060    2.2550   12.4510 ha        1 DRJ      0.153000
     67 HAF         2.0720    1.3230   13.9050 ha        1 DRJ      0.151000
     68 HAL         4.0870    0.1840   12.9550 ha        1 DRJ      0.163000
     69 HBF1        5.5950   -0.2240    7.7340 hn        1 DRJ      0.455800
@<TRIPOS>BOND
     1    1    2 1   
     2    1   34 1   
     3    1   35 1   
     4    1   36 1   
     5    2    3 1   
     6    2   37 1   
     7    2   38 1   
     8    3    4 1   
     9    3    7 1   
    10    3    8 1   
    11    4    5 1   
    12    4    6 1   
    13    7   39 1   
    14    7   40 1   
    15    7   41 1   
    16    8    9 1   
    17    9   10 ar  
    18    9   12 ar  
    19   10   11 ar  
    20   10   42 1   
    21   11   14 ar  
    22   11   43 1   
    23   12   13 ar  
    24   12   44 1   
    25   13   14 ar  
    26   13   45 1   
    27   14   15 1   
    28   15   16 1   
    29   15   46 1   
    30   15   47 1   
    31   16   17 1   
    32   16   48 1   
    33   16   49 1   
    34   17   18 1   
    35   17   25 1   
    36   17   69 1   
    37   18   19 1   
    38   18   50 1   
    39   18   51 1   
    40   19   20 1   
    41   19   52 1   
    42   19   53 1   
    43   20   21 1   
    44   20   54 1   
    45   20   55 1   
    46   21   22 1   
    47   21   56 1   
    48   21   57 1   
    49   22   23 1   
    50   22   58 1   
    51   22   59 1   
    52   23   24 1   
    53   23   60 1   
    54   23   61 1   
    55   24   62 1   
    56   24   63 1   
    57   24   64 1   
    58   25   26 1   
    59   25   33 2   
    60   26   27 1   
    61   27   28 ar  
    62   27   32 ar  
    63   28   29 ar  
    64   28   65 1   
    65   29   30 ar  
    66   29   66 1   
    67   30   31 ar  
    68   30   67 1   
    69   31   32 ar  
    70   31   68 1   
    71   32   33 1   
@<TRIPOS>SUBSTRUCTURE
     1 DRJ         1 TEMP              0 ****  ****    0 ROOT
