@<TRIPOS>MOLECULE
DRJ
   68    70     1     0     0
SMALL
bcc


@<TRIPOS>ATOM
      1 CAB         1.3170    0.2500   -0.4830 c3        1 DRJ     -0.086100
      2 CAO         2.5920    0.8000    0.0980 c3        1 DRJ     -0.067400
      3 CBG         2.6020    0.8740    1.6260 c3        1 DRJ      0.036800
      4 CAZ         3.9960    1.4250    2.0740 c         1 DRJ      0.901600
      5 OAE         5.0300    0.8570    1.6270 o         1 DRJ     -0.829800
      6 OAD         4.0140    2.4280    2.8410 o         1 DRJ     -0.829800
      7 CAC         1.4780    1.7370    2.1670 c3        1 DRJ     -0.092100
      8 OAX         2.3810   -0.4980    2.0590 os        1 DRJ     -0.360900
      9 CBB         2.7110   -0.7690    3.3720 ca        1 DRJ      0.142100
     10 CAK         1.6860   -0.8740    4.3230 ca        1 DRJ     -0.143000
     11 CAI         1.9940   -1.2490    5.6290 ca        1 DRJ     -0.130000
     12 CAJ         4.0400   -1.0590    3.7270 ca        1 DRJ     -0.143000
     13 CAH         4.3280   -1.4360    5.0320 ca        1 DRJ     -0.130000
     14 CBA         3.3150   -1.5160    5.9990 ca        1 DRJ     -0.128300
     15 CAT         3.6540   -1.8620    7.4040 c3        1 DRJ     -0.054100
     16 CAV         4.5500   -0.8130    8.0710 c3        1 DRJ      0.215800
     17 NBF         3.9310    0.4520    8.4160 nh        1 DRJ     -0.697600
     18 CAU         3.7940    1.4470    7.3600 c3        1 DRJ      0.192800
     19 CAS         5.0730    2.2480    7.1100 c3        1 DRJ     -0.080400
     20 CAR         4.8590    3.1680    5.9270 c3        1 DRJ     -0.102400
     21 CAQ         6.1280    3.9120    5.5720 c3        1 DRJ     -0.057400
     22 CAP         5.9390    4.6910    4.2870 c3        1 DRJ     -0.100400
     23 CAN         7.2310    5.3380    3.8380 c3        1 DRJ     -0.072400
     24 CAA         7.0400    6.1200    2.5640 c3        1 DRJ     -0.089100
     25 CBC         3.0950    0.4900    9.5060 cc        1 DRJ      0.774500
     26 OAY         2.3930    1.7360    9.7230 os        1 DRJ     -0.324700
     27 CBE         1.7160    1.5320   10.9250 ca        1 DRJ      0.010100
     28 CAM         0.8890    2.4130   11.5980 ca        1 DRJ     -0.103000
     29 CAG         0.3320    1.9460   12.7930 ca        1 DRJ     -0.149000
     30 CAF         0.6010    0.6590   13.2710 ca        1 DRJ     -0.138000
     31 CAL         1.4350   -0.2290   12.5900 ca        1 DRJ     -0.109000
     32 CBD         2.0110    0.2020   11.3920 ca        1 DRJ      0.110400
     33 NAW         2.8730   -0.4310   10.4790 nd        1 DRJ     -0.658100
     34 HAB1        1.4240    0.1070   -1.5860 hc        1 DRJ      0.020700
     35 HAB2        0.4620    0.9460   -0.3020 hc        1 DRJ      0.020700
     36 HAB3        1.0720   -0.7350   -0.0170 hc        1 DRJ      0.020700
     37 HAO1        2.7770    1.8370   -0.2860 hc        1 DRJ      0.054700
     38 HAO2        3.4620    0.1610   -0.2120 hc        1 DRJ      0.054700
     39 HAC1        1.5570    1.7920    3.2800 hc        1 DRJ      0.031367
     40 HAC2        1.5760    2.7690    1.7560 hc        1 DRJ      0.031367
     41 HAC3        0.4820    1.3150    1.8930 hc        1 DRJ      0.031367
     42 HAK         0.6510   -0.6470    4.0310 ha        1 DRJ      0.163500
     43 HAI         1.1910   -1.3210    6.3770 ha        1 DRJ      0.118000
     44 HAJ         4.8340   -0.9310    2.9670 ha        1 DRJ      0.163500
     45 HAH         5.3680   -1.6590    5.3150 ha        1 DRJ      0.118000
     46 HAT1        2.7220   -2.0090    8.0120 hc        1 DRJ      0.053700
     47 HAT2        4.2200   -2.8330    7.4200 hc        1 DRJ      0.053700
     48 HAV1        4.9790   -1.2610    9.0130 h1        1 DRJ      0.065200
     49 HAV2        5.4020   -0.5660    7.3720 h1        1 DRJ      0.065200
     50 HAU1        3.5080    0.9140    6.4030 h1        1 DRJ      0.076700
     51 HAU2        2.9650    2.1660    7.6150 h1        1 DRJ      0.076700
     52 HAS1        5.9290    1.5570    6.8960 hc        1 DRJ      0.036200
     53 HAS2        5.3410    2.8430    8.0210 hc        1 DRJ      0.036200
     54 HAR1        4.5190    2.5790    5.0250 hc        1 DRJ      0.074700
     55 HAR2        4.0460    3.9040    6.1640 hc        1 DRJ      0.074700
     56 HAQ1        6.4180    4.6030    6.4060 hc        1 DRJ      0.020200
     57 HAQ2        6.9670    3.1790    5.4410 hc        1 DRJ      0.020200
     58 HAP1        5.1570    5.4800    4.4390 hc        1 DRJ      0.073700
     59 HAP2        5.5540    3.9930    3.4870 hc        1 DRJ      0.073700
     60 HAN1        8.0070    4.5430    3.6750 hc        1 DRJ      0.023700
     61 HAN2        7.6180    6.0160    4.6440 hc        1 DRJ      0.023700
     62 HAA1        6.3000    6.9430    2.7150 hc        1 DRJ      0.027367
     63 HAA2        6.6600    5.4530    1.7530 hc        1 DRJ      0.027367
     64 HAA3        8.0070    6.5710    2.2320 hc        1 DRJ      0.027367
     65 HAM         0.6840    3.4200   11.2150 ha        1 DRJ      0.145000
     66 HAG        -0.3320    2.6080   13.3670 ha        1 DRJ      0.125000
     67 HAF         0.1400    0.3350   14.2160 ha        1 DRJ      0.122000
     68 HAL         1.6330   -1.2360   12.9800 ha        1 DRJ      0.142000
@<TRIPOS>BOND
     1    1    2 1   
     2    1   34 1   
     3    1   35 1   
     4    1   36 1   
     5    2    3 1   
     6    2   37 1   
     7    2   38 1   
     8    3    4 1   
     9    3    7 1   
    10    3    8 1   
    11    4    5 1   
    12    4    6 1   
    13    7   39 1   
    14    7   40 1   
    15    7   41 1   
    16    8    9 1   
    17    9   10 ar  
    18    9   12 ar  
    19   10   11 ar  
    20   10   42 1   
    21   11   14 ar  
    22   11   43 1   
    23   12   13 ar  
    24   12   44 1   
    25   13   14 ar  
    26   13   45 1   
    27   14   15 1   
    28   15   16 1   
    29   15   46 1   
    30   15   47 1   
    31   16   17 1   
    32   16   48 1   
    33   16   49 1   
    34   17   18 1   
    35   17   25 1   
    36   18   19 1   
    37   18   50 1   
    38   18   51 1   
    39   19   20 1   
    40   19   52 1   
    41   19   53 1   
    42   20   21 1   
    43   20   54 1   
    44   20   55 1   
    45   21   22 1   
    46   21   56 1   
    47   21   57 1   
    48   22   23 1   
    49   22   58 1   
    50   22   59 1   
    51   23   24 1   
    52   23   60 1   
    53   23   61 1   
    54   24   62 1   
    55   24   63 1   
    56   24   64 1   
    57   25   26 1   
    58   25   33 2   
    59   26   27 1   
    60   27   28 ar  
    61   27   32 ar  
    62   28   29 ar  
    63   28   65 1   
    64   29   30 ar  
    65   29   66 1   
    66   30   31 ar  
    67   30   67 1   
    68   31   32 ar  
    69   31   68 1   
    70   32   33 1   
@<TRIPOS>SUBSTRUCTURE
     1 DRJ         1 TEMP              0 ****  ****    0 ROOT
