@<TRIPOS>MOLECULE
DRK
   47    50     1     0     0
SMALL
bcc


@<TRIPOS>ATOM
      1 OAA         1.2280    2.9780   -0.9120 o         1 DRK     -0.506100
      2 CAS         1.9950    2.0590   -0.6360 c         1 DRK      0.706700
      3 NAP         2.6490    1.8680    0.6580 nc        1 DRK     -0.273400
      4 CAW         3.4280    0.8190    0.5270 ca        1 DRK      0.072000
      5 CAH         4.3020    0.1980    1.5070 ca        1 DRK     -0.112000
      6 CAE         5.0300   -0.8830    1.1550 ca        1 DRK     -0.088000
      7 CAG         4.9860   -1.4430   -0.1810 ca        1 DRK     -0.055000
      8 CAK         4.1910   -0.9300   -1.1510 ca        1 DRK     -0.156000
      9 CAZ         3.3590    0.1990   -0.8670 ca        1 DRK     -0.004000
     10 CAV         2.4590    0.9410   -1.5810 cc        1 DRK     -0.201200
     11 CAT         1.9790    0.7480   -2.9170 cc        1 DRK      0.112900
     12 NAQ         1.9280   -0.5180   -3.4990 na        1 DRK     -0.151400
     13 CAX         1.4370   -0.4170   -4.8060 ca        1 DRK     -0.033200
     14 CAI         1.2050   -1.4100   -5.7740 ca        1 DRK     -0.118000
     15 CAD         0.7170   -1.0020   -7.0040 ca        1 DRK     -0.092000
     16 CAF         0.4600    0.3550   -7.2860 ca        1 DRK     -0.108000
     17 CAJ         0.6790    1.3450   -6.3410 ca        1 DRK     -0.108000
     18 CAY         1.1710    0.9700   -5.0870 ca        1 DRK     -0.073800
     19 CAU         1.5000    1.6860   -3.8700 cd        1 DRK     -0.117200
     20 NAO         1.3370    3.1060   -3.7180 n4        1 DRK     -0.368300
     21 OAR         2.5660    3.7200   -3.6140 os        1 DRK     -0.224100
     22 CAM         2.5700    5.0630   -3.0670 c3        1 DRK      0.096400
     23 CAN         1.9430    6.0730   -4.0030 c3        1 DRK     -0.133400
     24 CBA         0.4980    6.4040   -3.6500 c3        1 DRK      0.139100
     25 OAC        -0.2900    5.2530   -3.9400 oh        1 DRK     -0.678800
     26 CAL         0.0160    7.6090   -4.4680 c3        1 DRK      0.098400
     27 OAB        -1.3740    7.7110   -4.2090 oh        1 DRK     -0.614800
     28 HAH         4.3380    0.6370    2.5180 ha        1 DRK      0.182000
     29 HAE         5.6980   -1.3750    1.8840 ha        1 DRK      0.167000
     30 HAG         5.6380   -2.3100   -0.3850 ha        1 DRK      0.163000
     31 HAK         4.1960   -1.3500   -2.1680 ha        1 DRK      0.149000
     32 HAI         1.4020   -2.4700   -5.5590 ha        1 DRK      0.156000
     33 HAD         0.5240   -1.7540   -7.7870 ha        1 DRK      0.158000
     34 HAF         0.0740    0.6270   -8.2820 ha        1 DRK      0.155000
     35 HAJ         0.4750    2.3990   -6.5760 ha        1 DRK      0.137000
     36 HNAO        0.8500    3.4880   -4.5560 hn        1 DRK      0.483300
     37 HAM         2.0930    5.0630   -2.0500 h1        1 DRK      0.104200
     38 HAMA        3.6830    5.2250   -2.9740 h1        1 DRK      0.104200
     39 HAN         2.0010    5.7020   -5.0610 hc        1 DRK      0.085200
     40 HANA        2.5370    7.0250   -3.9440 hc        1 DRK      0.085200
     41 HBA         0.3950    6.6350   -2.5510 h1        1 DRK      0.068700
     42 HOAC       -1.2190    5.5260   -3.9270 ho        1 DRK      0.462000
     43 HAL         0.1910    7.4380   -5.5630 h1        1 DRK      0.046700
     44 HALA        0.5510    8.5370   -4.1390 h1        1 DRK      0.046700
     45 HOAB       -1.6960    8.4920   -4.6770 ho        1 DRK      0.431000
     46 HNAQ        2.1470   -1.3630   -3.0310 hn        1 DRK      0.324700
     47 HAO2        0.7580    3.3160   -2.8750 hn        1 DRK      0.483300
@<TRIPOS>BOND
     1    1    2 2   
     2    2    3 1   
     3    2   10 1   
     4    3    4 2   
     5    4    5 ar  
     6    4    9 ar  
     7    5    6 ar  
     8    5   28 1   
     9    6    7 ar  
    10    6   29 1   
    11    7    8 ar  
    12    7   30 1   
    13    8    9 ar  
    14    8   31 1   
    15    9   10 2   
    16   10   11 1   
    17   11   12 1   
    18   11   19 2   
    19   12   13 1   
    20   12   46 1   
    21   13   14 ar  
    22   13   18 ar  
    23   14   15 ar  
    24   14   32 1   
    25   15   16 ar  
    26   15   33 1   
    27   16   17 ar  
    28   16   34 1   
    29   17   18 ar  
    30   17   35 1   
    31   18   19 1   
    32   19   20 1   
    33   20   21 1   
    34   20   36 1   
    35   20   47 1   
    36   21   22 1   
    37   22   23 1   
    38   22   37 1   
    39   22   38 1   
    40   23   24 1   
    41   23   39 1   
    42   23   40 1   
    43   24   25 1   
    44   24   26 1   
    45   24   41 1   
    46   25   42 1   
    47   26   27 1   
    48   26   43 1   
    49   26   44 1   
    50   27   45 1   
@<TRIPOS>SUBSTRUCTURE
     1 DRK         1 TEMP              0 ****  ****    0 ROOT
