@<TRIPOS>MOLECULE
DRK
   46    49     1     0     0
SMALL
bcc


@<TRIPOS>ATOM
      1 OAA         0.3900    1.0590    0.2100 o         1 DRK     -0.474100
      2 CAS         1.5690    0.7350    0.1030 c         1 DRK      0.678700
      3 NAP         2.4630    0.4350    1.2140 nc        1 DRK     -0.334400
      4 CAW         3.6160    0.0880    0.6760 ca        1 DRK      0.088000
      5 CAH         4.8460   -0.3050    1.3350 ca        1 DRK     -0.142000
      6 CAE         5.9310   -0.6160    0.5880 ca        1 DRK     -0.074000
      7 CAG         5.9160   -0.5620   -0.8550 ca        1 DRK     -0.151000
      8 CAK         4.8020   -0.2090   -1.5420 ca        1 DRK     -0.076000
      9 CAZ         3.6030    0.1210   -0.8350 ca        1 DRK     -0.142000
     10 CAV         2.3500    0.5270   -1.2160 cc        1 DRK     -0.052200
     11 CAT         1.8010    0.6700   -2.5190 cc        1 DRK     -0.096100
     12 NAQ         2.2830   -0.1170   -3.6030 na        1 DRK     -0.173400
     13 CAX         1.5270    0.1930   -4.7330 ca        1 DRK     -0.014200
     14 CAI         1.5670   -0.3530   -6.0280 ca        1 DRK     -0.162000
     15 CAD         0.7350    0.2000   -6.9880 ca        1 DRK     -0.088000
     16 CAF        -0.1270    1.2720   -6.6900 ca        1 DRK     -0.172000
     17 CAJ        -0.1800    1.8200   -5.4170 ca        1 DRK     -0.053000
     18 CAY         0.6400    1.2860   -4.4190 ca        1 DRK     -0.122800
     19 CAU         0.8270    1.5790   -3.0060 cd        1 DRK      0.129800
     20 NAO         0.2950    2.6560   -2.2670 nh        1 DRK     -0.447500
     21 OAR        -0.6750    3.3240   -2.9260 os        1 DRK     -0.240100
     22 CAM        -0.4270    4.7410   -3.0750 c3        1 DRK      0.138400
     23 CAN         0.7460    5.0310   -3.9860 c3        1 DRK     -0.109400
     24 CBA         0.7710    6.5050   -4.3690 c3        1 DRK      0.146100
     25 OAC        -0.3810    6.7620   -5.1590 oh        1 DRK     -0.606800
     26 CAL         2.0460    6.8220   -5.1590 c3        1 DRK      0.091400
     27 OAB         1.9700    8.1980   -5.4960 oh        1 DRK     -0.613800
     28 HAH         4.8570   -0.3390    2.4350 ha        1 DRK      0.159000
     29 HAE         6.8740   -0.9200    1.0700 ha        1 DRK      0.140000
     30 HAG         6.8500   -0.8130   -1.3810 ha        1 DRK      0.139000
     31 HAK         4.8020   -0.1480   -2.6410 ha        1 DRK      0.144000
     32 HAI         2.2380   -1.1880   -6.2680 ha        1 DRK      0.137000
     33 HAD         0.7430   -0.2080   -8.0100 ha        1 DRK      0.133000
     34 HAF        -0.7700    1.6770   -7.4850 ha        1 DRK      0.136000
     35 HAJ        -0.8550    2.6580   -5.1800 ha        1 DRK      0.158000
     36 HNAO       -0.1140    2.3130   -1.3950 hn        1 DRK      0.418800
     37 HAM        -0.2890    5.2170   -2.0710 h1        1 DRK      0.066700
     38 HAMA       -1.3910    5.0870   -3.5410 h1        1 DRK      0.066700
     39 HAN         0.6620    4.4010   -4.9110 hc        1 DRK      0.065700
     40 HANA        1.7090    4.7720   -3.4760 hc        1 DRK      0.065700
     41 HBA         0.7370    7.1540   -3.4480 h1        1 DRK      0.047700
     42 HOAC       -0.2930    7.6670   -5.4870 ho        1 DRK      0.420000
     43 HAL         2.0930    6.1960   -6.0890 h1        1 DRK      0.037200
     44 HALA        2.9530    6.6290   -4.5280 h1        1 DRK      0.037200
     45 HOAB        2.7220    8.3870   -6.0680 ho        1 DRK      0.409000
     46 HNAQ        2.6840   -1.0090   -3.4500 hn        1 DRK      0.290700
@<TRIPOS>BOND
     1    1    2 2   
     2    2    3 1   
     3    2   10 1   
     4    3    4 2   
     5    4    5 ar  
     6    4    9 ar  
     7    5    6 ar  
     8    5   28 1   
     9    6    7 ar  
    10    6   29 1   
    11    7    8 ar  
    12    7   30 1   
    13    8    9 ar  
    14    8   31 1   
    15    9   10 2   
    16   10   11 1   
    17   11   12 1   
    18   11   19 2   
    19   12   13 1   
    20   12   46 1   
    21   13   14 ar  
    22   13   18 ar  
    23   14   15 ar  
    24   14   32 1   
    25   15   16 ar  
    26   15   33 1   
    27   16   17 ar  
    28   16   34 1   
    29   17   18 ar  
    30   17   35 1   
    31   18   19 1   
    32   19   20 1   
    33   20   21 1   
    34   20   36 1   
    35   21   22 1   
    36   22   23 1   
    37   22   37 1   
    38   22   38 1   
    39   23   24 1   
    40   23   39 1   
    41   23   40 1   
    42   24   25 1   
    43   24   26 1   
    44   24   41 1   
    45   25   42 1   
    46   26   27 1   
    47   26   43 1   
    48   26   44 1   
    49   27   45 1   
@<TRIPOS>SUBSTRUCTURE
     1 DRK         1 TEMP              0 ****  ****    0 ROOT
