@<TRIPOS>MOLECULE
DRK
   46    49     1     0     0
SMALL
bcc


@<TRIPOS>ATOM
      1 OAA        -1.4190    1.3050   -2.5390 o         1 DRK     -0.474100
      2 CAS        -2.2610    1.4440   -1.6590 c         1 DRK      0.679700
      3 NAP        -3.3770    2.3830   -1.7010 nc        1 DRK     -0.331400
      4 CAW        -4.0630    2.1910   -0.5920 ca        1 DRK      0.087000
      5 CAH        -5.2630    2.8650   -0.1340 ca        1 DRK     -0.140000
      6 CAE        -5.8080    2.5170    1.0540 ca        1 DRK     -0.075000
      7 CAG        -5.2320    1.4980    1.9010 ca        1 DRK     -0.147000
      8 CAK        -4.1160    0.8210    1.5380 ca        1 DRK     -0.079000
      9 CAZ        -3.4790    1.1100    0.2910 ca        1 DRK     -0.135000
     10 CAV        -2.3600    0.6370   -0.3430 cc        1 DRK     -0.057200
     11 CAT        -1.4810   -0.4150    0.0330 cc        1 DRK     -0.087100
     12 NAQ        -1.9450   -1.5110    0.8100 na        1 DRK     -0.174400
     13 CAX        -0.8900   -2.4040    0.9790 ca        1 DRK     -0.012200
     14 CAI        -0.8550   -3.6580    1.6160 ca        1 DRK     -0.160000
     15 CAD         0.3640   -4.3110    1.6880 ca        1 DRK     -0.088000
     16 CAF         1.5370   -3.7500    1.1470 ca        1 DRK     -0.170000
     17 CAJ         1.5170   -2.5180    0.5150 ca        1 DRK     -0.057000
     18 CAY         0.3060   -1.8270    0.4150 ca        1 DRK     -0.121800
     19 CAU        -0.0860   -0.5610   -0.1820 cd        1 DRK      0.114800
     20 NAO         0.7500    0.4430   -0.7190 nh        1 DRK     -0.437500
     21 OAR         2.0140    0.0340   -0.9440 os        1 DRK     -0.245100
     22 CAM         2.9810    0.6110   -0.0210 c3        1 DRK      0.130400
     23 CAN         4.3300    0.1580   -0.5490 c3        1 DRK     -0.120400
     24 CBA         5.4530    0.8570    0.2000 c3        1 DRK      0.096100
     25 OAC         5.4240    2.2660    0.0270 oh        1 DRK     -0.599800
     26 CAL         6.8140    0.3160   -0.2500 c3        1 DRK      0.101400
     27 OAB         7.8680    0.9200    0.4680 oh        1 DRK     -0.594800
     28 HAH        -5.6950    3.6460   -0.7780 ha        1 DRK      0.160000
     29 HAE        -6.7210    3.0170    1.4180 ha        1 DRK      0.141000
     30 HAG        -5.7320    1.2960    2.8600 ha        1 DRK      0.140000
     31 HAK        -3.6670    0.0610    2.1970 ha        1 DRK      0.144000
     32 HAI        -1.7650   -4.0990    2.0420 ha        1 DRK      0.138000
     33 HAD         0.4220   -5.2940    2.1800 ha        1 DRK      0.134000
     34 HAF         2.4810   -4.3080    1.2300 ha        1 DRK      0.134000
     35 HAJ         2.4330   -2.0770    0.0890 ha        1 DRK      0.147000
     36 HNAO        0.3850    0.7590   -1.6200 hn        1 DRK      0.422800
     37 HAM         2.9040    1.7280   -0.0250 h1        1 DRK      0.057200
     38 HAMA        2.7890    0.2190    1.0100 h1        1 DRK      0.057200
     39 HAN         4.4340   -0.9510   -0.4270 hc        1 DRK      0.061700
     40 HANA        4.3980    0.3840   -1.6450 hc        1 DRK      0.061700
     41 HBA         5.3380    0.7230    1.3140 h1        1 DRK      0.092700
     42 HOAC        5.3910    2.4420   -0.9210 ho        1 DRK      0.403000
     43 HAL         6.8990   -0.7810   -0.0330 h1        1 DRK      0.048200
     44 HALA        6.9520    0.4950   -1.3510 h1        1 DRK      0.048200
     45 HOAB        7.6960    1.8720    0.4820 ho        1 DRK      0.413000
     46 HNAQ       -2.8970   -1.7770    0.8210 hn        1 DRK      0.293700
@<TRIPOS>BOND
     1    1    2 2   
     2    2    3 1   
     3    2   10 1   
     4    3    4 2   
     5    4    5 ar  
     6    4    9 ar  
     7    5    6 ar  
     8    5   28 1   
     9    6    7 ar  
    10    6   29 1   
    11    7    8 ar  
    12    7   30 1   
    13    8    9 ar  
    14    8   31 1   
    15    9   10 2   
    16   10   11 1   
    17   11   12 1   
    18   11   19 2   
    19   12   13 1   
    20   12   46 1   
    21   13   14 ar  
    22   13   18 ar  
    23   14   15 ar  
    24   14   32 1   
    25   15   16 ar  
    26   15   33 1   
    27   16   17 ar  
    28   16   34 1   
    29   17   18 ar  
    30   17   35 1   
    31   18   19 1   
    32   19   20 1   
    33   20   21 1   
    34   20   36 1   
    35   21   22 1   
    36   22   23 1   
    37   22   37 1   
    38   22   38 1   
    39   23   24 1   
    40   23   39 1   
    41   23   40 1   
    42   24   25 1   
    43   24   26 1   
    44   24   41 1   
    45   25   42 1   
    46   26   27 1   
    47   26   43 1   
    48   26   44 1   
    49   27   45 1   
@<TRIPOS>SUBSTRUCTURE
     1 DRK         1 TEMP              0 ****  ****    0 ROOT
