@<TRIPOS>MOLECULE
DRK
   46    49     1     0     0
SMALL
bcc


@<TRIPOS>ATOM
      1 OAA         0.3030    1.2830   -0.0340 o         1 DRK     -0.474100
      2 CAS         1.3910    0.7330    0.1040 c         1 DRK      0.678700
      3 NAP         1.9690    0.3150    1.3760 nc        1 DRK     -0.333400
      4 CAW         3.1160   -0.2680    1.0860 ca        1 DRK      0.088000
      5 CAH         4.0890   -0.8600    1.9820 ca        1 DRK     -0.141000
      6 CAE         5.2190   -1.4030    1.4730 ca        1 DRK     -0.074000
      7 CAG         5.5030   -1.4100    0.0570 ca        1 DRK     -0.149000
      8 CAK         4.6380   -0.8820   -0.8440 ca        1 DRK     -0.076000
      9 CAZ         3.4110   -0.2980   -0.3970 ca        1 DRK     -0.139000
     10 CAV         2.3640    0.3220   -1.0270 cc        1 DRK     -0.054200
     11 CAT         2.1210    0.5080   -2.4140 cc        1 DRK     -0.094100
     12 NAQ         2.6290   -0.4130   -3.3730 na        1 DRK     -0.174400
     13 CAX         2.1900   -0.0150   -4.6330 ca        1 DRK     -0.012200
     14 CAI         2.3700   -0.6210   -5.8910 ca        1 DRK     -0.161000
     15 CAD         1.8730    0.0390   -7.0020 ca        1 DRK     -0.088000
     16 CAF         1.2070    1.2750   -6.8920 ca        1 DRK     -0.173000
     17 CAJ         1.0210    1.8830   -5.6610 ca        1 DRK     -0.055000
     18 CAY         1.5030    1.2480   -4.5130 ca        1 DRK     -0.121800
     19 CAU         1.4680    1.5680   -3.0950 cd        1 DRK      0.123800
     20 NAO         1.0480    2.7720   -2.4900 nu        1 DRK     -0.438500
     21 OAR         0.3270    3.5660   -3.3040 os        1 DRK     -0.246100
     22 CAM         1.0270    4.7820   -3.6940 c3        1 DRK      0.133400
     23 CAN        -0.0150    5.5990   -4.4340 c3        1 DRK     -0.087400
     24 CBA         0.5970    6.9010   -4.9340 c3        1 DRK      0.147100
     25 OAC         0.9210    7.6860   -3.7960 oh        1 DRK     -0.601800
     26 CAL        -0.4060    7.6420   -5.8280 c3        1 DRK      0.091400
     27 OAB         0.2370    8.8420   -6.2290 oh        1 DRK     -0.611800
     28 HAH         3.8740   -0.8470    3.0620 ha        1 DRK      0.159000
     29 HAE         5.9700   -1.8590    2.1390 ha        1 DRK      0.140000
     30 HAG         6.4560   -1.8550   -0.2660 ha        1 DRK      0.140000
     31 HAK         4.8690   -0.8680   -1.9200 ha        1 DRK      0.144000
     32 HAI         2.8900   -1.5830   -5.9830 ha        1 DRK      0.137000
     33 HAD         1.9970   -0.4120   -7.9980 ha        1 DRK      0.133000
     34 HAF         0.8300    1.7590   -7.8040 ha        1 DRK      0.133000
     35 HAJ         0.5000    2.8490   -5.5710 ha        1 DRK      0.148000
     36 HNAO        0.4600    2.5750   -1.6770 hn        1 DRK      0.423800
     37 HAM         1.3950    5.3300   -2.7900 h1        1 DRK      0.057200
     38 HAMA        1.8890    4.5130   -4.3570 h1        1 DRK      0.057200
     39 HAN        -0.8720    5.8220   -3.7470 hc        1 DRK      0.062700
     40 HANA       -0.4100    5.0180   -5.3070 hc        1 DRK      0.062700
     41 HBA         1.5360    6.6990   -5.5220 h1        1 DRK      0.048700
     42 HOAC        1.2080    8.5470   -4.1280 ho        1 DRK      0.420000
     43 HAL        -1.3400    7.8740   -5.2530 h1        1 DRK      0.036700
     44 HALA       -0.6590    7.0220   -6.7270 h1        1 DRK      0.036700
     45 HOAB       -0.4210    9.3700   -6.6940 ho        1 DRK      0.410000
     46 HNAQ        2.8260   -1.3530   -3.1350 hn        1 DRK      0.292700
@<TRIPOS>BOND
     1    1    2 2   
     2    2    3 1   
     3    2   10 1   
     4    3    4 2   
     5    4    5 ar  
     6    4    9 ar  
     7    5    6 ar  
     8    5   28 1   
     9    6    7 ar  
    10    6   29 1   
    11    7    8 ar  
    12    7   30 1   
    13    8    9 ar  
    14    8   31 1   
    15    9   10 2   
    16   10   11 1   
    17   11   12 1   
    18   11   19 2   
    19   12   13 1   
    20   12   46 1   
    21   13   14 ar  
    22   13   18 ar  
    23   14   15 ar  
    24   14   32 1   
    25   15   16 ar  
    26   15   33 1   
    27   16   17 ar  
    28   16   34 1   
    29   17   18 ar  
    30   17   35 1   
    31   18   19 1   
    32   19   20 1   
    33   20   21 1   
    34   20   36 1   
    35   21   22 1   
    36   22   23 1   
    37   22   37 1   
    38   22   38 1   
    39   23   24 1   
    40   23   39 1   
    41   23   40 1   
    42   24   25 1   
    43   24   26 1   
    44   24   41 1   
    45   25   42 1   
    46   26   27 1   
    47   26   43 1   
    48   26   44 1   
    49   27   45 1   
@<TRIPOS>SUBSTRUCTURE
     1 DRK         1 TEMP              0 ****  ****    0 ROOT
