@<TRIPOS>MOLECULE
DRL
   22    23     1     0     0
SMALL
bcc


@<TRIPOS>ATOM
      1 C1A        -0.0360   -0.0180   -0.0180 c3        1 DRL     -0.145400
      2 C1I         1.4730   -0.0080    0.0470 cc        1 DRL      0.496900
      3 N1G         2.0830    0.0110    1.2260 nd        1 DRL     -0.638300
      4 C1J         3.4770    0.0230    1.2570 cd        1 DRL      0.187400
      5 C1D         4.0880    0.0770    2.6300 c3        1 DRL     -0.035200
      6 C1C         5.4560   -0.5500    2.6860 c3        1 DRL     -0.021300
      7 S1H         6.5740    0.2020    1.5530 ss        1 DRL     -0.281200
      8 C1E         5.7110    0.0200    0.0270 c3        1 DRL      0.040900
      9 C1K         4.2390    0.0160    0.1080 cc        1 DRL     -0.236400
     10 C1L         3.5620   -0.0110   -1.2000 c         1 DRL      0.693700
     11 O1B         4.1300   -0.0230   -2.3080 o         1 DRL     -0.629500
     12 N1F         2.1530   -0.0200   -1.1690 n         1 DRL     -0.481400
     13 H1A        -0.3950    0.8870   -0.5690 hc        1 DRL      0.070700
     14 H1AA       -0.4790   -0.0110    1.0080 hc        1 DRL      0.070700
     15 H1AB       -0.3840   -0.9360   -0.5520 hc        1 DRL      0.070700
     16 H1D         4.1480    1.1600    2.9320 hc        1 DRL      0.079700
     17 H1DA        3.4190   -0.4380    3.3740 hc        1 DRL      0.079700
     18 H1C         5.3850   -1.6490    2.4970 h1        1 DRL      0.078700
     19 H1CA        5.9040   -0.4010    3.7000 h1        1 DRL      0.078700
     20 H1E         6.0510    0.8750   -0.6200 h1        1 DRL      0.092700
     21 H1EA        6.0440   -0.9230   -0.4830 h1        1 DRL      0.092700
     22 HN1F        1.6490   -0.0340   -2.0270 hn        1 DRL      0.336500
@<TRIPOS>BOND
     1    1    2 1   
     2    1   13 1   
     3    1   14 1   
     4    1   15 1   
     5    2    3 2   
     6    2   12 1   
     7    3    4 1   
     8    4    5 1   
     9    4    9 2   
    10    5    6 1   
    11    5   16 1   
    12    5   17 1   
    13    6    7 1   
    14    6   18 1   
    15    6   19 1   
    16    7    8 1   
    17    8    9 1   
    18    8   20 1   
    19    8   21 1   
    20    9   10 1   
    21   10   11 2   
    22   10   12 1   
    23   12   22 1   
@<TRIPOS>SUBSTRUCTURE
     1 DRL         1 TEMP              0 ****  ****    0 ROOT
