@<TRIPOS>MOLECULE
DRL
   22    23     1     0     0
SMALL
bcc


@<TRIPOS>ATOM
      1 C1A         3.7150    1.2360    0.0900 c3        1 DRL     -0.145400
      2 C1I         2.3280    0.6400    0.0360 cc        1 DRL      0.496900
      3 N1G         1.2650    1.4360    0.0660 nd        1 DRL     -0.638300
      4 C1J        -0.0030    0.8590    0.0170 cd        1 DRL      0.187400
      5 C1D        -1.1510    1.8260    0.0890 c3        1 DRL     -0.035200
      6 C1C        -2.3900    1.3140   -0.5970 c3        1 DRL     -0.021300
      7 S1H        -2.9240   -0.2260    0.0670 ss        1 DRL     -0.281200
      8 C1E        -1.4780   -1.2170   -0.1240 c3        1 DRL      0.040900
      9 C1K        -0.1880   -0.5050   -0.0600 cc        1 DRL     -0.236400
     10 C1L         0.9910   -1.3870   -0.0990 c         1 DRL      0.693700
     11 O1B         0.9620   -2.6300   -0.1720 o         1 DRL     -0.629500
     12 N1F         2.2450   -0.7490   -0.0460 n         1 DRL     -0.481400
     13 H1A         3.6670    2.3510    0.1510 hc        1 DRL      0.070700
     14 H1AA        4.2540    0.8520    0.9900 hc        1 DRL      0.070700
     15 H1AB        4.2830    0.9520   -0.8300 hc        1 DRL      0.070700
     16 H1D        -1.3650    2.0190    1.1770 hc        1 DRL      0.079700
     17 H1DA       -0.8600    2.8110   -0.3710 hc        1 DRL      0.079700
     18 H1C        -3.2390    2.0260   -0.4360 h1        1 DRL      0.078700
     19 H1CA       -2.2160    1.2280   -1.6970 h1        1 DRL      0.078700
     20 H1E        -1.5250   -1.9860    0.6940 h1        1 DRL      0.092700
     21 H1EA       -1.5320   -1.7750   -1.0960 h1        1 DRL      0.092700
     22 HN1F        3.0730   -1.3010   -0.0650 hn        1 DRL      0.336500
@<TRIPOS>BOND
     1    1    2 1   
     2    1   13 1   
     3    1   14 1   
     4    1   15 1   
     5    2    3 2   
     6    2   12 1   
     7    3    4 1   
     8    4    5 1   
     9    4    9 2   
    10    5    6 1   
    11    5   16 1   
    12    5   17 1   
    13    6    7 1   
    14    6   18 1   
    15    6   19 1   
    16    7    8 1   
    17    8    9 1   
    18    8   20 1   
    19    8   21 1   
    20    9   10 1   
    21   10   11 2   
    22   10   12 1   
    23   12   22 1   
@<TRIPOS>SUBSTRUCTURE
     1 DRL         1 TEMP              0 ****  ****    0 ROOT
