@<TRIPOS>MOLECULE
DRL
   22    23     1     0     0
SMALL
bcc


@<TRIPOS>ATOM
      1 C1A        -0.0330   -0.0240   -0.0300 c3        1 DRL     -0.145400
      2 C1I         1.4750   -0.0110    0.0400 cc        1 DRL      0.496900
      3 N1G         2.0810    0.0080    1.2220 nd        1 DRL     -0.638300
      4 C1J         3.4740    0.0220    1.2570 cd        1 DRL      0.187400
      5 C1D         4.0800    0.0760    2.6320 c3        1 DRL     -0.035200
      6 C1C         5.4490   -0.5490    2.6920 c3        1 DRL     -0.021300
      7 S1H         6.5700    0.2060    1.5650 ss        1 DRL     -0.281200
      8 C1E         5.7130    0.0260    0.0350 c3        1 DRL      0.040900
      9 C1K         4.2400    0.0190    0.1120 cc        1 DRL     -0.236400
     10 C1L         3.5680   -0.0070   -1.1990 c         1 DRL      0.693700
     11 O1B         4.1400   -0.0170   -2.3050 o         1 DRL     -0.629500
     12 N1F         2.1600   -0.0200   -1.1740 ns        1 DRL     -0.481400
     13 H1A        -0.4800   -0.0190    0.9940 hc        1 DRL      0.070700
     14 H1AA       -0.3920    0.8800   -0.5820 hc        1 DRL      0.070700
     15 H1AB       -0.3780   -0.9430   -0.5660 hc        1 DRL      0.070700
     16 H1D         4.1370    1.1580    2.9360 hc        1 DRL      0.079700
     17 H1DA        3.4100   -0.4410    3.3740 hc        1 DRL      0.079700
     18 H1C         5.8930   -0.4010    3.7090 h1        1 DRL      0.078700
     19 H1CA        5.3810   -1.6480    2.5020 h1        1 DRL      0.078700
     20 H1E         6.0500   -0.9150   -0.4750 h1        1 DRL      0.092700
     21 H1EA        6.0530    0.8820   -0.6080 h1        1 DRL      0.092700
     22 HN1F        1.6580   -0.0330   -2.0330 hn        1 DRL      0.336500
@<TRIPOS>BOND
     1    1    2 1   
     2    1   13 1   
     3    1   14 1   
     4    1   15 1   
     5    2    3 2   
     6    2   12 1   
     7    3    4 1   
     8    4    5 1   
     9    4    9 2   
    10    5    6 1   
    11    5   16 1   
    12    5   17 1   
    13    6    7 1   
    14    6   18 1   
    15    6   19 1   
    16    7    8 1   
    17    8    9 1   
    18    8   20 1   
    19    8   21 1   
    20    9   10 1   
    21   10   11 2   
    22   10   12 1   
    23   12   22 1   
@<TRIPOS>SUBSTRUCTURE
     1 DRL         1 TEMP              0 ****  ****    0 ROOT
