@<TRIPOS>MOLECULE
DRL
   22    22     1     0     0
SMALL
bcc


@<TRIPOS>ATOM
      1 C1A        -3.6020   -0.2900   -0.5730 c3        1 DRL     -0.188000
      2 C1I        -2.0840   -0.2900   -0.5730 c2        1 DRL      0.127000
      3 N1G        -1.3280   -0.2900    0.7400 n1        1 DRL     -0.210000
      4 C1J         0.0410   -0.0560    0.7500 c1        1 DRL      0.051000
      5 C1D         0.7950    0.4880    2.0320 c3        1 DRL     -0.118000
      6 C1C         2.3640    0.2500    1.9540 c3        1 DRL     -0.282000
      7 S1H         2.9500    0.6610    0.8300 ss        1 DRL      0.083000
      8 C1E         2.3310   -0.0220   -0.6440 c3        1 DRL     -0.224000
      9 C1K         0.8680    0.0950   -0.7190 c2        1 DRL     -0.213000
     10 C1L         0.1350   -0.0150   -1.9550 c2        1 DRL      0.332000
     11 O1B         0.7220    0.0400   -3.0160 o         1 DRL     -0.354000
     12 N1F        -1.3060   -0.3180   -1.9260 n         1 DRL     -0.321000
     13 H1A        -3.9270   -0.1930    0.3420 hc        1 DRL      0.110000
     14 H1AA       -3.9270    0.4540   -1.1150 hc        1 DRL      0.110000
     15 H1AB       -3.9270   -1.1310   -0.9470 hc        1 DRL      0.110000
     16 H1D         0.3660    0.0980    2.8180 hc        1 DRL      0.119000
     17 H1DA        0.6310    1.4380    2.1840 hc        1 DRL      0.119000
     18 H1C         2.7800    0.7160    2.7040 h1        1 DRL      0.118000
     19 H1CA        2.5330   -0.7060    2.0550 h1        1 DRL      0.118000
     20 H1E         2.5810   -0.9300   -0.9000 h1        1 DRL      0.132000
     21 H1EA        2.7500    0.5160   -1.3430 h1        1 DRL      0.132000
     22 HN1F       -1.7450   -0.5170   -2.7000 hn        1 DRL      0.250000
@<TRIPOS>BOND
     1    1    2 1   
     2    1   13 1   
     3    1   14 1   
     4    1   15 1   
     5    2    3 1   
     6    2   12 1   
     7    4    5 1   
     8    4    9 1   
     9    5    6 1   
    10    5   16 1   
    11    5   17 1   
    12    6    7 1   
    13    6   18 1   
    14    6   19 1   
    15    7    8 1   
    16    8    9 1   
    17    8   20 1   
    18    8   21 1   
    19    9   10 1   
    20   10   11 1   
    21   10   12 1   
    22   12   22 1   
@<TRIPOS>SUBSTRUCTURE
     1 DRL         1 TEMP              0 ****  ****    0 ROOT
