@<TRIPOS>MOLECULE
DRL
   22    23     1     0     0
SMALL
bcc


@<TRIPOS>ATOM
      1 C1A        -0.0330   -0.0050   -0.0250 c3        1 DRL     -0.145400
      2 C1I         1.4760   -0.0020    0.0430 cc        1 DRL      0.496900
      3 N1G         2.0840    0.0240    1.2230 nd        1 DRL     -0.638300
      4 C1J         3.4770    0.0290    1.2560 cd        1 DRL      0.187400
      5 C1D         4.0870    0.0900    2.6300 c3        1 DRL     -0.035200
      6 C1C         5.4510   -0.5430    2.6930 c3        1 DRL     -0.021300
      7 S1H         6.5750    0.1930    1.5570 ss        1 DRL     -0.281200
      8 C1E         5.7140    0.0050    0.0300 c3        1 DRL      0.040900
      9 C1K         4.2410    0.0090    0.1090 cc        1 DRL     -0.236400
     10 C1L         3.5670   -0.0250   -1.2000 c         1 DRL      0.693700
     11 O1B         4.1370   -0.0480   -2.3070 o         1 DRL     -0.629500
     12 N1F         2.1580   -0.0270   -1.1720 n         1 DRL     -0.481400
     13 H1A        -0.3840   -0.9260   -0.5510 hc        1 DRL      0.070700
     14 H1AA       -0.3860    0.8960   -0.5850 hc        1 DRL      0.070700
     15 H1AB       -0.4780    0.0140    1.0000 hc        1 DRL      0.070700
     16 H1D         3.4140   -0.4150    3.3770 hc        1 DRL      0.079700
     17 H1DA        4.1520    1.1750    2.9240 hc        1 DRL      0.079700
     18 H1C         5.8980   -0.3900    3.7080 h1        1 DRL      0.078700
     19 H1CA        5.3750   -1.6440    2.5130 h1        1 DRL      0.078700
     20 H1E         6.0590    0.8530   -0.6220 h1        1 DRL      0.092700
     21 H1EA        6.0430   -0.9440   -0.4720 h1        1 DRL      0.092700
     22 HN1F        1.6550   -0.0450   -2.0310 hn        1 DRL      0.336500
@<TRIPOS>BOND
     1    1    2 1   
     2    1   13 1   
     3    1   14 1   
     4    1   15 1   
     5    2    3 2   
     6    2   12 1   
     7    3    4 1   
     8    4    5 1   
     9    4    9 2   
    10    5    6 1   
    11    5   16 1   
    12    5   17 1   
    13    6    7 1   
    14    6   18 1   
    15    6   19 1   
    16    7    8 1   
    17    8    9 1   
    18    8   20 1   
    19    8   21 1   
    20    9   10 1   
    21   10   11 2   
    22   10   12 1   
    23   12   22 1   
@<TRIPOS>SUBSTRUCTURE
     1 DRL         1 TEMP              0 ****  ****    0 ROOT
