@<TRIPOS>MOLECULE
DRM
   32    32     1     0     0
SMALL
bcc


@<TRIPOS>ATOM
      1 OP2        -4.4420    2.4600    2.5650 o         1 DRM     -0.937833
      2 P          -2.9350    2.4550    2.5220 p5        1 DRM      1.624500
      3 OP1        -2.3910    2.3910    3.9320 o         1 DRM     -0.937833
      4 OP3        -2.4470    3.7140    1.8510 o         1 DRM     -0.937833
      5 C6'        -2.3600    1.0060    1.5850 c3        1 DRM     -0.603000
      6 O5'        -0.9440    1.0450    1.4780 os        1 DRM     -0.245000
      7 C5'        -0.3800   -0.0940    0.8090 c3        1 DRM      0.047000
      8 C4'         0.1420   -0.9460    1.7020 c3        1 DRM     -0.286000
      9 C3'         1.7130   -0.5250    1.8690 c3        1 DRM     -0.137000
     10 C2'         2.1410   -0.1500    0.6300 c3        1 DRM     -0.171000
     11 C1'         0.8570    0.3560   -0.1100 c3        1 DRM      0.001000
     12 N1          0.7680   -0.1970   -1.2950 n         1 DRM     -0.226000
     13 C6          0.8070   -1.6060   -1.4220 c2        1 DRM      0.089000
     14 C5          0.7300   -2.2210   -2.7500 c1        1 DRM     -0.375000
     15 C4          0.5530   -1.3760   -3.9360 c1        1 DRM      0.360000
     16 O4          0.4880   -1.8820   -5.0390 o         1 DRM     -0.407000
     17 N3          0.5250    0.0310   -3.8000 n         1 DRM     -0.377000
     18 C2          0.7110    0.6410   -2.4870 c2        1 DRM      0.387000
     19 O2          0.7980    1.8480   -2.3850 o         1 DRM     -0.371000
     20 H6'1       -2.7560    1.0190    0.6890 h1        1 DRM      0.050000
     21 H6'2       -2.6300    0.1880    2.0510 h1        1 DRM      0.050000
     22 H5'        -1.0610   -0.5440    0.2680 h1        1 DRM      0.039000
     23 H4'1        0.0730   -1.8670    1.3700 hc        1 DRM      0.157500
     24 H4'2       -0.3230   -0.8610    2.5610 hc        1 DRM      0.157500
     25 H3'1        1.7960    0.2220    2.4940 hc        1 DRM      0.055500
     26 H3'2        2.2340   -1.2910    2.1880 hc        1 DRM      0.055500
     27 H2'         2.5260   -0.9160    0.1580 hc        1 DRM      0.090000
     28 H2''        2.8010    0.5730    0.7020 hc        1 DRM      0.090000
     29 H1'         0.8780    1.3300   -0.1930 h1        1 DRM      0.157000
     30 H6          0.9250   -2.1680   -0.6270 h4        1 DRM      0.195000
     31 H5          0.7680   -3.1920   -2.8430 ha        1 DRM      0.161000
     32 H3          0.4340    0.5590   -4.5390 hn        1 DRM      0.245000
@<TRIPOS>BOND
     1    1    2 1   
     2    2    3 1   
     3    2    4 1   
     4    2    5 1   
     5    5    6 1   
     6    5   20 1   
     7    5   21 1   
     8    6    7 1   
     9    7    8 1   
    10    7   11 1   
    11    7   22 1   
    12    8    9 1   
    13    8   23 1   
    14    8   24 1   
    15    9   10 1   
    16    9   25 1   
    17    9   26 1   
    18   10   11 1   
    19   10   27 1   
    20   10   28 1   
    21   11   12 1   
    22   11   29 1   
    23   12   13 1   
    24   12   18 1   
    25   13   14 1   
    26   13   30 1   
    27   14   31 1   
    28   15   16 1   
    29   15   17 1   
    30   17   18 1   
    31   17   32 1   
    32   18   19 1   
@<TRIPOS>SUBSTRUCTURE
     1 DRM         1 TEMP              0 ****  ****    0 ROOT
