@<TRIPOS>MOLECULE
DRM
   32    34     1     0     0
SMALL
bcc


@<TRIPOS>ATOM
      1 OP2        -0.8380    2.4420    2.5130 o         1 DRM     -0.860000
      2 P          -1.3150    1.3610    1.6200 p5        1 DRM      1.373600
      3 OP1        -0.7290    1.8050    0.1320 os        1 DRM     -0.638200
      4 OP3        -2.7570    1.0300    1.5970 o         1 DRM     -0.860000
      5 C6'        -0.4760   -0.1230    1.8830 c3        1 DRM     -0.112800
      6 O5'         0.9120    0.1640    2.0330 os        1 DRM     -0.404600
      7 C5'         1.7380   -0.3960    1.0200 c3        1 DRM      0.119100
      8 C4'         3.1880   -0.3390    1.5090 c3        1 DRM     -0.074400
      9 C3'         4.0430    0.0870    0.3210 c3        1 DRM     -0.067400
     10 C2'         3.1150    0.3120   -0.8650 c3        1 DRM     -0.094400
     11 C1'         1.7020    0.4860   -0.2670 c3        1 DRM      0.095700
     12 N1          0.5950    0.2380   -1.1510 n         1 DRM     -0.487800
     13 C6         -0.5530    1.2030   -1.1170 c3        1 DRM      0.521700
     14 C5         -1.7840    0.6760   -1.7510 c2        1 DRM     -0.604200
     15 C4         -1.8350   -0.4770   -2.5140 c2        1 DRM      0.405000
     16 O4         -2.7950   -0.9430   -3.2090 o         1 DRM     -0.563000
     17 N3         -0.6420   -1.2820   -2.5580 n         1 DRM     -0.597500
     18 C2          0.4610   -1.0190   -1.7550 c         1 DRM      0.792500
     19 O2          1.3610   -1.9160   -1.6640 o         1 DRM     -0.807500
     20 H6'1       -0.6790   -0.8570    1.0690 h1        1 DRM      0.049700
     21 H6'2       -0.7910   -0.6020    2.8450 h1        1 DRM      0.049700
     22 H5'         1.4340   -1.4510    0.7870 h1        1 DRM      0.058700
     23 H4'1        3.5050   -1.3390    1.8940 hc        1 DRM      0.033700
     24 H4'2        3.2750    0.3960    2.3480 hc        1 DRM      0.033700
     25 H3'1        4.8040   -0.6960    0.0800 hc        1 DRM      0.011200
     26 H3'2        4.6000    1.0260    0.5660 hc        1 DRM      0.011200
     27 H2'         3.1460   -0.5690   -1.5560 hc        1 DRM      0.047200
     28 H2''        3.4080    1.2210   -1.4430 hc        1 DRM      0.047200
     29 H1'         1.6130    1.5650    0.0670 h1        1 DRM      0.090700
     30 H6         -0.1500    2.0750   -1.7470 h2        1 DRM     -0.006300
     31 H5         -2.6970    1.2480   -1.5820 ha        1 DRM      0.145000
     32 H3         -0.6860   -2.1780   -2.9780 hn        1 DRM      0.292500
@<TRIPOS>BOND
     1    1    2 1   
     2    2    3 1   
     3    2    4 1   
     4    2    5 1   
     5    3   13 1   
     6    5    6 1   
     7    5   20 1   
     8    5   21 1   
     9    6    7 1   
    10    7    8 1   
    11    7   11 1   
    12    7   22 1   
    13    8    9 1   
    14    8   23 1   
    15    8   24 1   
    16    9   10 1   
    17    9   25 1   
    18    9   26 1   
    19   10   11 1   
    20   10   27 1   
    21   10   28 1   
    22   11   12 1   
    23   11   29 1   
    24   12   13 1   
    25   12   18 1   
    26   13   14 1   
    27   13   30 1   
    28   14   15 2   
    29   14   31 1   
    30   15   16 1   
    31   15   17 1   
    32   17   18 1   
    33   17   32 1   
    34   18   19 2   
@<TRIPOS>SUBSTRUCTURE
     1 DRM         1 TEMP              0 ****  ****    0 ROOT
