@<TRIPOS>MOLECULE
DRN
   56    50     1     0     0
SMALL
bcc


@<TRIPOS>ATOM
      1 CBD         4.1050   -5.7240   -3.2820 c1        1 DRN     -0.026000
      2 NBC         5.1120   -5.6130   -2.4510 n1        1 DRN     -0.272000
      3 CBF         0.9460   -3.2220   -2.0550 c3        1 DRN     -0.181000
      4 CBE         2.1260   -3.6220   -2.9330 c3        1 DRN     -0.260000
      5 CAY         2.3240    3.7930    3.6050 c3        1 DRN     -0.072000
      6 NAH         1.2060    3.2780    2.8660 n3        1 DRN     -0.159000
      7 CAW         0.5800    2.0890    3.1500 c1        1 DRN     -0.017000
      8 CAE         0.5210    3.8860    1.8210 c1        1 DRN     -0.011000
      9 CAF         0.6710    5.1480    1.2070 c1        1 DRN     -0.137000
     10 CAA        -0.2420    5.5650    0.2420 c1        1 DRN     -0.131750
     11 CAB        -1.3030    4.7370   -0.1180 c1        1 DRN     -0.131750
     12 CAC        -1.4520    3.4910    0.4870 c1        1 DRN     -0.090000
     13 CAD        -0.5280    3.0680    1.4650 c1        1 DRN     -0.058000
     14 CAG        -0.4960    1.9530    2.2860 c1        1 DRN     -0.137000
     15 CAI        -0.5490    0.5080    2.8010 c1        1 DRN     -0.042000
     16 CAT        -1.0650    0.3810    4.3870 c2        1 DRN      0.340000
     17 OAZ        -0.9690   -0.6770    4.9780 o         1 DRN     -0.315000
     18 NAU        -2.3220    0.7480    4.2150 n         1 DRN     -0.410000
     19 CAV        -2.6290    0.1570    2.6890 c2        1 DRN      0.345000
     20 OAX        -3.6150   -0.4720    2.3510 o         1 DRN     -0.295000
     21 CAJ        -1.2660   -0.0260    2.1690 c2        1 DRN     -0.026000
     22 CAK        -1.0290   -0.1340    0.6590 c2        1 DRN     -0.126000
     23 CAM        -2.1460   -0.1190   -0.2470 c2        1 DRN     -0.051000
     24 CAP        -3.4230    0.4060   -0.2480 c2        1 DRN     -0.073000
     25 CAQ        -4.2700    0.2070   -1.3630 c1        1 DRN     -0.152000
     26 CAR        -3.8010   -0.5450   -2.5030 c1        1 DRN     -0.131750
     27 CAS        -2.4900   -1.0860   -2.5080 c1        1 DRN     -0.131750
     28 CAN        -1.6620   -0.8950   -1.4250 c1        1 DRN     -0.008000
     29 NAO        -0.1610   -1.3190   -1.0300 n3        1 DRN     -0.160000
     30 CAL         0.0160   -0.7850    0.2040 c2        1 DRN     -0.027000
     31 CA0         0.8820   -1.6930   -1.9490 c3        1 DRN     -0.014000
     32 SAT         2.4530   -5.3630   -2.7310 s         1 DRN      0.081000
     33 NAB         4.3350   -6.1330   -4.6300 n3        1 DRN     -0.330000
     34 HBC         4.9660   -5.3510   -1.5890 DU        1 DRN      0.181000
     35 HAB1        3.6290   -6.2340   -5.2030 hn        1 DRN      0.188500
     36 HAB2        5.1920   -6.2520   -4.9330 hn        1 DRN      0.188500
     37 HBF1        0.1130   -3.5570   -2.4530 hc        1 DRN      0.111500
     38 HBF2        1.0580   -3.6080   -1.1590 hc        1 DRN      0.111500
     39 HBE1        1.9130   -3.4360   -3.8730 h1        1 DRN      0.110500
     40 HBE2        2.9190   -3.1080   -2.6690 h1        1 DRN      0.110500
     41 HA01        1.7450   -1.3510   -1.6230 h1        1 DRN      0.103000
     42 HA02        0.6920   -1.3110   -2.8350 h1        1 DRN      0.103000
     43 HAY1        2.0170    4.5080    4.2080 h1        1 DRN      0.093333
     44 HAY2        2.7300    3.0700    4.1330 h1        1 DRN      0.093333
     45 HAY3        2.9900    4.1560    2.9800 h1        1 DRN      0.093333
     46 HAW         0.8150    1.4740    3.8790 DU        1 DRN      0.181000
     47 HAF         1.4180    5.7310    1.4610 ha        1 DRN      0.133000
     48 HAA        -0.1370    6.4430   -0.1850 ha        1 DRN      0.131000
     49 HAB        -1.9460    5.0310   -0.7990 ha        1 DRN      0.131000
     50 HAC        -2.1970    2.9100    0.2340 ha        1 DRN      0.152000
     51 HAU        -2.9410    0.8750    4.8780 hn        1 DRN      0.260000
     52 HAL         0.6480   -1.1990    0.8320 h4        1 DRN      0.181000
     53 HAP        -3.7430    0.9170    0.5250 ha        1 DRN      0.156000
     54 HAQ        -5.1770    0.5800   -1.3620 ha        1 DRN      0.133000
     55 HAR        -4.3900   -0.6810   -3.2750 ha        1 DRN      0.131000
     56 HAS        -2.1740   -1.5960   -3.2820 ha        1 DRN      0.131000
@<TRIPOS>BOND
     1    1    2 1   
     2    1   33 1   
     3    3    4 1   
     4    3   31 1   
     5    3   37 1   
     6    3   38 1   
     7    4   32 1   
     8    4   39 1   
     9    4   40 1   
    10    5    6 1   
    11    5   43 1   
    12    5   44 1   
    13    5   45 1   
    14    6    7 1   
    15    6    8 1   
    16    7   14 1   
    17    8    9 1   
    18    9   47 1   
    19   10   11 1   
    20   10   48 1   
    21   11   49 1   
    22   12   13 1   
    23   12   50 1   
    24   15   16 1   
    25   15   21 1   
    26   16   17 1   
    27   16   18 1   
    28   18   19 1   
    29   18   51 1   
    30   19   20 1   
    31   19   21 1   
    32   21   22 1   
    33   22   23 1   
    34   22   30 1   
    35   23   24 1   
    36   23   28 1   
    37   24   25 1   
    38   24   53 1   
    39   25   54 1   
    40   26   27 1   
    41   26   55 1   
    42   27   56 1   
    43   28   29 1   
    44   29   30 1   
    45   29   31 1   
    46   30   52 1   
    47   31   41 1   
    48   31   42 1   
    49   33   35 1   
    50   33   36 1   
@<TRIPOS>SUBSTRUCTURE
     1 DRN         1 TEMP              0 ****  ****    0 ROOT
