@<TRIPOS>MOLECULE
DRN
   57    62     1     0     0
SMALL
bcc


@<TRIPOS>ATOM
      1 CBD        -3.0180    0.4530   -3.2320 c2        1 DRN      0.636500
      2 NBC        -2.2500    1.3310   -3.7420 n2        1 DRN     -0.822100
      3 CBF        -2.0160   -0.2240    0.7380 c3        1 DRN     -0.080400
      4 CBE        -2.3570   -0.7790   -0.6180 c3        1 DRN      0.150900
      5 NAH        -6.2730    0.4240    8.2300 nh        1 DRN     -0.612400
      6 CAW        -7.1670   -0.2730    7.4730 c2        1 DRN      0.202000
      7 CAE        -5.2350    1.0160    7.3730 c3        1 DRN      0.235900
      8 CAF        -3.7950    0.6330    7.6840 c2        1 DRN     -0.162200
      9 CAA        -2.8730    0.4930    6.7100 ce        1 DRN     -0.125000
     10 CAB        -3.2700    0.8020    5.3200 ce        1 DRN     -0.149100
     11 CAC        -4.5680    0.6040    5.1220 c1        1 DRN     -0.099800
     12 CAD        -5.5720    0.4230    5.9690 ce        1 DRN     -0.034300
     13 CAG        -6.8000   -0.3280    6.1050 ce        1 DRN     -0.225000
     14 CAI        -7.5580   -0.9740    5.1120 cc        1 DRN      0.069800
     15 CAT        -8.9170   -1.5980    5.4650 c         1 DRN      0.694700
     16 OAZ        -9.4580   -1.6730    6.5710 o         1 DRN     -0.574500
     17 NAU        -9.4720   -2.0900    4.2710 n         1 DRN     -0.608500
     18 CAV        -8.5920   -1.8510    3.1930 c         1 DRN      0.718700
     19 OAX        -8.8110   -2.1700    2.0200 o         1 DRN     -0.590500
     20 CAJ        -7.3780   -1.1550    3.7600 cd        1 DRN     -0.214200
     21 CAK        -6.3010   -0.8450    2.8850 cf        1 DRN      0.004800
     22 CAM        -6.5100   -0.3070    1.4850 c3        1 DRN     -0.119600
     23 CAP        -7.2580    0.9510    1.2670 c2        1 DRN     -0.108200
     24 CAQ        -6.8890    1.7780    0.2680 ce        1 DRN     -0.148000
     25 CAR        -5.7450    1.4910   -0.5640 ce        1 DRN     -0.051000
     26 CAS        -4.8510    0.4930   -0.2830 cf        1 DRN     -0.049900
     27 CAN        -5.0740   -0.1970    0.9570 cf        1 DRN      0.402600
     28 NAO        -4.2300   -0.7110    1.8710 nh        1 DRN     -0.088300
     29 CAL        -4.9660   -1.1180    3.0360 c2        1 DRN     -0.113100
     30 CA0        -2.7920   -0.8860    1.8650 c3        1 DRN      0.013300
     31 SAT        -3.6220    0.1470   -1.4330 s4        1 DRN     -0.900600
     32 NAB        -3.6940   -0.4790   -4.2070 n4        1 DRN     -0.822600
     33 HBC        -1.8030    1.9670   -3.1220 hn        1 DRN      0.457400
     34 HAB1       -3.5550   -0.2650   -5.1990 hn        1 DRN      0.424133
     35 HAB2       -3.3440   -1.4180   -4.0180 hn        1 DRN      0.424133
     36 HBF1       -2.6440   -1.8560   -0.5390 h1        1 DRN      0.070200
     37 HBF2       -2.1710    0.8880    0.7550 hc        1 DRN      0.076200
     38 HBE1       -0.9280   -0.4100    0.9610 hc        1 DRN      0.076200
     39 HBE2       -1.4590   -0.7230   -1.2840 h1        1 DRN      0.070200
     40 HA01       -2.4180   -0.4750    2.8520 h1        1 DRN      0.082200
     41 HA02       -2.5960   -2.0000    1.8490 h1        1 DRN      0.082200
     42 HAY1       -7.2800    0.2470   10.0600 h1        1 DRN      0.066367
     43 HAY2       -6.7950    1.9490    9.5890 h1        1 DRN      0.066367
     44 HAY3       -5.5230    0.7590   10.1470 h1        1 DRN      0.066367
     45 HAW        -8.0580   -0.7380    7.9320 h4        1 DRN      0.214000
     46 HAF        -5.3060    2.1420    7.4270 h1        1 DRN      0.098700
     47 HAA        -3.5430    0.5430    8.7500 ha        1 DRN      0.152000
     48 HAB        -1.8210    0.2550    6.9160 ha        1 DRN      0.154000
     49 HAC        -2.5480    1.2450    4.6300 ha        1 DRN      0.154000
     50 HAU       -10.3430   -2.5550    4.2010 hn        1 DRN      0.362500
     51 HAL        -4.4240   -1.5480    3.8850 h4        1 DRN      0.208000
     52 HAP        -7.0600   -1.1220    0.9000 hc        1 DRN      0.180700
     53 HAQ        -8.1400    1.1170    1.9010 ha        1 DRN      0.164000
     54 HAR        -7.4570    2.6980    0.0510 ha        1 DRN      0.158000
     55 HAS        -5.5970    2.1280   -1.4520 ha        1 DRN      0.153000
     56 HAB3       -4.6910   -0.4500   -3.9900 hn        1 DRN      0.424133
     57 CAY        -6.4830    0.8690    9.5720 c3        1 DRN      0.188100
@<TRIPOS>BOND
     1    1    2 2   
     2    1   31 1   
     3    1   32 1   
     4    2   33 1   
     5    3    4 1   
     6    3   30 1   
     7    3   37 1   
     8    3   38 1   
     9    4   31 1   
    10    4   36 1   
    11    4   39 1   
    12    5    6 1   
    13    5    7 1   
    14    5   57 1   
    15    6   13 2   
    16    6   45 1   
    17    7    8 1   
    18    7   12 1   
    19    7   46 1   
    20    8    9 2   
    21    8   47 1   
    22    9   10 1   
    23    9   48 1   
    24   10   11 2   
    25   10   49 1   
    26   11   12 2   
    27   12   13 1   
    28   13   14 1   
    29   14   15 1   
    30   14   20 2   
    31   15   16 2   
    32   15   17 1   
    33   17   18 1   
    34   17   50 1   
    35   18   19 2   
    36   18   20 1   
    37   20   21 1   
    38   21   22 1   
    39   21   29 2   
    40   22   23 1   
    41   22   27 1   
    42   22   52 1   
    43   23   24 2   
    44   23   53 1   
    45   24   25 1   
    46   24   54 1   
    47   25   26 2   
    48   25   55 1   
    49   26   27 1   
    50   26   31 1   
    51   27   28 2   
    52   28   29 1   
    53   28   30 1   
    54   29   51 1   
    55   30   40 1   
    56   30   41 1   
    57   32   34 1   
    58   32   35 1   
    59   32   56 1   
    60   42   57 1   
    61   43   57 1   
    62   44   57 1   
@<TRIPOS>SUBSTRUCTURE
     1 DRN         1 TEMP              0 ****  ****    0 ROOT
