@<TRIPOS>MOLECULE
DRN
   56    60     1     0     0
SMALL
bcc


@<TRIPOS>ATOM
      1 CBD       -22.9580  -29.2580  -12.1920 c2        1 DRN      0.640100
      2 NBC       -24.0490  -29.2850  -12.8840 n2        1 DRN     -0.804100
      3 CBF       -19.4720  -28.8200  -11.0870 c3        1 DRN     -0.108400
      4 CBE       -20.1890  -29.9320  -11.8050 c3        1 DRN     -0.005300
      5 NAH       -14.0760  -26.3260  -14.0920 na        1 DRN     -0.066400
      6 CAW       -13.4920  -26.1220  -12.8480 cc        1 DRN     -0.043100
      7 CAE       -15.4710  -26.2350  -13.9430 ca        1 DRN     -0.056200
      8 CAF       -16.4980  -26.3370  -14.8930 ca        1 DRN     -0.137000
      9 CAA       -17.8040  -26.1890  -14.4510 ca        1 DRN     -0.117000
     10 CAB       -18.0960  -25.9400  -13.1000 ca        1 DRN     -0.154000
     11 CAC       -17.0900  -25.8380  -12.1490 ca        1 DRN     -0.094000
     12 CAD       -15.7610  -25.9960  -12.5460 ca        1 DRN     -0.069800
     13 CAG       -14.4810  -25.9430  -11.8630 cd        1 DRN     -0.125200
     14 CAI       -14.1940  -25.7030  -10.4910 cd        1 DRN     -0.062200
     15 CAT       -12.9070  -24.9790  -10.1260 c         1 DRN      0.701700
     16 OAZ       -11.9970  -24.5960  -10.8680 o         1 DRN     -0.591500
     17 NAU       -12.9070  -24.8260   -8.7260 n         1 DRN     -0.630500
     18 CAV       -14.0660  -25.4200   -8.1710 c         1 DRN      0.706700
     19 OAX       -14.2990  -25.4320   -6.9610 o         1 DRN     -0.570500
     20 CAJ       -14.8630  -25.9980   -9.3290 cc        1 DRN     -0.044200
     21 CAK       -16.0380  -26.7730   -9.1310 cc        1 DRN     -0.113200
     22 CAM       -17.0400  -26.6880   -8.0790 ca        1 DRN     -0.061800
     23 CAP       -17.2330  -25.8580   -6.9750 ca        1 DRN     -0.073000
     24 CAQ       -18.3460  -26.0540   -6.1680 ca        1 DRN     -0.152000
     25 CAR       -19.2760  -27.0710   -6.4370 ca        1 DRN     -0.114000
     26 CAS       -19.1230  -27.9200   -7.5230 ca        1 DRN     -0.146000
     27 CAN       -18.0060  -27.7300   -8.3490 ca        1 DRN     -0.055200
     28 NAO       -17.5850  -28.4390   -9.4910 na        1 DRN     -0.066400
     29 CAL       -16.4290  -27.8300   -9.9720 cd        1 DRN     -0.055100
     30 CA0       -18.3650  -29.4080  -10.2030 c3        1 DRN      0.041300
     31 SAT       -21.3720  -29.3400  -12.9770 ss        1 DRN     -0.328300
     32 NAB       -22.9330  -29.2050  -10.7820 nh        1 DRN     -0.892800
     33 HBC       -23.9380  -29.4470  -13.8610 hn        1 DRN      0.415400
     34 HAB1      -23.8370  -29.2140  -10.3500 hn        1 DRN      0.394300
     35 HAB2      -22.3720  -28.4490  -10.4460 hn        1 DRN      0.394300
     36 HBF1      -19.0300  -28.1000  -11.8290 hc        1 DRN      0.065200
     37 HBF2      -20.1880  -28.2410  -10.4470 hc        1 DRN      0.065200
     38 HBE1      -19.4630  -30.5170  -12.4290 h1        1 DRN      0.085700
     39 HBE2      -20.6600  -30.6350  -11.0760 h1        1 DRN      0.085700
     40 HA01      -18.8340  -30.0990   -9.4440 h1        1 DRN      0.063200
     41 HA02      -17.6640  -30.0120  -10.8470 h1        1 DRN      0.063200
     42 HAY1      -13.8760  -27.2450  -15.9590 h1        1 DRN      0.054367
     43 HAY2      -13.3990  -25.4820  -15.8950 h1        1 DRN      0.054367
     44 HAY3      -12.3160  -26.7460  -15.1370 h1        1 DRN      0.054367
     45 HAW       -12.4040  -26.1020  -12.7230 h4        1 DRN      0.191000
     46 HAF       -16.2720  -26.5220  -15.9510 ha        1 DRN      0.134000
     47 HAA       -18.6320  -26.2630  -15.1740 ha        1 DRN      0.134000
     48 HAB       -19.1470  -25.8150  -12.7950 ha        1 DRN      0.134000
     49 HAC       -17.3260  -25.6340  -11.0930 ha        1 DRN      0.151000
     50 HAU       -12.1980  -24.3800   -8.2040 hn        1 DRN      0.346500
     51 HAL       -15.9340  -28.1890  -10.8800 h4        1 DRN      0.182000
     52 HAP       -16.5010  -25.0700   -6.7400 ha        1 DRN      0.158000
     53 HAQ       -18.5030  -25.4040   -5.2940 ha        1 DRN      0.133000
     54 HAR       -20.1430  -27.1960   -5.7710 ha        1 DRN      0.130000
     55 HAS       -19.8500  -28.7160   -7.7300 ha        1 DRN      0.131000
     56 CAY       -13.3820  -26.4550  -15.3310 c3        1 DRN      0.026600
@<TRIPOS>BOND
     1    1    2 2   
     2    1   31 1   
     3    1   32 1   
     4    2   33 1   
     5    3    4 1   
     6    3   30 1   
     7    3   36 1   
     8    3   37 1   
     9    4   31 1   
    10    4   38 1   
    11    4   39 1   
    12    5    6 1   
    13    5    7 1   
    14    5   56 1   
    15    6   13 2   
    16    6   45 1   
    17    7    8 ar  
    18    7   12 ar  
    19    8    9 ar  
    20    8   46 1   
    21    9   10 ar  
    22    9   47 1   
    23   10   11 ar  
    24   10   48 1   
    25   11   12 ar  
    26   11   49 1   
    27   12   13 1   
    28   13   14 1   
    29   14   15 1   
    30   14   20 2   
    31   15   16 2   
    32   15   17 1   
    33   17   18 1   
    34   17   50 1   
    35   18   19 2   
    36   18   20 1   
    37   20   21 1   
    38   21   22 1   
    39   21   29 2   
    40   22   23 ar  
    41   22   27 ar  
    42   23   24 ar  
    43   23   52 1   
    44   24   25 ar  
    45   24   53 1   
    46   25   26 ar  
    47   25   54 1   
    48   26   27 ar  
    49   26   55 1   
    50   27   28 1   
    51   28   29 1   
    52   28   30 1   
    53   29   51 1   
    54   30   40 1   
    55   30   41 1   
    56   32   34 1   
    57   32   35 1   
    58   42   56 1   
    59   43   56 1   
    60   44   56 1   
@<TRIPOS>SUBSTRUCTURE
     1 DRN         1 TEMP              0 ****  ****    0 ROOT
