@<TRIPOS>MOLECULE
DRN
   57    62     1     0     0
SMALL
bcc


@<TRIPOS>ATOM
      1 CBD        -0.2690   -0.1680   -1.8340 c2        1 DRN      0.624100
      2 NBC         0.8700    0.0000   -2.4070 n2        1 DRN     -0.762100
      3 CBF        -3.1310   -0.1900    0.5140 c3        1 DRN     -0.090400
      4 CBE        -1.6650   -0.5280    0.6270 c3        1 DRN     -0.012300
      5 NAH        -5.2400    0.1440    7.8030 nh        1 DRN     -0.125100
      6 CAW        -6.4950   -0.1800    7.5110 ce        1 DRN      0.402500
      7 CAE        -4.3870    0.0720    6.5710 c3        1 DRN      0.094400
      8 CAF        -3.5560    1.2630    6.2290 c2        1 DRN     -0.203200
      9 CAA        -3.3970    1.6120    4.9360 ce        1 DRN     -0.066000
     10 CAB        -4.0540    0.9150    3.8510 ce        1 DRN     -0.173000
     11 CAC        -5.0410    0.0180    4.1140 cf        1 DRN     -0.009200
     12 CAD        -5.4070   -0.1980    5.4770 cf        1 DRN     -0.254200
     13 CAG        -6.6690   -0.3610    6.0500 ce        1 DRN     -0.016600
     14 CAI        -7.8960   -0.5030    5.4410 cc        1 DRN     -0.320000
     15 CAT        -9.1900   -0.5690    6.1540 cd        1 DRN      0.449000
     16 OAZ        -9.3970   -0.6230    7.3740 o         1 DRN     -0.354000
     17 NAU       -10.2160   -0.5360    5.1730 n         1 DRN     -0.596500
     18 CAV        -9.6680   -0.4460    3.8860 c         1 DRN      0.706700
     19 OAX       -10.3210   -0.3970    2.8370 o         1 DRN     -0.603500
     20 CAJ        -8.1520   -0.4540    4.0290 cc        1 DRN      0.015800
     21 CAK        -7.2820   -0.4510    3.0030 c2        1 DRN     -0.208400
     22 CAM        -7.6170   -0.3020    1.5500 c3        1 DRN     -0.081600
     23 CAP        -8.3860    0.8690    1.0620 c2        1 DRN     -0.040200
     24 CAQ        -8.1700    1.3470   -0.1830 ce        1 DRN     -0.205000
     25 CAR        -7.1360    0.7990   -1.0240 ce        1 DRN      0.049000
     26 CAS        -6.2000   -0.0670   -0.5410 cf        1 DRN     -0.346600
     27 CAN        -6.2630   -0.4060    0.8540 cf        1 DRN      0.410600
     28 NAO        -5.2940   -0.7370    1.7050 nh        1 DRN     -0.145100
     29 CAL        -5.8080   -0.8010    3.1110 c3        1 DRN      0.130400
     30 CA0        -3.9360   -1.1400    1.4050 c3        1 DRN     -0.001700
     31 SAT        -0.6560    0.6000   -0.2780 ss        1 DRN     -0.316300
     32 NAB        -1.3120   -0.9790   -2.3520 nh        1 DRN     -0.889800
     33 HBC         1.5620    0.5040   -1.8950 hn        1 DRN      0.429400
     34 HAB1       -1.0160   -1.5800   -3.0990 hn        1 DRN      0.387800
     35 HAB2       -2.0840   -0.4130   -2.6470 hn        1 DRN      0.387800
     36 HBF1       -1.4800   -1.5830    0.3080 h1        1 DRN      0.089700
     37 HBF2       -3.2970    0.8800    0.8100 hc        1 DRN      0.067200
     38 HBE1       -3.4590   -0.2970   -0.5530 hc        1 DRN      0.067200
     39 HBE2       -1.3240   -0.4240    1.6900 h1        1 DRN      0.089700
     40 HA01       -3.4040   -1.2520    2.3960 h1        1 DRN      0.089700
     41 HA02       -3.9770   -2.1560    0.9110 h1        1 DRN      0.089700
     42 HAY1       -3.9300   -0.4200    9.3450 h1        1 DRN      0.090367
     43 HAY2       -5.4930    0.3780    9.8820 h1        1 DRN      0.090367
     44 HAY3       -4.1690    1.3810    9.1010 h1        1 DRN      0.090367
     45 HAW        -7.3210   -0.2820    8.2440 h4        1 DRN      0.112800
     46 HAF        -3.7050   -0.8190    6.7380 h1        1 DRN      0.108700
     47 HAA        -3.0500    1.7870    7.0510 ha        1 DRN      0.150000
     48 HAB        -2.7360    2.4510    4.6600 ha        1 DRN      0.154000
     49 HAC        -3.7220    1.1620    2.8330 ha        1 DRN      0.140000
     50 HAU       -11.1850   -0.5740    5.3710 hn        1 DRN      0.358500
     51 HAL        -5.7160   -1.8880    3.4280 h1        1 DRN      0.102700
     52 HAP        -8.2370   -1.2130    1.2400 hc        1 DRN      0.153700
     53 HAQ        -9.1890    1.2420    1.7210 ha        1 DRN      0.191000
     54 HAR        -8.7820    2.1680   -0.5940 ha        1 DRN      0.174000
     55 HAS        -7.1010    1.1250   -2.0800 ha        1 DRN      0.170000
     56 HAB3       -5.3900   -0.4640   -1.1690 ha        1 DRN      0.173000
     57 CAY        -4.6830    0.3800    9.1040 c3        1 DRN     -0.023400
@<TRIPOS>BOND
     1    1    2 2   
     2    1   31 1   
     3    1   32 1   
     4    2   33 1   
     5    3    4 1   
     6    3   30 1   
     7    3   37 1   
     8    3   38 1   
     9    4   31 1   
    10    4   36 1   
    11    4   39 1   
    12    5    6 2   
    13    5    7 1   
    14    5   57 1   
    15    6   13 1   
    16    6   45 1   
    17    7    8 1   
    18    7   12 1   
    19    7   46 1   
    20    8    9 2   
    21    8   47 1   
    22    9   10 1   
    23    9   48 1   
    24   10   11 2   
    25   10   49 1   
    26   11   12 1   
    27   11   29 1   
    28   12   13 2   
    29   13   14 1   
    30   14   15 2   
    31   14   20 1   
    32   15   16 1   
    33   15   17 1   
    34   17   18 1   
    35   17   50 1   
    36   18   19 2   
    37   18   20 1   
    38   20   21 2   
    39   21   22 1   
    40   21   29 1   
    41   22   23 1   
    42   22   27 1   
    43   22   52 1   
    44   23   24 2   
    45   23   53 1   
    46   24   25 1   
    47   24   54 1   
    48   25   26 2   
    49   25   55 1   
    50   26   27 1   
    51   26   56 1   
    52   27   28 2   
    53   28   29 1   
    54   28   30 1   
    55   29   51 1   
    56   30   40 1   
    57   30   41 1   
    58   32   34 1   
    59   32   35 1   
    60   42   57 1   
    61   43   57 1   
    62   44   57 1   
@<TRIPOS>SUBSTRUCTURE
     1 DRN         1 TEMP              0 ****  ****    0 ROOT
