@<TRIPOS>MOLECULE
DRN
   57    62     1     0     0
SMALL
bcc


@<TRIPOS>ATOM
      1 CBD        -1.1960    0.2430   -2.2890 c2        1 DRN      0.613100
      2 NBC        -0.4890    0.2610   -3.3630 n2        1 DRN     -0.757100
      3 CBF        -2.6800   -0.5220    0.9790 c3        1 DRN     -0.096400
      4 CBE        -1.9220   -1.3340   -0.0430 c3        1 DRN     -0.017300
      5 NAH        -5.5030    0.5390    7.8350 na        1 DRN      0.125900
      6 CAW        -6.7160   -0.0730    7.5580 cc        1 DRN     -0.270300
      7 CAE        -4.7770    0.7030    6.6930 cd        1 DRN     -0.173600
      8 CAF        -3.4550    1.3290    6.5050 c3        1 DRN      0.009100
      9 CAA        -3.0670    1.3470    5.0730 c2        1 DRN     -0.084200
     10 CAB        -3.7590    0.7490    4.0810 ce        1 DRN     -0.178000
     11 CAC        -4.9850    0.0180    4.3280 ce        1 DRN      0.006800
     12 CAD        -5.5230    0.1090    5.5790 cd        1 DRN     -0.057000
     13 CAG        -6.8110   -0.3200    6.1520 cd        1 DRN      0.084200
     14 CAI        -7.9160   -0.6660    5.4250 cd        1 DRN     -0.213200
     15 CAT        -9.2730   -0.8870    6.0030 cc        1 DRN      0.438000
     16 OAZ        -9.6070   -1.0200    7.1820 o         1 DRN     -0.292000
     17 NAU       -10.1930   -0.9070    4.9150 ns        1 DRN     -0.598500
     18 CAV        -9.5320   -0.7330    3.6970 c         1 DRN      0.708700
     19 OAX       -10.0680   -0.6910    2.5820 o         1 DRN     -0.605500
     20 CAJ        -8.0420   -0.6440    3.9910 cd        1 DRN     -0.015200
     21 CAK        -7.0780   -0.6030    3.0550 c2        1 DRN     -0.184400
     22 CAM        -7.2740   -0.4960    1.5750 c3        1 DRN     -0.089600
     23 CAP        -8.0200    0.6320    0.9710 c2        1 DRN     -0.037200
     24 CAQ        -7.6940    1.0650   -0.2680 ce        1 DRN     -0.205000
     25 CAR        -6.5620    0.5220   -0.9760 ce        1 DRN      0.054000
     26 CAS        -5.6550   -0.2990   -0.3690 cf        1 DRN     -0.345600
     27 CAN        -5.8610   -0.6070    1.0150 cf        1 DRN      0.413600
     28 NAO        -4.9760   -0.9180    1.9670 nh        1 DRN     -0.157100
     29 CAL        -5.6100   -0.9020    3.3190 c3        1 DRN      0.123400
     30 CA0        -3.6310   -1.4230    1.7760 c3        1 DRN      0.002300
     31 SAT        -0.5880   -0.4370   -0.7650 ss        1 DRN     -0.299300
     32 NAB        -2.5230    0.7470   -2.2070 nv        1 DRN     -0.893800
     33 HBC         0.3880   -0.2140   -3.3330 hn        1 DRN      0.433400
     34 HAB1       -2.9050    0.9960   -3.1020 hn        1 DRN      0.385300
     35 HAB2       -2.5550    1.5370   -1.5890 hn        1 DRN      0.385300
     36 HBF1       -2.6160   -1.7220   -0.8280 h1        1 DRN      0.087700
     37 HBF2       -1.9510   -0.0450    1.6890 hc        1 DRN      0.073700
     38 HBE1       -3.2320    0.3110    0.4690 hc        1 DRN      0.073700
     39 HBE2       -1.4320   -2.2140    0.4510 h1        1 DRN      0.087700
     40 HA01       -3.1960   -1.6000    2.8030 h1        1 DRN      0.089700
     41 HA02       -3.7230   -2.4260    1.2600 h1        1 DRN      0.089700
     42 HAY1       -4.1990    0.3270    9.4660 h1        1 DRN      0.085700
     43 HAY2       -5.9240    0.7980    9.8760 h1        1 DRN      0.085700
     44 HAY3       -4.7860    2.0290    9.1280 h1        1 DRN      0.085700
     45 HAW        -7.4620   -0.2960    8.3250 h4        1 DRN      0.221000
     46 HAF        -2.6670    0.7760    7.0960 hc        1 DRN      0.089200
     47 HAA        -3.4680    2.3880    6.8980 hc        1 DRN      0.089200
     48 HAB        -2.1350    1.8960    4.8530 ha        1 DRN      0.152000
     49 HAC        -3.4000    0.8390    3.0440 ha        1 DRN      0.141000
     50 HAU       -11.1710   -1.0290    5.0100 hn        1 DRN      0.361500
     51 HAL        -5.5190   -1.9590    3.7310 h1        1 DRN      0.103700
     52 HAP        -7.8470   -1.4310    1.2380 hc        1 DRN      0.162700
     53 HAQ        -8.8950    1.0060    1.5320 ha        1 DRN      0.194000
     54 HAR        -8.2860    1.8460   -0.7730 ha        1 DRN      0.177000
     55 HAS        -6.4210    0.8200   -2.0310 ha        1 DRN      0.173000
     56 HAB3       -4.7560   -0.6650   -0.8920 ha        1 DRN      0.187000
     57 CAY        -5.0820    0.9450    9.1470 c3        1 DRN     -0.019400
@<TRIPOS>BOND
     1    1    2 2   
     2    1   31 1   
     3    1   32 1   
     4    2   33 1   
     5    3    4 1   
     6    3   30 1   
     7    3   37 1   
     8    3   38 1   
     9    4   31 1   
    10    4   36 1   
    11    4   39 1   
    12    5    6 1   
    13    5    7 2   
    14    5   57 1   
    15    6   13 2   
    16    6   45 1   
    17    7    8 1   
    18    7   12 1   
    19    8    9 1   
    20    8   46 1   
    21    8   47 1   
    22    9   10 2   
    23    9   48 1   
    24   10   11 1   
    25   10   49 1   
    26   11   12 2   
    27   11   29 1   
    28   12   13 1   
    29   13   14 1   
    30   14   15 2   
    31   14   20 1   
    32   15   16 1   
    33   15   17 1   
    34   17   18 1   
    35   17   50 1   
    36   18   19 2   
    37   18   20 1   
    38   20   21 2   
    39   21   22 1   
    40   21   29 1   
    41   22   23 1   
    42   22   27 1   
    43   22   52 1   
    44   23   24 2   
    45   23   53 1   
    46   24   25 1   
    47   24   54 1   
    48   25   26 2   
    49   25   55 1   
    50   26   27 1   
    51   26   56 1   
    52   27   28 2   
    53   28   29 1   
    54   28   30 1   
    55   29   51 1   
    56   30   40 1   
    57   30   41 1   
    58   32   34 1   
    59   32   35 1   
    60   42   57 1   
    61   43   57 1   
    62   44   57 1   
@<TRIPOS>SUBSTRUCTURE
     1 DRN         1 TEMP              0 ****  ****    0 ROOT
