@<TRIPOS>MOLECULE
DRO
   72    77     1     0     0
SMALL
bcc


@<TRIPOS>ATOM
      1 CBF         2.8270    3.0820   -0.8730 ca        1 DRO     -0.128500
      2 CBG         3.6210    4.2050   -1.0890 ca        1 DRO     -0.124250
      3 CBH         4.8970    4.2930   -0.5370 ca        1 DRO     -0.134000
      4 CBI         5.3840    3.2410    0.2360 ca        1 DRO     -0.124250
      5 CBJ         4.6110    2.1060    0.4570 ca        1 DRO     -0.128500
      6 CBE         3.3140    2.0090   -0.0980 ca        1 DRO      0.048600
      7 NBB         2.5240    0.8520    0.1430 n         1 DRO     -0.302200
      8 CBD         2.6290    0.2460    1.4330 ca        1 DRO      0.048600
      9 CBK         3.5650   -0.7810    1.6720 ca        1 DRO     -0.128500
     10 CBL         3.6680   -1.3480    2.9400 ca        1 DRO     -0.124250
     11 CBM         2.8540   -0.9060    3.9810 ca        1 DRO     -0.134000
     12 CBN         1.9280    0.1100    3.7520 ca        1 DRO     -0.124250
     13 CBO         1.8100    0.6900    2.4910 ca        1 DRO     -0.128500
     14 CBA         1.6620    0.3250   -0.8190 c         1 DRO      0.623600
     15 OBC         1.5040    0.8460   -1.9340 o         1 DRO     -0.563100
     16 CAH         0.9140   -0.9100   -0.4530 cc        1 DRO      0.290800
     17 NAG        -0.3540   -0.8850    0.0380 nd        1 DRO     -0.457800
     18 CAI         1.3480   -2.2800   -0.6400 cc        1 DRO     -0.142900
     19 CL1         2.8100   -2.8000   -1.2360 cl        1 DRO     -0.027400
     20 CAJ         0.2620   -3.0750   -0.2220 cd        1 DRO     -0.053600
     21 CAK         0.1470   -4.5400   -0.2000 c3        1 DRO     -0.039800
     22 NAF        -0.7370   -2.1640    0.1900 na        1 DRO      0.161300
     23 CAE        -2.0540   -2.5210    0.6080 ca        1 DRO      0.048800
     24 CAA        -2.2290   -3.4730    1.6320 ca        1 DRO     -0.134000
     25 CAB        -3.5130   -3.8130    2.0500 ca        1 DRO     -0.111000
     26 CAC        -4.6300   -3.2130    1.4690 ca        1 DRO     -0.128000
     27 CAY        -4.4650   -2.2700    0.4560 ca        1 DRO     -0.099000
     28 CAD        -3.1860   -1.9210    0.0150 ca        1 DRO     -0.114600
     29 CAL        -3.0280   -1.0070   -1.1660 c         1 DRO      0.676700
     30 OAN        -2.6080   -1.4970   -2.2330 o         1 DRO     -0.595100
     31 NAM        -3.4640    0.3090   -1.0630 n         1 DRO     -0.429800
     32 CAQ        -3.7040    0.9080    0.2380 c3        1 DRO      0.128300
     33 CAR        -2.7870    2.0410    0.6020 ca        1 DRO     -0.103300
     34 CAW        -2.8030    2.5220    1.9150 ca        1 DRO     -0.123000
     35 CAV        -1.9820    3.5850    2.2830 ca        1 DRO     -0.136000
     36 CAU        -1.1350    4.1700    1.3410 ca        1 DRO     -0.126000
     37 CAT        -1.1150    3.6950    0.0320 ca        1 DRO     -0.127000
     38 CAS        -1.9420    2.6320   -0.3490 ca        1 DRO     -0.055300
     39 CAP        -1.9070    2.1280   -1.7470 c3        1 DRO     -0.072100
     40 CAO        -3.1740    1.3170   -2.0820 c3        1 DRO      0.102700
     41 CAX        -3.0440    0.8260   -3.5410 c3        1 DRO      0.157800
     42 NAZ        -4.2180    0.1390   -4.0250 n3        1 DRO     -0.906800
     43 HBF         1.8240    3.0310   -1.3270 ha        1 DRO      0.148500
     44 HBG         3.2300    5.0300   -1.7040 ha        1 DRO      0.134000
     45 HBH         5.5160    5.1840   -0.7110 ha        1 DRO      0.132500
     46 HBI         6.3910    3.3010    0.6760 ha        1 DRO      0.134000
     47 HBJ         5.0140    1.2850    1.0700 ha        1 DRO      0.148500
     48 HBK         4.2110   -1.1450    0.8570 ha        1 DRO      0.148500
     49 HBO         1.0720    1.4900    2.3260 ha        1 DRO      0.148500
     50 HBL         4.4000   -2.1510    3.1160 ha        1 DRO      0.134000
     51 HBM         2.9430   -1.3570    4.9810 ha        1 DRO      0.132500
     52 HBN         1.2830    0.4620    4.5710 ha        1 DRO      0.134000
     53 HAK1        0.5390   -4.9410    0.7690 hc        1 DRO      0.063367
     54 HAK2       -0.9140   -4.8730   -0.3210 hc        1 DRO      0.063367
     55 HAK3        0.7560   -4.9690   -1.0360 hc        1 DRO      0.063367
     56 HAA        -1.3540   -3.9490    2.1020 ha        1 DRO      0.150000
     57 HAB        -3.6420   -4.5600    2.8480 ha        1 DRO      0.143000
     58 HAC        -5.6410   -3.4850    1.8060 ha        1 DRO      0.144000
     59 HAY        -5.3440   -1.8000   -0.0120 ha        1 DRO      0.154000
     60 HAQ1       -4.7620    1.3100    0.2230 h1        1 DRO      0.062700
     61 HAQ2       -3.6480    0.1260    1.0480 h1        1 DRO      0.062700
     62 HAO        -4.0600    2.0260   -2.0420 h1        1 DRO      0.068700
     63 HAW        -3.4680    2.0570    2.6580 ha        1 DRO      0.128000
     64 HAV        -2.0000    3.9610    3.3160 ha        1 DRO      0.130000
     65 HAU        -0.4840    5.0070    1.6310 ha        1 DRO      0.132000
     66 HAT        -0.4430    4.1510   -0.7110 ha        1 DRO      0.135000
     67 HAP1       -1.8370    2.9870   -2.4650 hc        1 DRO      0.076200
     68 HAP2       -0.9880    1.4920   -1.8900 hc        1 DRO      0.076200
     69 HAX1       -2.9120    1.7530   -4.1710 h1        1 DRO      0.046200
     70 HAX2       -2.0990    0.2150   -3.6330 h1        1 DRO      0.046200
     71 HAZ1       -4.0720   -0.1310   -4.9790 hn        1 DRO      0.350300
     72 HAZ2       -4.3870   -0.6900   -3.4880 hn        1 DRO      0.350300
@<TRIPOS>BOND
     1    1    2 ar  
     2    1    6 ar  
     3    1   43 1   
     4    2    3 ar  
     5    2   44 1   
     6    3    4 ar  
     7    3   45 1   
     8    4    5 ar  
     9    4   46 1   
    10    5    6 ar  
    11    5   47 1   
    12    6    7 1   
    13    7    8 1   
    14    7   14 1   
    15    8    9 ar  
    16    8   13 ar  
    17    9   10 ar  
    18    9   48 1   
    19   10   11 ar  
    20   10   50 1   
    21   11   12 ar  
    22   11   51 1   
    23   12   13 ar  
    24   12   52 1   
    25   13   49 1   
    26   14   15 2   
    27   14   16 1   
    28   16   17 2   
    29   16   18 1   
    30   17   22 1   
    31   18   19 1   
    32   18   20 2   
    33   20   21 1   
    34   20   22 1   
    35   21   53 1   
    36   21   54 1   
    37   21   55 1   
    38   22   23 1   
    39   23   24 ar  
    40   23   28 ar  
    41   24   25 ar  
    42   24   56 1   
    43   25   26 ar  
    44   25   57 1   
    45   26   27 ar  
    46   26   58 1   
    47   27   28 ar  
    48   27   59 1   
    49   28   29 1   
    50   29   30 2   
    51   29   31 1   
    52   31   32 1   
    53   31   40 1   
    54   32   33 1   
    55   32   60 1   
    56   32   61 1   
    57   33   34 ar  
    58   33   38 ar  
    59   34   35 ar  
    60   34   63 1   
    61   35   36 ar  
    62   35   64 1   
    63   36   37 ar  
    64   36   65 1   
    65   37   38 ar  
    66   37   66 1   
    67   38   39 1   
    68   39   40 1   
    69   39   67 1   
    70   39   68 1   
    71   40   41 1   
    72   40   62 1   
    73   41   42 1   
    74   41   69 1   
    75   41   70 1   
    76   42   71 1   
    77   42   72 1   
@<TRIPOS>SUBSTRUCTURE
     1 DRO         1 TEMP              0 ****  ****    0 ROOT
