@<TRIPOS>MOLECULE
DRO
   74    79     1     0     0
SMALL
bcc


@<TRIPOS>ATOM
      1 CBF        -1.0990    2.6790   -0.0590 ca        1 DRO     -0.100000
      2 CBG         0.1650    3.0630   -0.4930 ca        1 DRO     -0.106000
      3 CBH         1.3120    2.4920    0.0650 ca        1 DRO     -0.073500
      4 CBI         1.1930    1.5260    1.0630 ca        1 DRO     -0.106000
      5 CBJ        -0.0640    1.1280    1.5170 ca        1 DRO     -0.100000
      6 CBE        -1.2130    1.7060    0.9540 ca        1 DRO     -0.038900
      7 NBB        -2.5610    1.3280    1.4210 n4        1 DRO     -0.326000
      8 CBD        -2.7420    1.5900    2.8640 ca        1 DRO     -0.038900
      9 CBK        -2.3400    0.6520    3.8290 ca        1 DRO     -0.100000
     10 CBL        -2.5240    0.9430    5.1800 ca        1 DRO     -0.106000
     11 CBM        -3.0950    2.1520    5.5740 ca        1 DRO     -0.073500
     12 CBN        -3.4900    3.0830    4.6110 ca        1 DRO     -0.106000
     13 CBO        -3.3180    2.8140    3.2560 ca        1 DRO     -0.100000
     14 CBA        -2.9040   -0.1210    1.0890 c         1 DRO      0.515600
     15 OBC        -2.0500   -0.9780    1.2520 o         1 DRO     -0.400100
     16 CAH        -4.2740   -0.3310    0.6240 cc        1 DRO      0.207800
     17 NAG        -4.8960    0.4220   -0.3400 nd        1 DRO     -0.467800
     18 CAI        -5.1590   -1.3810    1.0840 cc        1 DRO     -0.120900
     19 CL1        -4.8480   -2.5220    2.2420 cl        1 DRO      0.030600
     20 CAJ        -6.3470   -1.2080    0.3400 cd        1 DRO     -0.027600
     21 CAK        -7.5990   -1.9740    0.3990 c3        1 DRO     -0.056800
     22 NAF        -6.1010   -0.1140   -0.5250 na        1 DRO      0.182300
     23 CAE        -7.0860    0.4870   -1.3800 ca        1 DRO      0.023800
     24 CAA        -7.8300    1.5830   -0.8990 ca        1 DRO     -0.105000
     25 CAB        -8.8070    2.1680   -1.7020 ca        1 DRO     -0.086000
     26 CAC        -9.0470    1.6830   -2.9870 ca        1 DRO     -0.094000
     27 CAY        -8.3020    0.6110   -3.4750 ca        1 DRO     -0.103000
     28 CAD        -7.3160    0.0070   -2.6870 ca        1 DRO     -0.126600
     29 CAL        -6.6060   -1.1930   -3.2220 c         1 DRO      0.684700
     30 OAN        -6.7900   -2.3110   -2.6830 o         1 DRO     -0.660100
     31 NAM        -5.8810   -1.1050   -4.4090 n         1 DRO     -0.448800
     32 CAQ        -5.4820    0.1970   -4.9390 c3        1 DRO      0.115300
     33 CAR        -4.0060    0.4660   -4.9280 ca        1 DRO     -0.120300
     34 CAW        -3.5670    1.7610   -5.2240 ca        1 DRO     -0.112000
     35 CAV        -2.2030    2.0430   -5.2660 ca        1 DRO     -0.110000
     36 CAU        -1.2720    1.0350   -5.0090 ca        1 DRO     -0.109000
     37 CAT        -1.7040   -0.2560   -4.7120 ca        1 DRO     -0.113000
     38 CAS        -3.0730   -0.5470   -4.6720 ca        1 DRO     -0.093300
     39 CAP        -3.5200   -1.9300   -4.3580 c3        1 DRO     -0.050100
     40 CAO        -4.9650   -2.1540   -4.8490 c3        1 DRO      0.074700
     41 CAX        -5.3280   -3.6100   -4.4920 c3        1 DRO      0.099800
     42 NAZ        -6.7070   -4.0030   -4.8870 n4        1 DRO     -0.834600
     43 HBF        -1.9890    3.1460   -0.5110 ha        1 DRO      0.155500
     44 HBG         0.2590    3.8300   -1.2800 ha        1 DRO      0.169000
     45 HBH         2.3100    2.8090   -0.2820 ha        1 DRO      0.170500
     46 HBI         2.0960    1.0730    1.5060 ha        1 DRO      0.169000
     47 HBJ        -0.1420    0.3610    2.3060 ha        1 DRO      0.155500
     48 HBK        -1.8830   -0.3110    3.5420 ha        1 DRO      0.155500
     49 HBO        -3.6270    3.5680    2.5140 ha        1 DRO      0.155500
     50 HBL        -2.2090    0.2060    5.9380 ha        1 DRO      0.169000
     51 HBM        -3.2320    2.3760    6.6460 ha        1 DRO      0.170500
     52 HBN        -3.9380    4.0420    4.9210 ha        1 DRO      0.169000
     53 HAK1       -7.5150   -2.7680    1.1840 hc        1 DRO      0.083700
     54 HAK2       -7.8070   -2.4630   -0.5890 hc        1 DRO      0.083700
     55 HAK3       -8.4620   -1.3070    0.6560 hc        1 DRO      0.083700
     56 HAA        -7.6510    1.9790    0.1150 ha        1 DRO      0.165000
     57 HAB        -9.3920    3.0190   -1.3130 ha        1 DRO      0.174000
     58 HAC        -9.8250    2.1460   -3.6170 ha        1 DRO      0.173000
     59 HAY        -8.4940    0.2350   -4.4930 ha        1 DRO      0.153000
     60 HAQ1       -5.8440    0.2330   -6.0110 h1        1 DRO      0.083700
     61 HAQ2       -6.0060    1.0210   -4.3730 h1        1 DRO      0.083700
     62 HAO        -4.9540   -2.0710   -5.9830 h1        1 DRO      0.089700
     63 HAW        -4.2990    2.5550   -5.4340 ha        1 DRO      0.145000
     64 HAV        -1.8600    3.0600   -5.5140 ha        1 DRO      0.155000
     65 HAU        -0.1940    1.2560   -5.0540 ha        1 DRO      0.154000
     66 HAT        -0.9690   -1.0520   -4.5170 ha        1 DRO      0.146000
     67 HAP1       -2.8490   -2.6750   -4.8630 hc        1 DRO      0.075200
     68 HAP2       -3.4560   -2.1050   -3.2510 hc        1 DRO      0.075200
     69 HAX1       -4.6040   -4.2830   -5.0380 hx        1 DRO      0.125700
     70 HAX2       -5.2260   -3.7800   -3.3790 hx        1 DRO      0.125700
     71 HAZ1       -7.3840   -3.5640   -4.2410 hn        1 DRO      0.466800
     72 HAZ2       -6.9090   -3.7000   -5.8430 hn        1 DRO      0.466800
     73 HBB1       -3.2320    1.9330    0.9210 hn        1 DRO      0.463800
     74 HAZ3       -6.8080   -5.0210   -4.8270 hn        1 DRO      0.466800
@<TRIPOS>BOND
     1    1    2 ar  
     2    1    6 ar  
     3    1   43 1   
     4    2    3 ar  
     5    2   44 1   
     6    3    4 ar  
     7    3   45 1   
     8    4    5 ar  
     9    4   46 1   
    10    5    6 ar  
    11    5   47 1   
    12    6    7 1   
    13    7    8 1   
    14    7   14 1   
    15    7   73 1   
    16    8    9 ar  
    17    8   13 ar  
    18    9   10 ar  
    19    9   48 1   
    20   10   11 ar  
    21   10   50 1   
    22   11   12 ar  
    23   11   51 1   
    24   12   13 ar  
    25   12   52 1   
    26   13   49 1   
    27   14   15 2   
    28   14   16 1   
    29   16   17 2   
    30   16   18 1   
    31   17   22 1   
    32   18   19 1   
    33   18   20 2   
    34   20   21 1   
    35   20   22 1   
    36   21   53 1   
    37   21   54 1   
    38   21   55 1   
    39   22   23 1   
    40   23   24 ar  
    41   23   28 ar  
    42   24   25 ar  
    43   24   56 1   
    44   25   26 ar  
    45   25   57 1   
    46   26   27 ar  
    47   26   58 1   
    48   27   28 ar  
    49   27   59 1   
    50   28   29 1   
    51   29   30 2   
    52   29   31 1   
    53   31   32 1   
    54   31   40 1   
    55   32   33 1   
    56   32   60 1   
    57   32   61 1   
    58   33   34 ar  
    59   33   38 ar  
    60   34   35 ar  
    61   34   63 1   
    62   35   36 ar  
    63   35   64 1   
    64   36   37 ar  
    65   36   65 1   
    66   37   38 ar  
    67   37   66 1   
    68   38   39 1   
    69   39   40 1   
    70   39   67 1   
    71   39   68 1   
    72   40   41 1   
    73   40   62 1   
    74   41   42 1   
    75   41   69 1   
    76   41   70 1   
    77   42   71 1   
    78   42   72 1   
    79   42   74 1   
@<TRIPOS>SUBSTRUCTURE
     1 DRO         1 TEMP              0 ****  ****    0 ROOT
