@<TRIPOS>MOLECULE
DRO
   73    78     1     0     0
SMALL
bcc


@<TRIPOS>ATOM
      1 CBF         0.1150   -0.4110    0.7120 ca        1 DRO     -0.120250
      2 CBG         1.4880   -0.5520    0.8950 ca        1 DRO     -0.120750
      3 CBH         2.0160   -0.7720    2.1660 ca        1 DRO     -0.114000
      4 CBI         1.1600   -0.8550    3.2640 ca        1 DRO     -0.120750
      5 CBJ        -0.2160   -0.7210    3.1010 ca        1 DRO     -0.120250
      6 CBE        -0.7550   -0.4960    1.8170 ca        1 DRO      0.021600
      7 NBB        -2.1680   -0.3410    1.6540 n         1 DRO     -0.259200
      8 CBD        -2.8280    0.5660    2.5440 ca        1 DRO      0.021600
      9 CBK        -3.2970    0.1290    3.7990 ca        1 DRO     -0.120250
     10 CBL        -3.9080    1.0340    4.6650 ca        1 DRO     -0.120750
     11 CBM        -4.0560    2.3710    4.3020 ca        1 DRO     -0.114000
     12 CBN        -3.5910    2.8090    3.0630 ca        1 DRO     -0.120750
     13 CBO        -2.9770    1.9200    2.1840 ca        1 DRO     -0.120250
     14 CBA        -2.8470   -0.9630    0.6330 c         1 DRO      0.637600
     15 OBC        -2.2700   -1.6500   -0.2470 o         1 DRO     -0.692100
     16 CAH        -4.3270   -0.8150    0.5460 cc        1 DRO      0.267800
     17 NAG        -4.9210   -0.0850   -0.4420 nd        1 DRO     -0.506800
     18 CAI        -5.3350   -1.4620    1.3570 cc        1 DRO     -0.143900
     19 Cl1        -5.0970   -2.4950    2.6330 cl        1 DRO     -0.002400
     20 CAJ        -6.5710   -1.0580    0.8050 cd        1 DRO     -0.038600
     21 CAK        -7.9280   -1.4120    1.2440 c3        1 DRO     -0.049800
     22 NAF        -6.2460   -0.2200   -0.2840 na        1 DRO      0.167300
     23 CAE        -7.1870    0.3600   -1.1880 ca        1 DRO      0.047800
     24 CAA        -8.2990    1.0650   -0.6880 ca        1 DRO     -0.127000
     25 CAB        -9.2190    1.6240   -1.5720 ca        1 DRO     -0.089000
     26 CAC        -9.0420    1.5050   -2.9500 ca        1 DRO     -0.117000
     27 CAY        -7.9380    0.8190   -3.4540 ca        1 DRO     -0.090000
     28 CAD        -7.0090    0.2410   -2.5850 ca        1 DRO     -0.127600
     29 CAL        -5.9020   -0.5850   -3.1420 c         1 DRO      0.695700
     30 OAN        -5.8840   -1.8260   -2.9680 o         1 DRO     -0.644100
     31 NAM        -4.8380    0.0110   -3.8180 n         1 DRO     -0.457800
     32 CAQ        -4.8010    1.4380   -4.0820 c3        1 DRO      0.130300
     33 CAR        -4.9390    1.7610   -5.5390 ca        1 DRO     -0.123300
     34 CAW        -5.6960    2.8380   -5.9970 ca        1 DRO     -0.110000
     35 CAV        -5.7770    3.0890   -7.3680 ca        1 DRO     -0.114000
     36 CAU        -5.1140    2.2610   -8.2740 ca        1 DRO     -0.109000
     37 CAT        -4.3560    1.1810   -7.8180 ca        1 DRO     -0.110000
     38 CAS        -4.2600    0.9340   -6.4480 ca        1 DRO     -0.089300
     39 CAP        -3.4080   -0.1530   -5.9040 c3        1 DRO     -0.039100
     40 CAO        -4.0100   -0.8380   -4.6600 c3        1 DRO      0.089700
     41 CAX        -2.8010   -1.4480   -3.8890 c3        1 DRO      0.089800
     42 NAZ        -3.2010   -2.2650   -2.7220 nz        1 DRO     -0.829600
     43 HBF        -0.2860   -0.2490   -0.2990 ha        1 DRO      0.142500
     44 HBG         2.1600   -0.4850    0.0260 ha        1 DRO      0.143750
     45 HBH         3.1020   -0.8790    2.3040 ha        1 DRO      0.145500
     46 HBI         1.5710   -1.0280    4.2710 ha        1 DRO      0.143750
     47 HBJ        -0.8750   -0.7820    3.9820 ha        1 DRO      0.142500
     48 HBK        -3.1890   -0.9250    4.1020 ha        1 DRO      0.142500
     49 HBO        -2.6060    2.2860    1.2140 ha        1 DRO      0.142500
     50 HBL        -4.2700    0.6850    5.6450 ha        1 DRO      0.143750
     51 HBM        -4.5350    3.0810    4.9940 ha        1 DRO      0.145500
     52 HBN        -3.7010    3.8660    2.7760 ha        1 DRO      0.143750
     53 HAK1       -8.2720   -0.6970    2.0360 hc        1 DRO      0.073700
     54 HAK2       -7.9180   -2.4430    1.6810 hc        1 DRO      0.073700
     55 HAK3       -8.6600   -1.3870    0.3980 hc        1 DRO      0.073700
     56 HAA        -8.4470    1.1730    0.3990 ha        1 DRO      0.162000
     57 HAB       -10.0910    2.1680   -1.1730 ha        1 DRO      0.160000
     58 HAC        -9.7740    1.9490   -3.6430 ha        1 DRO      0.160000
     59 HAY        -7.8000    0.7220   -4.5430 ha        1 DRO      0.158000
     60 HAQ1       -3.7980    1.8180   -3.7220 h1        1 DRO      0.077200
     61 HAQ2       -5.6000    1.9600   -3.4840 h1        1 DRO      0.077200
     62 HAO        -4.6530   -1.7020   -5.0200 h1        1 DRO      0.085700
     63 HAW        -6.2220    3.4900   -5.2830 ha        1 DRO      0.141000
     64 HAV        -6.3680    3.9430   -7.7330 ha        1 DRO      0.149000
     65 HAU        -5.1860    2.4600   -9.3540 ha        1 DRO      0.150000
     66 HAT        -3.8320    0.5330   -8.5360 ha        1 DRO      0.143000
     67 HAP1       -2.4070    0.2930   -5.6440 hc        1 DRO      0.070200
     68 HAP2       -3.2350   -0.9460   -6.6800 hc        1 DRO      0.070200
     69 HAX1       -2.1190   -0.6290   -3.5220 hx        1 DRO      0.103700
     70 HAX2       -2.2330   -2.1060   -4.6070 hx        1 DRO      0.103700
     71 HAZ1       -2.4040   -2.7960   -2.3550 hn        1 DRO      0.473133
     72 HAZ2       -3.5330   -1.6540   -1.9560 hn        1 DRO      0.473133
     73 HAZ3       -3.9740   -2.8960   -2.9710 hn        1 DRO      0.473133
@<TRIPOS>BOND
     1    1    2 ar  
     2    1    6 ar  
     3    1   43 1   
     4    2    3 ar  
     5    2   44 1   
     6    3    4 ar  
     7    3   45 1   
     8    4    5 ar  
     9    4   46 1   
    10    5    6 ar  
    11    5   47 1   
    12    6    7 1   
    13    7    8 1   
    14    7   14 1   
    15    8    9 ar  
    16    8   13 ar  
    17    9   10 ar  
    18    9   48 1   
    19   10   11 ar  
    20   10   50 1   
    21   11   12 ar  
    22   11   51 1   
    23   12   13 ar  
    24   12   52 1   
    25   13   49 1   
    26   14   15 2   
    27   14   16 1   
    28   16   17 2   
    29   16   18 1   
    30   17   22 1   
    31   18   19 1   
    32   18   20 2   
    33   20   21 1   
    34   20   22 1   
    35   21   53 1   
    36   21   54 1   
    37   21   55 1   
    38   22   23 1   
    39   23   24 ar  
    40   23   28 ar  
    41   24   25 ar  
    42   24   56 1   
    43   25   26 ar  
    44   25   57 1   
    45   26   27 ar  
    46   26   58 1   
    47   27   28 ar  
    48   27   59 1   
    49   28   29 1   
    50   29   30 2   
    51   29   31 1   
    52   31   32 1   
    53   31   40 1   
    54   32   33 1   
    55   32   60 1   
    56   32   61 1   
    57   33   34 ar  
    58   33   38 ar  
    59   34   35 ar  
    60   34   63 1   
    61   35   36 ar  
    62   35   64 1   
    63   36   37 ar  
    64   36   65 1   
    65   37   38 ar  
    66   37   66 1   
    67   38   39 1   
    68   39   40 1   
    69   39   67 1   
    70   39   68 1   
    71   40   41 1   
    72   40   62 1   
    73   41   42 1   
    74   41   69 1   
    75   41   70 1   
    76   42   71 1   
    77   42   72 1   
    78   42   73 1   
@<TRIPOS>SUBSTRUCTURE
     1 DRO         1 TEMP              0 ****  ****    0 ROOT
