@<TRIPOS>MOLECULE
DRO
   73    78     1     0     0
SMALL
bcc


@<TRIPOS>ATOM
      1 CBF         0.1020   -0.4000    0.7490 ca        1 DRO     -0.120250
      2 CBG         1.4740   -0.5360    0.9430 ca        1 DRO     -0.120750
      3 CBH         1.9920   -0.7600    2.2170 ca        1 DRO     -0.114000
      4 CBI         1.1270   -0.8520    3.3070 ca        1 DRO     -0.120750
      5 CBJ        -0.2480   -0.7240    3.1330 ca        1 DRO     -0.120250
      6 CBE        -0.7770   -0.4940    1.8460 ca        1 DRO      0.021600
      7 NBB        -2.1890   -0.3440    1.6700 n         1 DRO     -0.259200
      8 CBD        -2.8610    0.5550    2.5600 ca        1 DRO      0.021600
      9 CBK        -3.3390    0.1100    3.8080 ca        1 DRO     -0.120250
     10 CBL        -3.9600    1.0080    4.6730 ca        1 DRO     -0.120750
     11 CBM        -4.1120    2.3460    4.3160 ca        1 DRO     -0.114000
     12 CBN        -3.6380    2.7920    3.0830 ca        1 DRO     -0.120750
     13 CBO        -3.0130    1.9110    2.2040 ca        1 DRO     -0.120250
     14 CBA        -2.8570   -0.9630    0.6400 c         1 DRO      0.637600
     15 OBC        -2.2690   -1.6430   -0.2390 o         1 DRO     -0.692100
     16 CAH        -4.3370   -0.8210    0.5410 cc        1 DRO      0.267800
     17 NAG        -4.9250   -0.0890   -0.4490 nd        1 DRO     -0.506800
     18 CAI        -5.3480   -1.4760    1.3400 cc        1 DRO     -0.143900
     19 CL1        -5.1170   -2.5150    2.6130 cl        1 DRO     -0.002400
     20 CAJ        -6.5810   -1.0750    0.7800 cd        1 DRO     -0.038600
     21 CAK        -7.9410   -1.4360    1.2060 c3        1 DRO     -0.049800
     22 NAF        -6.2510   -0.2310   -0.3020 na        1 DRO      0.167300
     23 CAE        -7.1860    0.3500   -1.2120 ca        1 DRO      0.047800
     24 CAA        -8.3050    1.0480   -0.7180 ca        1 DRO     -0.126000
     25 CAB        -9.2190    1.6090   -1.6070 ca        1 DRO     -0.089000
     26 CAC        -9.0310    1.4960   -2.9840 ca        1 DRO     -0.117000
     27 CAY        -7.9210    0.8160   -3.4820 ca        1 DRO     -0.090000
     28 CAD        -6.9960    0.2380   -2.6070 ca        1 DRO     -0.127600
     29 CAL        -5.8810   -0.5830   -3.1580 c         1 DRO      0.695700
     30 OAN        -5.8600   -1.8230   -2.9880 o         1 DRO     -0.644100
     31 NAM        -4.8160    0.0200   -3.8250 n         1 DRO     -0.457800
     32 CAQ        -4.7820    1.4480   -4.0860 c3        1 DRO      0.130300
     33 CAR        -4.9120    1.7740   -5.5430 ca        1 DRO     -0.123300
     34 CAW        -5.6700    2.8480   -6.0030 ca        1 DRO     -0.110000
     35 CAV        -5.7430    3.1020   -7.3740 ca        1 DRO     -0.114000
     36 CAU        -5.0710    2.2790   -8.2780 ca        1 DRO     -0.109000
     37 CAT        -4.3110    1.2020   -7.8190 ca        1 DRO     -0.110000
     38 CAS        -4.2230    0.9520   -6.4490 ca        1 DRO     -0.089300
     39 CAP        -3.3700   -0.1330   -5.9020 c3        1 DRO     -0.039100
     40 CAO        -3.9780   -0.8240   -4.6640 c3        1 DRO      0.089700
     41 CAX        -2.7720   -1.4300   -3.8860 c3        1 DRO      0.089800
     42 NAZ        -3.1760   -2.2520   -2.7230 n4        1 DRO     -0.829600
     43 HBF        -0.2900   -0.2340   -0.2650 ha        1 DRO      0.142500
     44 HBG         2.1530   -0.4600    0.0800 ha        1 DRO      0.143750
     45 HBH         3.0780   -0.8630    2.3640 ha        1 DRO      0.145500
     46 HBI         1.5300   -1.0290    4.3160 ha        1 DRO      0.143750
     47 HBJ        -0.9150   -0.7930    4.0070 ha        1 DRO      0.142500
     48 HBK        -3.2280   -0.9450    4.1070 ha        1 DRO      0.142500
     49 HBO        -2.6350    2.2830    1.2400 ha        1 DRO      0.142500
     50 HBL        -4.3290    0.6530    5.6480 ha        1 DRO      0.143750
     51 HBM        -4.5990    3.0510    5.0080 ha        1 DRO      0.145500
     52 HBN        -3.7500    3.8510    2.8000 ha        1 DRO      0.143750
     53 HAK1       -8.6660   -1.4090    0.3540 hc        1 DRO      0.073700
     54 HAK2       -7.9310   -2.4700    1.6370 hc        1 DRO      0.073700
     55 HAK3       -8.2940   -0.7260    1.9980 hc        1 DRO      0.073700
     56 HAA        -8.4620    1.1510    0.3680 ha        1 DRO      0.162000
     57 HAB       -10.0970    2.1470   -1.2130 ha        1 DRO      0.160000
     58 HAC        -9.7590    1.9400   -3.6810 ha        1 DRO      0.160000
     59 HAY        -7.7730    0.7240   -4.5700 ha        1 DRO      0.158000
     60 HAQ1       -5.5880    1.9640   -3.4920 h1        1 DRO      0.077200
     61 HAQ2       -3.7840    1.8310   -3.7180 h1        1 DRO      0.077200
     62 HAO        -4.6150   -1.6900   -5.0310 h1        1 DRO      0.085700
     63 HAW        -6.2040    3.4970   -5.2920 ha        1 DRO      0.141000
     64 HAV        -6.3350    3.9550   -7.7420 ha        1 DRO      0.149000
     65 HAU        -5.1360    2.4800   -9.3580 ha        1 DRO      0.150000
     66 HAT        -3.7790    0.5580   -8.5350 ha        1 DRO      0.143000
     67 HAP1       -3.1880   -0.9230   -6.6790 hc        1 DRO      0.070200
     68 HAP2       -2.3730    0.3170   -5.6340 hc        1 DRO      0.070200
     69 HAX1       -2.1960   -2.0840   -4.6010 hx        1 DRO      0.103700
     70 HAX2       -2.0960   -0.6090   -3.5120 hx        1 DRO      0.103700
     71 HAZ1       -2.3800   -2.7800   -2.3520 hn        1 DRO      0.473467
     72 HAZ2       -3.9460   -2.8850   -2.9800 hn        1 DRO      0.473467
     73 HAZ3       -3.5170   -1.6440   -1.9580 hn        1 DRO      0.473467
@<TRIPOS>BOND
     1    1    2 ar  
     2    1    6 ar  
     3    1   43 1   
     4    2    3 ar  
     5    2   44 1   
     6    3    4 ar  
     7    3   45 1   
     8    4    5 ar  
     9    4   46 1   
    10    5    6 ar  
    11    5   47 1   
    12    6    7 1   
    13    7    8 1   
    14    7   14 1   
    15    8    9 ar  
    16    8   13 ar  
    17    9   10 ar  
    18    9   48 1   
    19   10   11 ar  
    20   10   50 1   
    21   11   12 ar  
    22   11   51 1   
    23   12   13 ar  
    24   12   52 1   
    25   13   49 1   
    26   14   15 2   
    27   14   16 1   
    28   16   17 2   
    29   16   18 1   
    30   17   22 1   
    31   18   19 1   
    32   18   20 2   
    33   20   21 1   
    34   20   22 1   
    35   21   53 1   
    36   21   54 1   
    37   21   55 1   
    38   22   23 1   
    39   23   24 ar  
    40   23   28 ar  
    41   24   25 ar  
    42   24   56 1   
    43   25   26 ar  
    44   25   57 1   
    45   26   27 ar  
    46   26   58 1   
    47   27   28 ar  
    48   27   59 1   
    49   28   29 1   
    50   29   30 2   
    51   29   31 1   
    52   31   32 1   
    53   31   40 1   
    54   32   33 1   
    55   32   60 1   
    56   32   61 1   
    57   33   34 ar  
    58   33   38 ar  
    59   34   35 ar  
    60   34   63 1   
    61   35   36 ar  
    62   35   64 1   
    63   36   37 ar  
    64   36   65 1   
    65   37   38 ar  
    66   37   66 1   
    67   38   39 1   
    68   39   40 1   
    69   39   67 1   
    70   39   68 1   
    71   40   41 1   
    72   40   62 1   
    73   41   42 1   
    74   41   69 1   
    75   41   70 1   
    76   42   71 1   
    77   42   72 1   
    78   42   73 1   
@<TRIPOS>SUBSTRUCTURE
     1 DRO         1 TEMP              0 ****  ****    0 ROOT
