@<TRIPOS>MOLECULE
DRO
   72    65     1     0     0
SMALL
bcc


@<TRIPOS>ATOM
      1 CBF         3.1550    2.1630    4.0950 c1        1 DRO     -0.125000
      2 CBG         4.1550    2.8190    4.8090 c1        1 DRO     -0.131667
      3 CBH         5.4550    2.8500    4.3160 c1        1 DRO     -0.131667
      4 CBI         5.7550    2.2250    3.1060 c1        1 DRO     -0.131667
      5 CBJ         4.7550    1.5710    2.3940 c1        1 DRO     -0.131667
      6 CBE         3.4540    1.5400    2.8890 c1        1 DRO      0.095000
      7 NBB         2.3920    0.8790    2.1200 n         1 DRO     -0.247000
      8 CBD         2.0730   -0.5140    2.3740 c2        1 DRO      0.078000
      9 CBK         1.6280   -0.9020    3.6440 c2        1 DRO     -0.161000
     10 CBL         1.5320   -2.2530    3.9650 c1        1 DRO     -0.121000
     11 CBM         1.8750   -3.2120    3.0340 c1        1 DRO     -0.131667
     12 CBN         2.3190   -2.8290    1.7670 c1        1 DRO     -0.131667
     13 CBO         2.4160   -1.4760    1.4410 c1        1 DRO     -0.136000
     14 CBA         1.6590    1.6290    1.0950 c2        1 DRO      0.303000
     15 OBC         1.9370    2.7830    0.8940 o         1 DRO     -0.389000
     16 CAH         0.3280    1.0400    0.5080 c2        1 DRO     -0.067000
     17 NAG        -0.6660    1.7690   -0.0930 n2        1 DRO     -0.491000
     18 CAI        -0.1630   -0.2210    0.7550 c1        1 DRO      0.032000
     19 CL1         0.6670   -1.4900    1.6570 cl        1 DRO     -0.034000
     20 CAJ        -1.4760   -0.2700    0.3010 c1        1 DRO     -0.204000
     21 CAK        -2.4620   -1.3930    0.5690 c2        1 DRO     -0.165000
     22 NAF        -1.7890    0.9540   -0.2210 n3        1 DRO     -0.044000
     23 CAE        -3.1060    1.4120   -0.4920 c1        1 DRO     -0.073000
     24 CAA        -3.9330    1.7730    0.5800 c1        1 DRO     -0.131667
     25 CAB        -5.0930    2.5410    0.3530 c1        1 DRO     -0.131667
     26 CAC        -5.4270    2.9500   -0.9540 c1        1 DRO     -0.131667
     27 CAY        -4.6090    2.5960   -2.0360 c1        1 DRO     -0.131667
     28 CAD        -3.4480    1.8300   -1.8240 c1        1 DRO      0.004000
     29 CAL        -2.7220    1.1040   -3.1220 c2        1 DRO      0.287000
     30 OAN        -3.0160    1.4660   -4.2390 o         1 DRO     -0.323000
     31 NAM        -2.0570   -0.2100   -2.9410 n         1 DRO     -0.320000
     32 CAQ        -1.7850   -1.0040   -4.0150 c3        1 DRO      0.001000
     33 CAR        -0.3930   -1.8280   -3.9670 c2        1 DRO     -0.106000
     34 CAW         0.0590   -2.5920   -5.0390 c2        1 DRO     -0.108000
     35 CAV         1.2470   -3.3380   -4.9200 c1        1 DRO     -0.128000
     36 CAU         1.9960   -3.3120   -3.6910 c1        1 DRO     -0.131667
     37 CAT         1.5430   -2.5430   -2.6080 c1        1 DRO     -0.131667
     38 CAS         0.3640   -1.8010   -2.7220 c1        1 DRO     -0.072000
     39 CAP        -0.3010   -1.1090   -1.4930 c3        1 DRO     -0.129000
     40 CAO        -1.6990   -0.6720   -1.6690 c3        1 DRO      0.008000
     41 CAX        -1.9670    0.4760   -0.6550 c3        1 DRO     -0.036000
     42 NAZ        -1.9980    1.7700   -1.3760 n3        1 DRO     -0.007000
     43 HBF         2.2410    2.1410    4.4410 ha        1 DRO      0.146000
     44 HBG         3.9400    3.2640    5.6710 ha        1 DRO      0.141583
     45 HBH         6.1580    3.3110    4.8180 ha        1 DRO      0.141583
     46 HBI         6.6750    2.2470    2.7540 ha        1 DRO      0.141583
     47 HBJ         4.9660    1.1290    1.5370 ha        1 DRO      0.141583
     48 HBK         1.3890   -0.2330    4.2960 ha        1 DRO      0.138000
     49 HBO         2.7350   -1.2010    0.5340 ha        1 DRO      0.158000
     50 HBL         1.2150   -2.5270    4.8660 ha        1 DRO      0.124000
     51 HBM         1.8060   -4.1680    3.2630 ha        1 DRO      0.141583
     52 HBN         2.5570   -3.4950    1.1220 ha        1 DRO      0.141583
     53 HAK1       -3.0750   -1.1260    1.2990 ha        1 DRO      0.077333
     54 HAK2       -2.9890   -1.5770   -0.2570 ha        1 DRO      0.077333
     55 HAK3       -1.9700   -2.2080    0.8340 ha        1 DRO      0.077333
     56 HAA        -3.7010    1.4850    1.5080 ha        1 DRO      0.141583
     57 HAB        -5.6710    2.7920    1.1080 ha        1 DRO      0.141583
     58 HAC        -6.2500    3.4940   -1.1090 ha        1 DRO      0.141583
     59 HAY        -4.8490    2.8880   -2.9550 ha        1 DRO      0.141583
     60 HAQ1       -2.5020   -1.6510   -4.0870 h1        1 DRO      0.120000
     61 HAQ2       -1.7580   -0.4180   -4.8190 h1        1 DRO      0.120000
     62 HAO        -2.2880   -1.4300   -1.4430 h1        1 DRO      0.098000
     63 HAW        -0.4430   -2.6100   -5.8640 ha        1 DRO      0.138000
     64 HAV         1.5610   -3.8710   -5.6680 ha        1 DRO      0.137000
     65 HAU         2.8370   -3.8390   -3.6080 ha        1 DRO      0.141583
     66 HAT         2.0460   -2.5260   -1.7830 ha        1 DRO      0.141583
     67 HAP1       -0.2710   -1.7510   -0.7190 hc        1 DRO      0.130500
     68 HAP2        0.2360   -0.3210   -1.2610 hc        1 DRO      0.130500
     69 HAX1       -2.8440    0.3220   -0.2000 h1        1 DRO      0.164000
     70 HAX2       -1.2550    0.4930    0.0100 h1        1 DRO      0.164000
     71 HAZ1       -1.3820    1.7470   -2.0880 hn        1 DRO      0.276500
     72 HAZ2       -1.7690    2.4620   -0.7880 hn        1 DRO      0.276500
@<TRIPOS>BOND
     1    1    6 1   
     2    1   43 1   
     3    2    3 1   
     4    2   44 1   
     5    3   45 1   
     6    4    5 1   
     7    4   46 1   
     8    5   47 1   
     9    6    7 1   
    10    7    8 1   
    11    7   14 1   
    12    8    9 1   
    13    8   13 1   
    14    9   10 1   
    15    9   48 1   
    16   10   50 1   
    17   11   12 1   
    18   11   51 1   
    19   12   52 1   
    20   13   49 1   
    21   14   15 1   
    22   14   16 1   
    23   16   17 1   
    24   16   18 1   
    25   17   22 1   
    26   18   20 1   
    27   20   22 1   
    28   21   53 1   
    29   21   54 1   
    30   21   55 1   
    31   22   23 1   
    32   23   28 1   
    33   24   25 1   
    34   24   56 1   
    35   25   57 1   
    36   26   27 1   
    37   26   58 1   
    38   27   59 1   
    39   28   29 1   
    40   29   30 1   
    41   29   31 1   
    42   31   32 1   
    43   31   40 1   
    44   32   33 1   
    45   32   60 1   
    46   32   61 1   
    47   33   34 1   
    48   33   38 1   
    49   34   35 1   
    50   34   63 1   
    51   35   64 1   
    52   36   37 1   
    53   36   65 1   
    54   37   66 1   
    55   38   39 1   
    56   39   40 1   
    57   39   67 1   
    58   39   68 1   
    59   40   41 1   
    60   40   62 1   
    61   41   42 1   
    62   41   69 1   
    63   41   70 1   
    64   42   71 1   
    65   42   72 1   
@<TRIPOS>SUBSTRUCTURE
     1 DRO         1 TEMP              0 ****  ****    0 ROOT
