@<TRIPOS>MOLECULE
DRP
   30    27     1     0     0
SMALL
bcc


@<TRIPOS>ATOM
      1 P           0.7290   -4.0600    2.5380 p4        1 DRP      1.701200
      2 O1P         2.2240   -3.8720    2.6430 o         1 DRP     -0.942500
      3 O2P         0.1430   -4.2170    3.9210 os        1 DRP     -1.233000
      4 O5'         0.0880   -2.7980    1.8340 os        1 DRP     -0.561200
      5 C1         -0.4240    2.0660   -0.2110 c1        1 DRP     -0.068100
      6 C2          0.6350    2.2170    0.6710 c1        1 DRP      0.016500
      7 N3          0.9420    3.4510    1.1610 n1        1 DRP     -0.481800
      8 C4          0.2090    4.5360    0.7860 c1        1 DRP      0.280300
      9 C5         -0.8500    4.3880   -0.0950 c1        1 DRP     -0.100000
     10 C6         -1.1590    3.1530   -0.5880 c1        1 DRP     -0.100000
     11 C2'        -0.0720    0.3380   -1.7150 c3        1 DRP     -0.114400
     12 C5'         0.6260   -2.3700    0.6050 c3        1 DRP      0.235400
     13 C4'        -0.4130   -1.4880   -0.1350 c3        1 DRP      0.065100
     14 O4'        -0.5390   -0.3840    0.4480 os        1 DRP     -0.446600
     15 C1'        -0.8160    0.6880   -0.6900 c3        1 DRP      0.153200
     16 C3'         0.1020   -1.1330   -1.5800 c3        1 DRP      0.161100
     17 O3'        -0.6410   -1.7860   -2.5200 oh        1 DRP     -0.679800
     18 O3P         0.4330   -5.2960    1.7230 o         1 DRP     -0.991300
     19 H2          1.1600    1.4400    0.9400 ha        1 DRP      0.147500
     20 H4          0.4300    5.4200    1.1380 ha        1 DRP      0.073500
     21 H5         -1.3930    5.1610   -0.3410 ha        1 DRP      0.064500
     22 H6         -1.8790    3.0530   -1.2400 ha        1 DRP      0.064500
     23 H2'1       -0.5280    0.5510   -2.5550 hc        1 DRP      0.037700
     24 H2'2        0.7970    0.7890   -1.6750 hc        1 DRP      0.037700
     25 H5'1        1.4400   -1.8490    0.7680 h1        1 DRP     -0.001800
     26 H5'2        0.8430   -3.1500    0.0530 h1        1 DRP     -0.001800
     27 H4'        -1.2750   -1.9460   -0.1840 h1        1 DRP      0.063700
     28 H1'        -1.7600    0.6750   -0.9410 h1        1 DRP      0.025700
     29 H3'         1.0460   -1.3710   -1.6690 h1        1 DRP      0.094700
     30 H3T        -0.0990   -2.2040   -3.0890 ho        1 DRP      0.501000
@<TRIPOS>BOND
     1    1    2 1   
     2    1    4 1   
     3    1   18 2   
     4    4   12 1   
     5    5    6 3   
     6    5   15 1   
     7    6   19 1   
     8    7    8 3   
     9    8   20 1   
    10    9   10 3   
    11    9   21 1   
    12   10   22 1   
    13   11   15 1   
    14   11   16 1   
    15   11   23 1   
    16   11   24 1   
    17   12   13 1   
    18   12   25 1   
    19   12   26 1   
    20   13   14 1   
    21   13   16 1   
    22   13   27 1   
    23   14   15 1   
    24   15   28 1   
    25   16   17 1   
    26   16   29 1   
    27   17   30 1   
@<TRIPOS>SUBSTRUCTURE
     1 DRP         1 TEMP              0 ****  ****    0 ROOT
