@<TRIPOS>MOLECULE
DRP
   30    31     1     0     0
SMALL
bcc


@<TRIPOS>ATOM
      1 P           4.9640   -2.7590    2.3830 p5        1 DRP      1.330900
      2 O1P         6.1020   -3.5620    1.8320 o         1 DRP     -0.932167
      3 O2P         4.7500   -2.7690    3.8710 o         1 DRP     -0.932167
      4 O5'         3.5510   -3.6150    1.8220 os        1 DRP     -0.558200
      5 C1         -1.0720   -1.1010    2.8690 ca        1 DRP     -0.180600
      6 C2         -2.2870   -0.4080    3.0500 ca        1 DRP      0.367200
      7 N3         -2.8930   -0.2540    4.2440 nb        1 DRP     -0.701000
      8 C4         -2.2870   -0.8030    5.3140 ca        1 DRP      0.356200
      9 C5         -1.0770   -1.5150    5.2410 ca        1 DRP     -0.248300
     10 C6         -0.4630   -1.6680    3.9980 ca        1 DRP     -0.058000
     11 C2'         0.5510   -0.1060    1.2280 c3        1 DRP     -0.116400
     12 C5'         2.3750   -3.1110    2.3020 c3        1 DRP      0.226400
     13 C4'         1.6340   -2.2990    1.2130 c3        1 DRP      0.059100
     14 O4'         0.2050   -2.4790    1.3760 os        1 DRP     -0.442600
     15 C1'        -0.4590   -1.2240    1.5060 c3        1 DRP      0.190400
     16 C3'         1.9290   -0.7870    1.2600 c3        1 DRP      0.158100
     17 O3'         2.6690   -0.3690    0.1360 oh        1 DRP     -0.674800
     18 O3P         4.6840   -1.4230    1.7250 o         1 DRP     -0.932167
     19 H2         -2.8030    0.0500    2.1880 h4        1 DRP      0.002100
     20 H4         -2.8000   -0.6610    6.2800 h4        1 DRP     -0.007900
     21 H5         -0.6220   -1.9390    6.1460 ha        1 DRP      0.137000
     22 H6          0.4880   -2.2220    3.8790 ha        1 DRP      0.199000
     23 H2'1        0.3660    0.3430    0.2220 hc        1 DRP      0.039200
     24 H2'2        0.4890    0.7040    1.9910 hc        1 DRP      0.039200
     25 H5'1        1.6880   -3.9610    2.5970 h1        1 DRP     -0.005300
     26 H5'2        2.5520   -2.4620    3.2080 h1        1 DRP     -0.005300
     27 H4'         1.8820   -2.7150    0.2000 h1        1 DRP      0.067700
     28 H1'        -1.2830   -1.2280    0.7370 h1        1 DRP      0.027700
     29 H3'         2.4920   -0.5210    2.1980 h1        1 DRP      0.095700
     30 H3T         3.5960   -0.6450    0.3240 ho        1 DRP      0.499000
@<TRIPOS>BOND
     1    1    2 1   
     2    1    3 1   
     3    1    4 1   
     4    1   18 1   
     5    4   12 1   
     6    5    6 ar  
     7    5   10 ar  
     8    5   15 1   
     9    6    7 ar  
    10    6   19 1   
    11    7    8 ar  
    12    8    9 ar  
    13    8   20 1   
    14    9   10 ar  
    15    9   21 1   
    16   10   22 1   
    17   11   15 1   
    18   11   16 1   
    19   11   23 1   
    20   11   24 1   
    21   12   13 1   
    22   12   25 1   
    23   12   26 1   
    24   13   14 1   
    25   13   16 1   
    26   13   27 1   
    27   14   15 1   
    28   15   28 1   
    29   16   17 1   
    30   16   29 1   
    31   17   30 1   
@<TRIPOS>SUBSTRUCTURE
     1 DRP         1 TEMP              0 ****  ****    0 ROOT
