@<TRIPOS>MOLECULE
DRQ
   54    57     1     0     0
SMALL
bcc


@<TRIPOS>ATOM
      1 CAX        -4.9560    3.2180   -1.7790 c3        1 DRQ     -0.090100
      2 CAW        -3.9700    2.5010   -0.8890 c3        1 DRQ     -0.058200
      3 CAV        -4.6260    1.9110    0.3010 c2        1 DRQ     -0.139200
      4 CAU        -4.3030    0.7490    0.8790 ce        1 DRQ     -0.138200
      5 CAC        -3.2410   -0.1570    0.4710 ca        1 DRQ     -0.134800
      6 CAD        -1.9500    0.3150    0.2060 ca        1 DRQ     -0.085000
      7 CAT        -0.9010   -0.5420   -0.1370 ca        1 DRQ     -0.101300
      8 CAS         0.4550    0.0050   -0.4640 c3        1 DRQ     -0.007400
      9 CAR         0.7740    1.3030    0.2730 c3        1 DRQ     -0.071400
     10 CAQ         2.1880    1.8130    0.0420 c3        1 DRQ     -0.063400
     11 CAO         3.2140    0.7270    0.3130 c3        1 DRQ     -0.044000
     12 CAP         3.2440    0.3830    1.7920 c3        1 DRQ     -0.077100
     13 CAM         4.6570    1.0370   -0.1580 c3        1 DRQ      0.141100
     14 OAN         5.3560    1.7380    0.8540 oh        1 DRQ     -0.591800
     15 CAL         5.2790   -0.3450   -0.4550 c3        1 DRQ     -0.117400
     16 CAK         4.1220   -1.3410   -0.5710 c3        1 DRQ     -0.068400
     17 CAJ         2.8710   -0.4730   -0.6010 c3        1 DRQ     -0.065700
     18 CAI         1.5330   -1.0670   -0.2240 c3        1 DRQ     -0.047700
     19 CAH         1.1980   -2.2970   -1.0480 c3        1 DRQ     -0.073400
     20 CAG        -0.0920   -2.9180   -0.5590 c3        1 DRQ     -0.037100
     21 CAF        -1.1520   -1.9240   -0.2280 ca        1 DRQ     -0.036300
     22 CAE        -2.4350   -2.4180    0.0230 ca        1 DRQ     -0.165000
     23 CAA        -3.4730   -1.5430    0.3700 ca        1 DRQ      0.136100
     24 OAB        -4.6970   -2.1300    0.5960 oh        1 DRQ     -0.500100
     25 HAX1       -4.4280    3.6550   -2.6610 hc        1 DRQ      0.035367
     26 HAX2       -5.7380    2.5120   -2.1490 hc        1 DRQ      0.035367
     27 HAX3       -5.4630    4.0450   -1.2250 hc        1 DRQ      0.035367
     28 HAW1       -3.4400    1.7030   -1.4780 hc        1 DRQ      0.053700
     29 HAW2       -3.1840    3.2280   -0.5410 hc        1 DRQ      0.053700
     30 HAV        -5.4500    2.5150    0.7210 ha        1 DRQ      0.122000
     31 HAU        -4.8680    0.4150    1.7710 ha        1 DRQ      0.121000
     32 HAD        -1.7770    1.4010    0.2840 ha        1 DRQ      0.137000
     33 HAS         0.4530    0.2400   -1.5710 hc        1 DRQ      0.052700
     34 HAR1        0.0680    2.1030   -0.0740 hc        1 DRQ      0.043700
     35 HAR2        0.6000    1.1550    1.3710 hc        1 DRQ      0.043700
     36 HAQ1        2.2900    2.1700   -1.0160 hc        1 DRQ      0.044700
     37 HAQ2        2.3790    2.6900    0.7150 hc        1 DRQ      0.044700
     38 HAP1        2.2340    0.0970    2.1680 hc        1 DRQ      0.041367
     39 HAP2        3.9500   -0.4620    1.9760 hc        1 DRQ      0.041367
     40 HAP3        3.6000    1.2710    2.3710 hc        1 DRQ      0.041367
     41 HAM         4.6310    1.6650   -1.0910 h1        1 DRQ      0.033700
     42 HOAN        6.2660    1.8260    0.5440 ho        1 DRQ      0.398000
     43 HAL1        5.8680   -0.3070   -1.4030 hc        1 DRQ      0.047200
     44 HAL2        5.9700   -0.6370    0.3740 hc        1 DRQ      0.047200
     45 HAK1        4.2080   -1.9600   -1.4960 hc        1 DRQ      0.045200
     46 HAK2        4.1050   -2.0350    0.3060 hc        1 DRQ      0.045200
     47 HAJ         2.7740   -0.0800   -1.6570 hc        1 DRQ      0.045700
     48 HAI         1.5350   -1.3560    0.8630 hc        1 DRQ      0.063700
     49 HAH1        1.1040   -2.0150   -2.1290 hc        1 DRQ      0.044200
     50 HAH2        2.0300   -3.0440   -0.9670 hc        1 DRQ      0.044200
     51 HAG1       -0.4800   -3.6300   -1.3370 hc        1 DRQ      0.053200
     52 HAG2        0.1150   -3.5240    0.3670 hc        1 DRQ      0.053200
     53 HAE        -2.6440   -3.4950   -0.0480 ha        1 DRQ      0.148000
     54 HOAB       -5.3500   -1.4270    0.7330 ho        1 DRQ      0.423000
@<TRIPOS>BOND
     1    1    2 1   
     2    1   25 1   
     3    1   26 1   
     4    1   27 1   
     5    2    3 1   
     6    2   28 1   
     7    2   29 1   
     8    3    4 2   
     9    3   30 1   
    10    4    5 1   
    11    4   31 1   
    12    5    6 ar  
    13    5   23 ar  
    14    6    7 ar  
    15    6   32 1   
    16    7    8 1   
    17    7   21 ar  
    18    8    9 1   
    19    8   18 1   
    20    8   33 1   
    21    9   10 1   
    22    9   34 1   
    23    9   35 1   
    24   10   11 1   
    25   10   36 1   
    26   10   37 1   
    27   11   12 1   
    28   11   13 1   
    29   11   17 1   
    30   12   38 1   
    31   12   39 1   
    32   12   40 1   
    33   13   14 1   
    34   13   15 1   
    35   13   41 1   
    36   14   42 1   
    37   15   16 1   
    38   15   43 1   
    39   15   44 1   
    40   16   17 1   
    41   16   45 1   
    42   16   46 1   
    43   17   18 1   
    44   17   47 1   
    45   18   19 1   
    46   18   48 1   
    47   19   20 1   
    48   19   49 1   
    49   19   50 1   
    50   20   21 1   
    51   20   51 1   
    52   20   52 1   
    53   21   22 ar  
    54   22   23 ar  
    55   22   53 1   
    56   23   24 1   
    57   24   54 1   
@<TRIPOS>SUBSTRUCTURE
     1 DRQ         1 TEMP              0 ****  ****    0 ROOT
