@<TRIPOS>MOLECULE
DRQ
   54    57     1     0     0
SMALL
bcc


@<TRIPOS>ATOM
      1 CAX        -0.1110    0.7210    0.3070 c3        1 DRQ     -0.090100
      2 CAW         1.3100    0.2210    0.2130 c3        1 DRQ     -0.054200
      3 CAV         1.8430   -0.1800    1.5350 c2        1 DRQ     -0.159200
      4 CAU         2.7430   -1.1420    1.7750 ce        1 DRQ     -0.107200
      5 CAC         3.4040   -1.9970    0.8040 ca        1 DRQ     -0.076800
      6 CAD         3.8280   -1.5330   -0.4440 ca        1 DRQ     -0.092000
      7 CAT         4.4830   -2.3590   -1.3660 ca        1 DRQ     -0.099300
      8 CAS         4.8690   -1.8360   -2.7160 c3        1 DRQ     -0.008400
      9 CAR         5.1810   -0.3420   -2.7170 c3        1 DRQ     -0.071400
     10 CAQ         5.6840    0.1840   -4.0530 c3        1 DRQ     -0.063400
     11 CAO         6.8430   -0.6490   -4.5690 c3        1 DRQ     -0.043000
     12 CAP         8.0630   -0.4660   -3.6840 c3        1 DRQ     -0.077100
     13 CAM         7.2490   -0.3900   -6.0420 c3        1 DRQ      0.141100
     14 OAN         8.1840    0.6720   -6.1060 oh        1 DRQ     -0.591800
     15 CAL         7.8460   -1.7300   -6.5260 c3        1 DRQ     -0.117400
     16 CAK         7.3990   -2.8050   -5.5320 c3        1 DRQ     -0.068400
     17 CAJ         6.3550   -2.1140   -4.6650 c3        1 DRQ     -0.066700
     18 CAI         6.0330   -2.6610   -3.2930 c3        1 DRQ     -0.047700
     19 CAH         5.6280   -4.1230   -3.3380 c3        1 DRQ     -0.073400
     20 CAG         5.4260   -4.6520   -1.9350 c3        1 DRQ     -0.037100
     21 CAF         4.7220   -3.7020   -1.0290 ca        1 DRQ     -0.032300
     22 CAE         4.3180   -4.1870    0.2200 ca        1 DRQ     -0.220000
     23 CAA         3.6730   -3.3460    1.1300 ca        1 DRQ      0.131100
     24 OAB         3.2730   -3.7840    2.3730 oh        1 DRQ     -0.496100
     25 HAX1       -0.7810   -0.0730    0.7180 hc        1 DRQ      0.034033
     26 HAX2       -0.1740    1.6130    0.9750 hc        1 DRQ      0.034033
     27 HAX3       -0.4840    1.0100   -0.7050 hc        1 DRQ      0.034033
     28 HAW1        1.3550   -0.6450   -0.5040 hc        1 DRQ      0.048200
     29 HAW2        1.9620    1.0350   -0.2110 hc        1 DRQ      0.048200
     30 HAV         1.4290    0.3850    2.3880 ha        1 DRQ      0.121000
     31 HAU         3.0250   -1.3660    2.8220 ha        1 DRQ      0.136000
     32 HAD         3.6420   -0.4750   -0.6900 ha        1 DRQ      0.140000
     33 HAS         3.9760   -1.9920   -3.3930 hc        1 DRQ      0.053700
     34 HAR1        4.2470    0.2270   -2.4620 hc        1 DRQ      0.044200
     35 HAR2        5.9360   -0.1230   -1.9170 hc        1 DRQ      0.044200
     36 HAQ1        6.0090    1.2500   -3.9310 hc        1 DRQ      0.044700
     37 HAQ2        4.8480    0.1680   -4.8010 hc        1 DRQ      0.044700
     38 HAP1        8.8910   -1.1320   -4.0270 hc        1 DRQ      0.041367
     39 HAP2        8.4140    0.5940   -3.7520 hc        1 DRQ      0.041367
     40 HAP3        7.8350   -0.6950   -2.6170 hc        1 DRQ      0.041367
     41 HAM         6.3420   -0.1210   -6.6500 h1        1 DRQ      0.033700
     42 HOAN        8.4610    0.7330   -7.0280 ho        1 DRQ      0.398000
     43 HAL1        7.4830   -1.9640   -7.5560 hc        1 DRQ      0.047200
     44 HAL2        8.9610   -1.6600   -6.5570 hc        1 DRQ      0.047200
     45 HAK1        6.9680   -3.6920   -6.0570 hc        1 DRQ      0.045200
     46 HAK2        8.2610   -3.1580   -4.9140 hc        1 DRQ      0.045200
     47 HAJ         5.3910   -2.1130   -5.2570 hc        1 DRQ      0.045700
     48 HAI         6.9300   -2.5610   -2.6220 hc        1 DRQ      0.063700
     49 HAH1        6.4230   -4.7200   -3.8560 hc        1 DRQ      0.044700
     50 HAH2        4.6830   -4.2360   -3.9320 hc        1 DRQ      0.044700
     51 HAG1        6.4280   -4.8880   -1.4800 hc        1 DRQ      0.051200
     52 HAG2        4.8500   -5.6160   -1.9820 hc        1 DRQ      0.051200
     53 HAE         4.5120   -5.2370    0.4850 ha        1 DRQ      0.131000
     54 HOAB        3.5240   -4.7150    2.4540 ho        1 DRQ      0.417000
@<TRIPOS>BOND
     1    1    2 1   
     2    1   25 1   
     3    1   26 1   
     4    1   27 1   
     5    2    3 1   
     6    2   28 1   
     7    2   29 1   
     8    3    4 2   
     9    3   30 1   
    10    4    5 1   
    11    4   31 1   
    12    5    6 ar  
    13    5   23 ar  
    14    6    7 ar  
    15    6   32 1   
    16    7    8 1   
    17    7   21 ar  
    18    8    9 1   
    19    8   18 1   
    20    8   33 1   
    21    9   10 1   
    22    9   34 1   
    23    9   35 1   
    24   10   11 1   
    25   10   36 1   
    26   10   37 1   
    27   11   12 1   
    28   11   13 1   
    29   11   17 1   
    30   12   38 1   
    31   12   39 1   
    32   12   40 1   
    33   13   14 1   
    34   13   15 1   
    35   13   41 1   
    36   14   42 1   
    37   15   16 1   
    38   15   43 1   
    39   15   44 1   
    40   16   17 1   
    41   16   45 1   
    42   16   46 1   
    43   17   18 1   
    44   17   47 1   
    45   18   19 1   
    46   18   48 1   
    47   19   20 1   
    48   19   49 1   
    49   19   50 1   
    50   20   21 1   
    51   20   51 1   
    52   20   52 1   
    53   21   22 ar  
    54   22   23 ar  
    55   22   53 1   
    56   23   24 1   
    57   24   54 1   
@<TRIPOS>SUBSTRUCTURE
     1 DRQ         1 TEMP              0 ****  ****    0 ROOT
