@<TRIPOS>MOLECULE
DRQ
   54    55     1     0     0
SMALL
bcc


@<TRIPOS>ATOM
      1 CAX        -6.0710   -1.0080    2.9390 c3        1 DRQ     -0.208000
      2 CAW        -4.6120   -0.8240    2.5820 c3        1 DRQ     -0.137000
      3 CAV        -3.8880   -0.1660    3.7370 c2        1 DRQ     -0.128000
      4 CAU        -2.5400   -0.1400    3.7610 c1        1 DRQ     -0.137000
      5 CAC        -1.7510   -0.7700    2.6340 c1        1 DRQ     -0.063000
      6 CAD        -1.1780    0.0110    1.6900 c1        1 DRQ     -0.092000
      7 CAT        -0.3900   -0.5860    0.6420 c1        1 DRQ     -0.090000
      8 CAS         0.1770    0.1970   -0.5200 c3        1 DRQ     -0.055000
      9 CAR         0.7740    1.6630    0.0660 c3        1 DRQ     -0.151000
     10 CAQ         1.3140    2.4590   -0.9590 c3        1 DRQ     -0.142000
     11 CAO         2.2320    1.7570   -1.7070 c3        1 DRQ     -0.044000
     12 CAP         3.4770    1.5180   -0.8770 c3        1 DRQ     -0.195000
     13 CAM         2.5760    2.3580   -2.8670 c3        1 DRQ      0.030000
     14 OAN         3.4470    3.3660   -2.6480 oh        1 DRQ     -0.319000
     15 CAL         3.3320    1.0650   -3.7280 c3        1 DRQ     -0.196000
     16 CAK         2.7240   -0.2960   -2.9010 c3        1 DRQ     -0.147000
     17 CAJ         1.6160    0.2280   -2.2760 c3        1 DRQ     -0.106000
     18 CAI         1.1540   -0.5020   -1.3440 c3        1 DRQ     -0.087000
     19 CAH         0.9690   -1.1820   -1.6150 c3        1 DRQ     -0.152000
     20 CAG         0.4550   -2.3010   -0.5200 c3        1 DRQ     -0.122000
     21 CAF        -0.2390   -1.7920    0.6050 c2        1 DRQ     -0.026000
     22 CAE        -0.8470   -2.6300    1.6080 c2        1 DRQ     -0.219000
     23 CAA        -1.5870   -2.0750    2.5930 c2        1 DRQ      0.087000
     24 OAB        -2.1400   -2.8870    3.6020 oh        1 DRQ     -0.248000
     25 HAX1       -6.1410   -1.4040    3.8330 hc        1 DRQ      0.071333
     26 HAX2       -6.4960   -1.6010    2.2850 hc        1 DRQ      0.071333
     27 HAX3       -6.5210   -0.1370    2.9320 hc        1 DRQ      0.071333
     28 HAW1       -4.2090   -1.6970    2.3990 hc        1 DRQ      0.096000
     29 HAW2       -4.5400   -0.2590    1.7870 hc        1 DRQ      0.096000
     30 HAV        -4.3970    0.2410    4.4640 ha        1 DRQ      0.118000
     31 HAU        -2.0730    0.2850    4.5060 ha        1 DRQ      0.123000
     32 HAD        -1.2990    0.9790    1.7180 ha        1 DRQ      0.138000
     33 HAS        -0.5760    0.4130   -1.1040 hc        1 DRQ      0.094000
     34 HAR1        0.0450    2.1540    0.4990 hc        1 DRQ      0.083500
     35 HAR2        1.4720    1.4800    0.7290 hc        1 DRQ      0.083500
     36 HAQ1        0.5880    2.7630   -1.5450 hc        1 DRQ      0.084500
     37 HAQ2        1.7550    3.2400   -0.5610 hc        1 DRQ      0.084500
     38 HAP1        3.4080    0.6510   -0.4260 hc        1 DRQ      0.080667
     39 HAP2        3.5650    2.2290   -0.2070 hc        1 DRQ      0.080667
     40 HAP3        4.2650    1.5210   -1.4610 hc        1 DRQ      0.080667
     41 HAM         1.7820    2.6770   -3.3440 h1        1 DRQ      0.074000
     42 HOAN        3.4400    3.9200   -3.3440 ho        1 DRQ      0.197000
     43 HAL1        4.3050    1.1150   -3.6510 hc        1 DRQ      0.086500
     44 HAL2        3.0520    1.0580   -4.6660 hc        1 DRQ      0.086500
     45 HAK1        3.3730   -0.6250   -2.2450 hc        1 DRQ      0.084500
     46 HAK2        2.4700   -1.0020   -3.5300 hc        1 DRQ      0.084500
     47 HAJ         0.9140    0.3880   -2.9400 hc        1 DRQ      0.085000
     48 HAI         1.9170   -0.6680   -0.7430 hc        1 DRQ      0.103000
     49 HAH1        1.7650   -1.5480   -2.0570 hc        1 DRQ      0.083500
     50 HAH2        0.2420   -1.0510   -2.2640 hc        1 DRQ      0.083500
     51 HAG1        1.2460   -2.7760   -0.1890 hc        1 DRQ      0.090000
     52 HAG2       -0.1480   -2.9160   -0.9860 hc        1 DRQ      0.090000
     53 HAE        -0.7250   -3.5980    1.5760 ha        1 DRQ      0.131000
     54 HOAB       -1.4870   -3.2950    4.0450 ho        1 DRQ      0.214000
@<TRIPOS>BOND
     1    1    2 1   
     2    1   25 1   
     3    1   26 1   
     4    1   27 1   
     5    2    3 1   
     6    2   28 1   
     7    2   29 1   
     8    3    4 1   
     9    3   30 1   
    10    4   31 1   
    11    5    6 1   
    12    5   23 1   
    13    6   32 1   
    14    7    8 1   
    15    7   21 1   
    16    8    9 1   
    17    8   18 1   
    18    8   33 1   
    19    9   10 1   
    20    9   34 1   
    21    9   35 1   
    22   10   11 1   
    23   10   36 1   
    24   10   37 1   
    25   11   12 1   
    26   11   13 1   
    27   11   17 1   
    28   12   38 1   
    29   12   39 1   
    30   12   40 1   
    31   13   14 1   
    32   13   15 1   
    33   13   41 1   
    34   14   42 1   
    35   15   16 1   
    36   15   43 1   
    37   15   44 1   
    38   16   17 1   
    39   16   45 1   
    40   16   46 1   
    41   17   18 1   
    42   17   47 1   
    43   18   19 1   
    44   18   48 1   
    45   19   20 1   
    46   19   49 1   
    47   19   50 1   
    48   20   21 1   
    49   20   51 1   
    50   20   52 1   
    51   21   22 1   
    52   22   23 1   
    53   22   53 1   
    54   23   24 1   
    55   24   54 1   
@<TRIPOS>SUBSTRUCTURE
     1 DRQ         1 TEMP              0 ****  ****    0 ROOT
