@<TRIPOS>MOLECULE
DRQ
   54    57     1     0     0
SMALL
bcc


@<TRIPOS>ATOM
      1 CAX        -0.1050    0.7260    0.3150 c3        1 DRQ     -0.090100
      2 CAW         1.3150    0.2230    0.2190 c3        1 DRQ     -0.054200
      3 CAV         1.8490   -0.1810    1.5400 c2        1 DRQ     -0.159200
      4 CAU         2.7470   -1.1440    1.7770 ce        1 DRQ     -0.107200
      5 CAC         3.4060   -1.9980    0.8050 ca        1 DRQ     -0.076800
      6 CAD         3.8290   -1.5340   -0.4430 ca        1 DRQ     -0.092000
      7 CAT         4.4820   -2.3590   -1.3670 ca        1 DRQ     -0.099300
      8 CAS         4.8680   -1.8350   -2.7160 c3        1 DRQ     -0.008400
      9 CAR         5.1820   -0.3420   -2.7150 c3        1 DRQ     -0.071400
     10 CAQ         5.6840    0.1860   -4.0510 c3        1 DRQ     -0.063400
     11 CAO         6.8420   -0.6480   -4.5690 c3        1 DRQ     -0.043000
     12 CAP         8.0630   -0.4680   -3.6840 c3        1 DRQ     -0.077100
     13 CAM         7.2480   -0.3880   -6.0410 c3        1 DRQ      0.141100
     14 OAN         8.1840    0.6730   -6.1050 oh        1 DRQ     -0.591800
     15 CAL         7.8430   -1.7280   -6.5280 c3        1 DRQ     -0.117400
     16 CAK         7.3950   -2.8030   -5.5350 c3        1 DRQ     -0.068400
     17 CAJ         6.3520   -2.1130   -4.6670 c3        1 DRQ     -0.066700
     18 CAI         6.0300   -2.6610   -3.2950 c3        1 DRQ     -0.047700
     19 CAH         5.6220   -4.1220   -3.3420 c3        1 DRQ     -0.073400
     20 CAG         5.4200   -4.6540   -1.9400 c3        1 DRQ     -0.037100
     21 CAF         4.7190   -3.7030   -1.0320 ca        1 DRQ     -0.032300
     22 CAE         4.3150   -4.1890    0.2170 ca        1 DRQ     -0.220000
     23 CAA         3.6720   -3.3490    1.1290 ca        1 DRQ      0.131100
     24 OAB         3.2720   -3.7880    2.3710 oh        1 DRQ     -0.496100
     25 HAX1       -0.4780    1.0180   -0.6960 hc        1 DRQ      0.034033
     26 HAX2       -0.7760   -0.0670    0.7250 hc        1 DRQ      0.034033
     27 HAX3       -0.1660    1.6180    0.9850 hc        1 DRQ      0.034033
     28 HAW1        1.3580   -0.6410   -0.4990 hc        1 DRQ      0.048200
     29 HAW2        1.9680    1.0370   -0.2040 hc        1 DRQ      0.048200
     30 HAV         1.4360    0.3850    2.3940 ha        1 DRQ      0.121000
     31 HAU         3.0300   -1.3710    2.8240 ha        1 DRQ      0.136000
     32 HAD         3.6450   -0.4760   -0.6870 ha        1 DRQ      0.140000
     33 HAS         3.9740   -1.9890   -3.3930 hc        1 DRQ      0.053700
     34 HAR1        4.2490    0.2280   -2.4590 hc        1 DRQ      0.044200
     35 HAR2        5.9370   -0.1240   -1.9150 hc        1 DRQ      0.044200
     36 HAQ1        4.8480    0.1710   -4.7980 hc        1 DRQ      0.044700
     37 HAQ2        6.0110    1.2510   -3.9280 hc        1 DRQ      0.044700
     38 HAP1        7.8350   -0.6990   -2.6170 hc        1 DRQ      0.041367
     39 HAP2        8.4150    0.5910   -3.7510 hc        1 DRQ      0.041367
     40 HAP3        8.8900   -1.1350   -4.0290 hc        1 DRQ      0.041367
     41 HAM         6.3410   -0.1170   -6.6490 h1        1 DRQ      0.033700
     42 HOAN        8.4610    0.7350   -7.0270 ho        1 DRQ      0.398000
     43 HAL1        8.9580   -1.6600   -6.5590 hc        1 DRQ      0.047200
     44 HAL2        7.4790   -1.9600   -7.5580 hc        1 DRQ      0.047200
     45 HAK1        8.2570   -3.1590   -4.9180 hc        1 DRQ      0.045200
     46 HAK2        6.9630   -3.6890   -6.0610 hc        1 DRQ      0.045200
     47 HAJ         5.3880   -2.1100   -5.2580 hc        1 DRQ      0.045700
     48 HAI         6.9270   -2.5630   -2.6240 hc        1 DRQ      0.063700
     49 HAH1        6.4170   -4.7200   -3.8610 hc        1 DRQ      0.044700
     50 HAH2        4.6780   -4.2340   -3.9360 hc        1 DRQ      0.044700
     51 HAG1        6.4220   -4.8920   -1.4860 hc        1 DRQ      0.051200
     52 HAG2        4.8430   -5.6170   -1.9880 hc        1 DRQ      0.051200
     53 HAE         4.5070   -5.2400    0.4800 ha        1 DRQ      0.131000
     54 HOAB        3.5230   -4.7200    2.4500 ho        1 DRQ      0.417000
@<TRIPOS>BOND
     1    1    2 1   
     2    1   25 1   
     3    1   26 1   
     4    1   27 1   
     5    2    3 1   
     6    2   28 1   
     7    2   29 1   
     8    3    4 2   
     9    3   30 1   
    10    4    5 1   
    11    4   31 1   
    12    5    6 ar  
    13    5   23 ar  
    14    6    7 ar  
    15    6   32 1   
    16    7    8 1   
    17    7   21 ar  
    18    8    9 1   
    19    8   18 1   
    20    8   33 1   
    21    9   10 1   
    22    9   34 1   
    23    9   35 1   
    24   10   11 1   
    25   10   36 1   
    26   10   37 1   
    27   11   12 1   
    28   11   13 1   
    29   11   17 1   
    30   12   38 1   
    31   12   39 1   
    32   12   40 1   
    33   13   14 1   
    34   13   15 1   
    35   13   41 1   
    36   14   42 1   
    37   15   16 1   
    38   15   43 1   
    39   15   44 1   
    40   16   17 1   
    41   16   45 1   
    42   16   46 1   
    43   17   18 1   
    44   17   47 1   
    45   18   19 1   
    46   18   48 1   
    47   19   20 1   
    48   19   49 1   
    49   19   50 1   
    50   20   21 1   
    51   20   51 1   
    52   20   52 1   
    53   21   22 ar  
    54   22   23 ar  
    55   22   53 1   
    56   23   24 1   
    57   24   54 1   
@<TRIPOS>SUBSTRUCTURE
     1 DRQ         1 TEMP              0 ****  ****    0 ROOT
