@<TRIPOS>MOLECULE
DRS
   53    54     1     0     0
SMALL
bcc


@<TRIPOS>ATOM
      1 CAA        -0.1300   -0.3320    0.2620 c3        1 DRS     -0.114600
      2 CAX         1.3330   -0.2090   -0.1180 c3        1 DRS     -0.078700
      3 CAB         1.5100    0.8910   -1.1450 c3        1 DRS     -0.114600
      4 CAZ         2.1730    0.0740    1.1490 c3        1 DRS      0.040500
      5 CAU         1.9780   -1.0850    2.1690 c         1 DRS      0.658100
      6 OAE         2.7410   -2.0700    2.0890 o         1 DRS     -0.593100
      7 N           1.0000   -0.9460    3.1100 n         1 DRS     -0.524900
      8 CA          0.7300   -1.9760    4.0940 c3        1 DRS      0.000700
      9 C          -0.6980   -2.5030    3.9390 c         1 DRS      0.598100
     10 O          -0.9930   -3.6050    3.4900 o         1 DRS     -0.438000
     11 OXT        -1.7620   -1.7180    4.2690 oh        1 DRS     -0.563100
     12 CB          0.9650   -1.5190    5.5470 c3        1 DRS     -0.047100
     13 CG          2.3860   -1.1400    5.7550 ca        1 DRS     -0.121300
     14 CD2         2.7500    0.2070    5.8600 ca        1 DRS     -0.101000
     15 CE2         4.0910    0.5730    5.9340 ca        1 DRS     -0.157000
     16 CD1         3.3760   -2.1310    5.8130 ca        1 DRS     -0.101000
     17 CE1         4.7210   -1.7830    5.8800 ca        1 DRS     -0.157000
     18 CZ          5.0750   -0.4240    5.9010 ca        1 DRS      0.104100
     19 OH          6.4320   -0.1360    5.9370 os        1 DRS     -0.317900
     20 CAM         6.8520    0.8720    5.0150 c3        1 DRS      0.132400
     21 CAK         6.5800    0.4520    3.5780 c3        1 DRS     -0.125400
     22 CAL         6.5870    1.6340    2.6340 c3        1 DRS     -0.084400
     23 CAN         5.8790    1.3100    1.3280 c3        1 DRS     -0.149400
     24 CAS         4.3860    1.3120    1.5230 c         1 DRS      0.550100
     25 OAC         3.7160    2.1260    2.1370 o         1 DRS     -0.410100
     26 NAP         3.6420    0.1810    0.8330 n4        1 DRS     -0.684800
     27 HAA        -0.3270   -1.2890    0.8020 hc        1 DRS      0.060867
     28 HAAA       -0.7570   -0.3370   -0.6660 hc        1 DRS      0.060867
     29 HAAB       -0.4560    0.5280    0.8950 hc        1 DRS      0.060867
     30 HAX         1.6670   -1.1910   -0.5610 hc        1 DRS      0.087700
     31 HAB         0.7310    0.7870   -1.9430 hc        1 DRS      0.060867
     32 HABA        1.3910    1.9000   -0.6800 hc        1 DRS      0.060867
     33 HABB        2.5030    0.8380   -1.6540 hc        1 DRS      0.060867
     34 HAZ         1.8430    1.0640    1.5890 hx        1 DRS      0.133700
     35 HN          0.4160   -0.1420    3.1080 hn        1 DRS      0.329500
     36 HA          1.4270   -2.8520    3.8880 h1        1 DRS      0.138700
     37 HB          0.2920   -0.6600    5.8070 hc        1 DRS      0.073700
     38 HBA         0.6900   -2.3810    6.2150 hc        1 DRS      0.073700
     39 HD2         1.9740    0.9870    5.8920 ha        1 DRS      0.142000
     40 HE2         4.3710    1.6320    6.0280 ha        1 DRS      0.156000
     41 HD1         3.0900   -3.1940    5.7900 ha        1 DRS      0.142000
     42 HE1         5.5060   -2.5520    5.9220 ha        1 DRS      0.156000
     43 HAM         7.9550    0.9540    5.2180 h1        1 DRS      0.069200
     44 HAMA        6.3510    1.8460    5.2550 h1        1 DRS      0.069200
     45 HAK         7.3460   -0.3030    3.2600 hc        1 DRS      0.054700
     46 HAKA        5.5780   -0.0570    3.5350 hc        1 DRS      0.054700
     47 HAL         7.6450    1.9230    2.3930 hc        1 DRS      0.084700
     48 HALA        6.0970    2.5250    3.1130 hc        1 DRS      0.084700
     49 HAN         6.1030    2.1130    0.5690 hc        1 DRS      0.104200
     50 HANA        6.2550    0.3330    0.9260 hc        1 DRS      0.104200
     51 HNAP        4.0950   -0.7150    1.0980 hn        1 DRS      0.475300
     52 H2         -1.4670   -0.9330    4.7510 ho        1 DRS      0.427000
     53 HAP2        3.7550    0.3040   -0.1800 hn        1 DRS      0.475300
@<TRIPOS>BOND
     1    1    2 1   
     2    1   27 1   
     3    1   28 1   
     4    1   29 1   
     5    2    3 1   
     6    2    4 1   
     7    2   30 1   
     8    3   31 1   
     9    3   32 1   
    10    3   33 1   
    11    4    5 1   
    12    4   26 1   
    13    4   34 1   
    14    5    6 2   
    15    5    7 1   
    16    7    8 1   
    17    7   35 1   
    18    8    9 1   
    19    8   12 1   
    20    8   36 1   
    21    9   10 2   
    22    9   11 1   
    23   11   52 1   
    24   12   13 1   
    25   12   37 1   
    26   12   38 1   
    27   13   14 ar  
    28   13   16 ar  
    29   14   15 ar  
    30   14   39 1   
    31   15   18 ar  
    32   15   40 1   
    33   16   17 ar  
    34   16   41 1   
    35   17   18 ar  
    36   17   42 1   
    37   18   19 1   
    38   19   20 1   
    39   20   21 1   
    40   20   43 1   
    41   20   44 1   
    42   21   22 1   
    43   21   45 1   
    44   21   46 1   
    45   22   23 1   
    46   22   47 1   
    47   22   48 1   
    48   23   24 1   
    49   23   49 1   
    50   23   50 1   
    51   24   25 2   
    52   24   26 1   
    53   26   51 1   
    54   26   53 1   
@<TRIPOS>SUBSTRUCTURE
     1 DRS         1 TEMP              0 ****  ****    0 ROOT
