@<TRIPOS>MOLECULE
DRS
   53    54     1     0     0
SMALL
bcc


@<TRIPOS>ATOM
      1 CAA        -0.1170   -0.3510    0.2470 c3        1 DRS     -0.114600
      2 CAX         1.3470   -0.2090   -0.1250 c3        1 DRS     -0.078700
      3 CAB         1.5150    0.9000   -1.1440 c3        1 DRS     -0.114600
      4 CAZ         2.1770    0.0760    1.1470 c3        1 DRS      0.040500
      5 CAU         1.9910   -1.0910    2.1590 c         1 DRS      0.658100
      6 OAE         2.7660   -2.0670    2.0760 o         1 DRS     -0.593100
      7 N           1.0070   -0.9700    3.0970 ns        1 DRS     -0.524900
      8 CA          0.7460   -2.0090    4.0730 c3        1 DRS      0.000700
      9 C          -0.6760   -2.5510    3.9090 c         1 DRS      0.598100
     10 O          -0.9560   -3.6530    3.4520 o         1 DRS     -0.438000
     11 OXT        -1.7500   -1.7800    4.2400 oh        1 DRS     -0.563100
     12 CB          0.9690   -1.5590    5.5300 c3        1 DRS     -0.047100
     13 CG          2.3860   -1.1650    5.7460 ca        1 DRS     -0.121300
     14 CD2         2.7330    0.1850    5.8620 ca        1 DRS     -0.101000
     15 CE2         4.0700    0.5660    5.9430 ca        1 DRS     -0.157000
     16 CD1         3.3860   -2.1450    5.8020 ca        1 DRS     -0.101000
     17 CE1         4.7270   -1.7820    5.8770 ca        1 DRS     -0.157000
     18 CZ          5.0650   -0.4190    5.9070 ca        1 DRS      0.104100
     19 OH          6.4190   -0.1170    5.9510 os        1 DRS     -0.317900
     20 CAM         6.8320    0.9020    5.0380 c3        1 DRS      0.132400
     21 CAK         6.5690    0.4890    3.5960 c3        1 DRS     -0.125400
     22 CAL         6.5660    1.6780    2.6610 c3        1 DRS     -0.084400
     23 CAN         5.8670    1.3550    1.3500 c3        1 DRS     -0.149400
     24 CAS         4.3740    1.3370    1.5380 c         1 DRS      0.550100
     25 OAC         3.6920    2.1400    2.1550 o         1 DRS     -0.410100
     26 NAP         3.6470    0.2020    0.8390 ny        1 DRS     -0.684800
     27 HAA        -0.4560    0.5000    0.8850 hc        1 DRS      0.060867
     28 HAAA       -0.3040   -1.3140    0.7810 hc        1 DRS      0.060867
     29 HAAB       -0.7390   -0.3580   -0.6830 hc        1 DRS      0.060867
     30 HAX         1.6940   -1.1840   -0.5720 hc        1 DRS      0.087700
     31 HAB         2.5100    0.8620   -1.6490 hc        1 DRS      0.060867
     32 HABA        0.7410    0.7910   -1.9460 hc        1 DRS      0.060867
     33 HABB        1.3810    1.9040   -0.6730 hc        1 DRS      0.060867
     34 HAZ         1.8340    1.0590    1.5930 hx        1 DRS      0.133700
     35 HN         -1.4660   -0.9950    4.7290 ho        1 DRS      0.427000
     36 HA          1.4530   -2.8760    3.8640 h1        1 DRS      0.138700
     37 HB          0.7010   -2.4280    6.1920 hc        1 DRS      0.073700
     38 HBA         0.2860   -0.7090    5.7930 hc        1 DRS      0.073700
     39 HD2         1.9490    0.9570    5.8960 ha        1 DRS      0.142000
     40 HE2         4.3380    1.6270    6.0450 ha        1 DRS      0.156000
     41 HD1         3.1120   -3.2110    5.7710 ha        1 DRS      0.142000
     42 HE1         5.5210   -2.5430    5.9170 ha        1 DRS      0.156000
     43 HAM         7.9320    0.9950    5.2460 h1        1 DRS      0.069200
     44 HAMA        6.3190    1.8690    5.2820 h1        1 DRS      0.069200
     45 HAK         5.5740   -0.0310    3.5460 hc        1 DRS      0.054700
     46 HAKA        7.3450   -0.2550    3.2760 hc        1 DRS      0.054700
     47 HAL         7.6220    1.9810    2.4270 hc        1 DRS      0.084700
     48 HALA        6.0650    2.5600    3.1440 hc        1 DRS      0.084700
     49 HAN         6.0850    2.1660    0.5970 hc        1 DRS      0.104200
     50 HANA        6.2570    0.3850    0.9430 hc        1 DRS      0.104200
     51 HNAP        3.7630    0.3320   -0.1730 hn        1 DRS      0.475300
     52 H2          0.4150   -0.1720    3.0970 hn        1 DRS      0.329500
     53 HAP2        4.1090   -0.6900    1.1010 hn        1 DRS      0.475300
@<TRIPOS>BOND
     1    1    2 1   
     2    1   27 1   
     3    1   28 1   
     4    1   29 1   
     5    2    3 1   
     6    2    4 1   
     7    2   30 1   
     8    3   31 1   
     9    3   32 1   
    10    3   33 1   
    11    4    5 1   
    12    4   26 1   
    13    4   34 1   
    14    5    6 2   
    15    5    7 1   
    16    7    8 1   
    17    7   52 1   
    18    8    9 1   
    19    8   12 1   
    20    8   36 1   
    21    9   10 2   
    22    9   11 1   
    23   11   35 1   
    24   12   13 1   
    25   12   37 1   
    26   12   38 1   
    27   13   14 ar  
    28   13   16 ar  
    29   14   15 ar  
    30   14   39 1   
    31   15   18 ar  
    32   15   40 1   
    33   16   17 ar  
    34   16   41 1   
    35   17   18 ar  
    36   17   42 1   
    37   18   19 1   
    38   19   20 1   
    39   20   21 1   
    40   20   43 1   
    41   20   44 1   
    42   21   22 1   
    43   21   45 1   
    44   21   46 1   
    45   22   23 1   
    46   22   47 1   
    47   22   48 1   
    48   23   24 1   
    49   23   49 1   
    50   23   50 1   
    51   24   25 2   
    52   24   26 1   
    53   26   51 1   
    54   26   53 1   
@<TRIPOS>SUBSTRUCTURE
     1 DRS         1 TEMP              0 ****  ****    0 ROOT
