@<TRIPOS>MOLECULE
DRS
   51    50     1     0     0
SMALL
bcc


@<TRIPOS>ATOM
      1 CAA        -3.5080   -2.1190   -1.6900 c3        1 DRS     -0.205500
      2 CAX        -1.9660   -2.1190   -1.6900 c3        1 DRS     -0.104000
      3 CAB        -1.4530   -3.3790   -2.4170 c3        1 DRS     -0.205500
      4 CAZ        -1.4590   -2.1190   -0.2590 c3        1 DRS     -0.007000
      5 CAU         0.0420   -2.4150   -0.2470 c2        1 DRS      0.277000
      6 OAE         0.4460   -3.5140   -0.5850 o         1 DRS     -0.371000
      7 N           0.9900   -1.4250    0.3590 n         1 DRS     -0.304000
      8 CA          2.3030   -2.0040    0.4330 c3        1 DRS     -0.084000
      9 C           2.6160   -2.3540    1.8600 c2        1 DRS      0.324000
     10 O           1.6840   -2.4410    2.7070 o         1 DRS     -0.577500
     11 OXT         3.8020   -2.6430    2.1930 o         1 DRS     -0.577500
     12 CB          3.3340   -1.0040   -0.0830 c3        1 DRS     -0.112000
     13 CG          3.0020    0.4370    0.4710 c2        1 DRS     -0.078000
     14 CD2         3.2030    1.6420   -0.2310 c2        1 DRS     -0.124000
     15 CE2         2.3630    2.7420    0.0060 c1        1 DRS     -0.153000
     16 CD1         2.5960    0.7630    1.9360 c1        1 DRS     -0.088000
     17 CE1         1.9360    1.9440    2.2230 c1        1 DRS     -0.171000
     18 CZ          1.7040    2.8620    1.2230 c1        1 DRS      0.032000
     19 OH          0.7090    3.9010    1.4080 os        1 DRS     -0.236000
     20 CAM        -0.5670    3.2990    1.7430 c3        1 DRS     -0.021000
     21 CAK        -1.6420    3.7060    0.6670 c3        1 DRS     -0.176000
     22 CAL        -1.4640    2.8120   -0.6220 c3        1 DRS     -0.154000
     23 CAN        -2.2780    1.4660   -0.4510 c3        1 DRS     -0.187000
     24 CAS        -1.2980    0.2290   -0.6050 c2        1 DRS      0.288000
     25 OAC        -0.8440   -0.0550   -1.6970 o         1 DRS     -0.401000
     26 NAP        -1.6980   -0.8430    0.3330 n         1 DRS     -0.342000
     27 HAA        -3.8340   -1.8230   -2.5610 hc        1 DRS      0.072167
     28 HAAA       -3.8340   -3.0220   -1.5100 hc        1 DRS      0.072167
     29 HAAB       -3.8340   -1.5120   -0.9980 hc        1 DRS      0.072167
     30 HAX        -1.6400   -1.3220   -2.1500 hc        1 DRS      0.124000
     31 HAB        -1.9910   -3.5350   -3.2160 hc        1 DRS      0.072167
     32 HABA       -1.5230   -4.1490   -1.8220 hc        1 DRS      0.072167
     33 HABB       -0.5200   -3.2500   -2.6730 hc        1 DRS      0.072167
     34 HAZ        -1.9290   -2.8060    0.2510 h1        1 DRS      0.116000
     35 HN          0.8930   -0.5350    0.1840 hn        1 DRS      0.190000
     36 HA          2.3330   -2.8120   -0.1130 h1        1 DRS      0.117000
     37 HB          4.2240   -1.2710    0.2180 hc        1 DRS      0.092000
     38 HBA         3.3130   -0.9900   -1.0590 hc        1 DRS      0.092000
     39 HD2         3.9070    1.7030   -0.9050 ha        1 DRS      0.131000
     40 HE2         2.2840    3.4480   -0.6630 ha        1 DRS      0.135000
     41 HD1         2.8600    0.1630    2.6600 ha        1 DRS      0.182000
     42 HE1         1.6900    2.1530    3.1440 ha        1 DRS      0.131000
     43 HAM        -0.4740    2.3270    1.7580 h1        1 DRS      0.086500
     44 HAMA       -0.8530    3.6110    2.6220 h1        1 DRS      0.086500
     45 HAK        -2.5360    3.5730    1.0340 hc        1 DRS      0.076000
     46 HAKA       -1.5240    4.6460    0.4290 hc        1 DRS      0.076000
     47 HAL        -0.5180    2.6060   -0.7470 hc        1 DRS      0.098000
     48 HALA       -1.7970    3.2950   -1.4020 hc        1 DRS      0.098000
     49 HAN        -2.6900    1.4460    0.4340 hc        1 DRS      0.115000
     50 HANA       -2.9730    1.4170   -1.1340 hc        1 DRS      0.115000
     51 HNAP       -1.5870   -0.7280    1.2310 hn        1 DRS      0.266000
@<TRIPOS>BOND
     1    1    2 1   
     2    1   27 1   
     3    1   28 1   
     4    1   29 1   
     5    2    3 1   
     6    2    4 1   
     7    2   30 1   
     8    3   31 1   
     9    3   32 1   
    10    3   33 1   
    11    4    5 1   
    12    4   26 1   
    13    4   34 1   
    14    5    6 1   
    15    5    7 1   
    16    7    8 1   
    17    7   35 1   
    18    8    9 1   
    19    8   12 1   
    20    8   36 1   
    21    9   10 1   
    22    9   11 1   
    23   12   13 1   
    24   12   37 1   
    25   12   38 1   
    26   13   14 1   
    27   13   16 1   
    28   14   15 1   
    29   14   39 1   
    30   15   40 1   
    31   16   41 1   
    32   17   18 1   
    33   17   42 1   
    34   18   19 1   
    35   19   20 1   
    36   20   21 1   
    37   20   43 1   
    38   20   44 1   
    39   21   22 1   
    40   21   45 1   
    41   21   46 1   
    42   22   23 1   
    43   22   47 1   
    44   22   48 1   
    45   23   24 1   
    46   23   49 1   
    47   23   50 1   
    48   24   25 1   
    49   24   26 1   
    50   26   51 1   
@<TRIPOS>SUBSTRUCTURE
     1 DRS         1 TEMP              0 ****  ****    0 ROOT
