@<TRIPOS>MOLECULE
DRS
   51    52     1     0     0
SMALL
bcc


@<TRIPOS>ATOM
      1 CAA        -2.4310    3.2920    0.2990 c3        1 DRS     -0.098600
      2 CAX        -1.0920    3.3770   -0.4070 c3        1 DRS     -0.067700
      3 CAB        -0.4060    4.6810   -0.0550 c3        1 DRS     -0.098600
      4 CAZ        -0.2170    2.1610   -0.0210 c3        1 DRS      0.020700
      5 CAU        -0.8860    0.8960   -0.6390 c         1 DRS      0.624100
      6 OAE        -0.6190    0.5880   -1.8250 o         1 DRS     -0.655100
      7 N          -1.6650    0.1360    0.1950 n         1 DRS     -0.489900
      8 CA         -2.5210   -0.9210   -0.3160 c3        1 DRS     -0.061300
      9 C          -4.0450   -0.6500   -0.0320 c         1 DRS      0.909600
     10 O          -4.8520   -1.5180   -0.4510 o         1 DRS     -0.827300
     11 OXT        -4.3560    0.4090    0.5810 o         1 DRS     -0.827300
     12 CB         -2.1730   -2.2950    0.2840 c3        1 DRS     -0.033100
     13 CG         -0.7240   -2.6080    0.1710 ca        1 DRS     -0.054300
     14 CD2         0.0930   -2.6020    1.3090 ca        1 DRS     -0.112500
     15 CE2         1.4740   -2.7280    1.1950 ca        1 DRS     -0.152500
     16 CD1        -0.1420   -2.8330   -1.0850 ca        1 DRS     -0.112500
     17 CE1         1.2380   -2.9520   -1.2190 ca        1 DRS     -0.152500
     18 CZ          2.0450   -2.8610   -0.0770 ca        1 DRS      0.065100
     19 OH          3.4260   -2.9450   -0.2490 os        1 DRS     -0.351900
     20 CAM         4.1300   -1.7970    0.2370 c3        1 DRS      0.137400
     21 CAK         3.6930   -0.5180   -0.4540 c3        1 DRS     -0.123400
     22 CAL         4.2490    0.7030    0.2430 c3        1 DRS     -0.071400
     23 CAN         3.6090    1.9820   -0.2590 c3        1 DRS     -0.148400
     24 CAS         2.2310    2.1720    0.3620 c         1 DRS      0.652100
     25 OAC         2.1150    2.3140    1.5980 o         1 DRS     -0.624100
     26 NAP         1.1500    2.2600   -0.4910 n         1 DRS     -0.535900
     27 HAA        -3.0220    4.2180    0.0970 hc        1 DRS      0.041033
     28 HAAA       -3.0370    2.4170   -0.0500 hc        1 DRS      0.041033
     29 HAAB       -2.2890    3.2020    1.4030 hc        1 DRS      0.041033
     30 HAX        -1.2650    3.3450   -1.5200 hc        1 DRS      0.058700
     31 HAB        -0.0510    4.6620    1.0030 hc        1 DRS      0.041033
     32 HABA        0.4700    4.8670   -0.7210 hc        1 DRS      0.041033
     33 HABB       -1.1190    5.5330   -0.1750 hc        1 DRS      0.041033
     34 HAZ        -0.1930    2.0900    1.1090 h1        1 DRS      0.095700
     35 HN         -2.0620    0.6070    0.9860 hn        1 DRS      0.319500
     36 HA         -2.3940   -0.9840   -1.4360 h1        1 DRS      0.071700
     37 HB         -2.4940   -2.3220    1.3580 hc        1 DRS      0.062200
     38 HBA        -2.7920   -3.0500   -0.2720 hc        1 DRS      0.062200
     39 HD2        -0.3600   -2.4610    2.3020 ha        1 DRS      0.137000
     40 HE2         2.1140   -2.6950    2.0870 ha        1 DRS      0.130000
     41 HD1        -0.7850   -2.8620   -1.9780 ha        1 DRS      0.137000
     42 HE1         1.7010   -3.0930   -2.2050 ha        1 DRS      0.130000
     43 HAM         3.9870   -1.7140    1.3470 h1        1 DRS      0.042700
     44 HAMA        5.2020   -2.0410    0.0110 h1        1 DRS      0.042700
     45 HAK         4.0260   -0.5380   -1.5240 hc        1 DRS      0.061700
     46 HAKA        2.5700   -0.4700   -0.4600 hc        1 DRS      0.061700
     47 HAL         4.0810    0.6240    1.3510 hc        1 DRS      0.049200
     48 HALA        5.3570    0.7600    0.0730 hc        1 DRS      0.049200
     49 HAN         4.2300    2.8610    0.0580 hc        1 DRS      0.058200
     50 HANA        3.5710    1.9750   -1.3790 hc        1 DRS      0.058200
     51 HNAP        1.2780    1.9870   -1.4420 hn        1 DRS      0.318500
@<TRIPOS>BOND
     1    1    2 1   
     2    1   27 1   
     3    1   28 1   
     4    1   29 1   
     5    2    3 1   
     6    2    4 1   
     7    2   30 1   
     8    3   31 1   
     9    3   32 1   
    10    3   33 1   
    11    4    5 1   
    12    4   26 1   
    13    4   34 1   
    14    5    6 2   
    15    5    7 1   
    16    7    8 1   
    17    7   35 1   
    18    8    9 1   
    19    8   12 1   
    20    8   36 1   
    21    9   10 1   
    22    9   11 1   
    23   12   13 1   
    24   12   37 1   
    25   12   38 1   
    26   13   14 ar  
    27   13   16 ar  
    28   14   15 ar  
    29   14   39 1   
    30   15   18 ar  
    31   15   40 1   
    32   16   17 ar  
    33   16   41 1   
    34   17   18 ar  
    35   17   42 1   
    36   18   19 1   
    37   19   20 1   
    38   20   21 1   
    39   20   43 1   
    40   20   44 1   
    41   21   22 1   
    42   21   45 1   
    43   21   46 1   
    44   22   23 1   
    45   22   47 1   
    46   22   48 1   
    47   23   24 1   
    48   23   49 1   
    49   23   50 1   
    50   24   25 2   
    51   24   26 1   
    52   26   51 1   
@<TRIPOS>SUBSTRUCTURE
     1 DRS         1 TEMP              0 ****  ****    0 ROOT
