@<TRIPOS>MOLECULE
DRS
   53    54     1     0     0
SMALL
bcc


@<TRIPOS>ATOM
      1 CAA        -0.1270   -0.3130    0.2570 c3        1 DRS     -0.114600
      2 CAX         1.3380   -0.1990   -0.1200 c3        1 DRS     -0.078700
      3 CAB         1.5230    0.9010   -1.1470 c3        1 DRS     -0.114600
      4 CAZ         2.1770    0.0790    1.1480 c3        1 DRS      0.040500
      5 CAU         1.9740   -1.0790    2.1670 c         1 DRS      0.658100
      6 OAE         2.7320   -2.0680    2.0880 o         1 DRS     -0.593100
      7 N           0.9950   -0.9360    3.1070 n         1 DRS     -0.524900
      8 CA          0.7190   -1.9640    4.0900 c3        1 DRS      0.000700
      9 C          -0.7120   -2.4830    3.9330 c         1 DRS      0.598100
     10 O          -1.0120   -3.5840    3.4830 o         1 DRS     -0.438000
     11 OXT        -1.7720   -1.6930    4.2620 oh        1 DRS     -0.563100
     12 CB          0.9540   -1.5090    5.5430 c3        1 DRS     -0.047100
     13 CG          2.3770   -1.1370    5.7540 ca        1 DRS     -0.121300
     14 CD2         2.7470    0.2080    5.8590 ca        1 DRS     -0.101000
     15 CE2         4.0910    0.5670    5.9350 ca        1 DRS     -0.157000
     16 CD1         3.3610   -2.1330    5.8140 ca        1 DRS     -0.101000
     17 CE1         4.7080   -1.7920    5.8830 ca        1 DRS     -0.157000
     18 CZ          5.0690   -0.4350    5.9040 ca        1 DRS      0.104100
     19 OH          6.4280   -0.1550    5.9420 os        1 DRS     -0.317900
     20 CAM         6.8550    0.8510    5.0210 c3        1 DRS      0.132400
     21 CAK         6.5820    0.4320    3.5830 c3        1 DRS     -0.125400
     22 CAL         6.5970    1.6140    2.6400 c3        1 DRS     -0.084400
     23 CAN         5.8900    1.2940    1.3330 c3        1 DRS     -0.149400
     24 CAS         4.3960    1.3040    1.5250 c         1 DRS      0.550100
     25 OAC         3.7310    2.1220    2.1390 o         1 DRS     -0.410100
     26 NAP         3.6470    0.1780    0.8340 n4        1 DRS     -0.684800
     27 HAA        -0.3300   -1.2690    0.7970 hc        1 DRS      0.060867
     28 HAAA       -0.4490    0.5490    0.8900 hc        1 DRS      0.060867
     29 HAAB       -0.7530   -0.3140   -0.6710 hc        1 DRS      0.060867
     30 HAX         1.6660   -1.1830   -0.5620 hc        1 DRS      0.087700
     31 HAB         0.7440    0.8010   -1.9460 hc        1 DRS      0.060867
     32 HABA        2.5150    0.8400   -1.6550 hc        1 DRS      0.060867
     33 HABB        1.4100    1.9100   -0.6820 hc        1 DRS      0.060867
     34 HAZ         1.8520    1.0700    1.5880 hx        1 DRS      0.133700
     35 HN         -1.4740   -0.9090    4.7440 ho        1 DRS      0.427000
     36 HA          1.4120   -2.8440    3.8850 h1        1 DRS      0.138700
     37 HB          0.2850   -0.6460    5.8030 hc        1 DRS      0.073700
     38 HBA         0.6730   -2.3690    6.2110 hc        1 DRS      0.073700
     39 HD2         1.9760    0.9920    5.8900 ha        1 DRS      0.142000
     40 HE2         4.3770    1.6240    6.0290 ha        1 DRS      0.156000
     41 HD1         3.0690   -3.1950    5.7900 ha        1 DRS      0.142000
     42 HE1         5.4890   -2.5660    5.9260 ha        1 DRS      0.156000
     43 HAM         6.3590    1.8270    5.2600 h1        1 DRS      0.069200
     44 HAMA        7.9580    0.9260    5.2260 h1        1 DRS      0.069200
     45 HAK         5.5780   -0.0710    3.5390 hc        1 DRS      0.054700
     46 HAKA        7.3450   -0.3270    3.2660 hc        1 DRS      0.054700
     47 HAL         7.6580    1.8970    2.4000 hc        1 DRS      0.084700
     48 HALA        6.1130    2.5080    3.1170 hc        1 DRS      0.084700
     49 HAN         6.1200    2.0950    0.5740 hc        1 DRS      0.104200
     50 HANA        6.2610    0.3150    0.9310 hc        1 DRS      0.104200
     51 HNAP        4.0950   -0.7210    1.0990 hn        1 DRS      0.475300
     52 H2          0.4160   -0.1280    3.1040 hn        1 DRS      0.329500
     53 HAP2        3.7630    0.3000   -0.1790 hn        1 DRS      0.475300
@<TRIPOS>BOND
     1    1    2 1   
     2    1   27 1   
     3    1   28 1   
     4    1   29 1   
     5    2    3 1   
     6    2    4 1   
     7    2   30 1   
     8    3   31 1   
     9    3   32 1   
    10    3   33 1   
    11    4    5 1   
    12    4   26 1   
    13    4   34 1   
    14    5    6 2   
    15    5    7 1   
    16    7    8 1   
    17    7   52 1   
    18    8    9 1   
    19    8   12 1   
    20    8   36 1   
    21    9   10 2   
    22    9   11 1   
    23   11   35 1   
    24   12   13 1   
    25   12   37 1   
    26   12   38 1   
    27   13   14 ar  
    28   13   16 ar  
    29   14   15 ar  
    30   14   39 1   
    31   15   18 ar  
    32   15   40 1   
    33   16   17 ar  
    34   16   41 1   
    35   17   18 ar  
    36   17   42 1   
    37   18   19 1   
    38   19   20 1   
    39   20   21 1   
    40   20   43 1   
    41   20   44 1   
    42   21   22 1   
    43   21   45 1   
    44   21   46 1   
    45   22   23 1   
    46   22   47 1   
    47   22   48 1   
    48   23   24 1   
    49   23   49 1   
    50   23   50 1   
    51   24   25 2   
    52   24   26 1   
    53   26   51 1   
    54   26   53 1   
@<TRIPOS>SUBSTRUCTURE
     1 DRS         1 TEMP              0 ****  ****    0 ROOT
