@<TRIPOS>MOLECULE
DRT
   34    35     1     0     0
SMALL
bcc


@<TRIPOS>ATOM
      1 OP3         3.6620    1.8890    0.8190 o         1 DRT     -0.925500
      2 P           2.6640    0.7810    0.8880 p5        1 DRT      1.340900
      3 OP1         3.0110   -0.5070    1.5970 o         1 DRT     -0.925500
      4 OP2         1.2110    1.1570    1.1200 o         1 DRT     -0.925500
      5 O5'         2.5920    0.1330   -0.7200 os        1 DRT     -0.568200
      6 C5'         1.3640   -0.0610   -1.2840 c3        1 DRT      0.223400
      7 C4'         0.8250   -1.4990   -1.0870 c3        1 DRT      0.062100
      8 O4'        -0.5300   -1.5560   -1.6020 os        1 DRT     -0.440600
      9 C3'         0.7750   -1.9630    0.3850 c3        1 DRT      0.107100
     10 O3'         1.7350   -2.9610    0.6460 oh        1 DRT     -0.654800
     11 C2'        -0.6380   -2.5140    0.5860 c3        1 DRT     -0.118400
     12 C1'        -1.4520   -1.8930   -0.5690 c3        1 DRT      0.303500
     13 N1         -2.2430   -0.7190   -0.1540 n         1 DRT     -0.369000
     14 C2         -3.6020   -0.6610   -0.5250 c         1 DRT      0.795500
     15 O2         -4.2050   -1.6200   -1.0750 o         1 DRT     -0.715500
     16 N3         -4.3320    0.5020   -0.2260 n         1 DRT     -0.598500
     17 C4         -3.7590    1.6340    0.3940 c         1 DRT      0.716700
     18 O4         -4.5150    2.6100    0.5930 o         1 DRT     -0.689500
     19 C5         -2.3440    1.5280    0.7330 cc        1 DRT     -0.293400
     20 C5M        -1.6610    2.6710    1.3720 c3        1 DRT     -0.044900
     21 C6         -1.6470    0.3840    0.4410 cd        1 DRT      0.059600
     22 H5'         0.6070    0.6720   -0.8880 h1        1 DRT     -0.001800
     23 H5''        1.4490    0.0890   -2.4020 h1        1 DRT     -0.001800
     24 H4'         1.4100   -2.2260   -1.7080 h1        1 DRT      0.047700
     25 H3'         0.9760   -1.0660    1.0610 h1        1 DRT      0.150700
     26 HO3'        2.5100   -2.4720    1.0000 ho        1 DRT      0.480000
     27 H2'        -0.6500   -3.6260    0.4800 hc        1 DRT      0.051700
     28 H2''       -1.0320   -2.2470    1.5930 hc        1 DRT      0.051700
     29 H1'        -2.1740   -2.6280   -1.0320 h2        1 DRT      0.084700
     30 H3         -5.2860    0.5180   -0.5000 hn        1 DRT      0.319500
     31 H71        -2.0600    2.8330    2.4040 hc        1 DRT      0.059033
     32 H72        -0.5490    2.4700    1.4280 hc        1 DRT      0.059033
     33 H73        -1.8400    3.6040    0.7830 hc        1 DRT      0.059033
     34 H6         -0.5370    0.3250    0.6930 h4        1 DRT      0.301000
@<TRIPOS>BOND
     1    1    2 1   
     2    2    3 1   
     3    2    4 1   
     4    2    5 1   
     5    5    6 1   
     6    6    7 1   
     7    6   22 1   
     8    6   23 1   
     9    7    8 1   
    10    7    9 1   
    11    7   24 1   
    12    8   12 1   
    13    9   10 1   
    14    9   11 1   
    15    9   25 1   
    16   10   26 1   
    17   11   12 1   
    18   11   27 1   
    19   11   28 1   
    20   12   13 1   
    21   12   29 1   
    22   13   14 1   
    23   13   21 1   
    24   14   15 2   
    25   14   16 1   
    26   16   17 1   
    27   16   30 1   
    28   17   18 2   
    29   17   19 1   
    30   19   20 1   
    31   19   21 2   
    32   20   31 1   
    33   20   32 1   
    34   20   33 1   
    35   21   34 1   
@<TRIPOS>SUBSTRUCTURE
     1 DRT         1 TEMP              0 ****  ****    0 ROOT
