@<TRIPOS>MOLECULE
DRV
   46    47     1     0     0
SMALL
bcc


@<TRIPOS>ATOM
      1 C4         10.5460  -14.7000  417.8100 ca        1 DRV      0.466800
      2 C5         11.4540  -14.1710  418.8080 ca        1 DRV     -0.269200
      3 C6         12.8510  -14.4220  418.6200 ca        1 DRV      0.793200
      4 C8          9.4680  -13.5490  419.5010 cc        1 DRV      0.407700
      5 N1         13.2310  -15.1580  417.4900 nb        1 DRV     -0.725000
      6 N3         10.9040  -15.4020  416.7310 nb        1 DRV     -0.703000
      7 N         -30.7240   40.7150-1199.5850 nz        1 DRV     -0.829600
      8 CA        -30.9050   39.9100-1198.3470 c3        1 DRV      0.004800
      9 C         -29.6500   40.0080-1197.4480 c         1 DRV      0.648100
     10 O         -28.6230   40.5380-1197.9220 o         1 DRV     -0.596100
     11 NAO       -29.7300   39.5010-1196.1960 nt        1 DRV     -0.617000
     12 SBA         7.6980  -13.4330  414.3100 s6        1 DRV      1.827000
     13 OAD         7.8180  -14.7730  414.4970 o         1 DRV     -0.616800
     14 OAE         8.4190  -12.6400  413.4910 o         1 DRV     -0.616800
     15 O5'         6.1060  -12.9850  414.2740 os        1 DRV     -0.539500
     16 C5'         5.5490  -12.4700  415.4630 c3        1 DRV      0.144400
     17 C4'         6.7220  -12.2040  416.4390 c3        1 DRV      0.110100
     18 O4'         7.8430  -12.8740  415.9150 os        1 DRV     -0.590500
     19 C3'         6.4150  -12.6910  417.8630 c3        1 DRV      0.149100
     20 O3'         7.2000  -12.0040  418.8210 oh        1 DRV     -0.620800
     21 C2'         6.7050  -14.1930  418.1160 c3        1 DRV      0.058800
     22 O2'         5.7560  -14.9050  417.3520 oh        1 DRV     -0.568800
     23 C1'         8.0900  -14.5940  417.6460 c2        1 DRV      0.439200
     24 N9          9.2120  -14.3040  418.2500 na        1 DRV     -0.219000
     25 N7         10.7400  -13.4780  419.8150 nd        1 DRV     -0.421100
     26 C2         12.2770  -15.5800  416.6570 ca        1 DRV      0.724900
     27 N6         13.7790  -13.9700  419.4960 nv        1 DRV     -0.907500
     28 H8          8.6160  -13.0970  420.0360 h5        1 DRV      0.126800
     29 HN        -29.7200   40.7010-1199.8500 hn        1 DRV      0.476133
     30 HNA       -30.9880   41.6920-1199.4160 hn        1 DRV      0.476133
     31 HA        -31.8210   40.2800-1197.8040 hx        1 DRV      0.131200
     32 HAA       -31.0560   38.8290-1198.6380 hx        1 DRV      0.131200
     33 HNAO      -28.9240   39.5340-1195.6100 hn        1 DRV      0.349000
     34 H5'         4.8330  -13.2360  415.8670 h1        1 DRV      0.099700
     35 H5'A        5.0120  -11.5230  415.1920 h1        1 DRV      0.099700
     36 H4'         6.9700  -11.1040  416.4750 h1        1 DRV      0.095700
     37 H3'         5.3160  -12.5240  418.0680 h1        1 DRV      0.094700
     38 HO3'        6.9560  -11.0680  418.7890 ho        1 DRV      0.447000
     39 H2'         6.5940  -14.3960  419.2210 h1        1 DRV      0.106700
     40 HO2'        5.6080  -15.7640  417.7730 ho        1 DRV      0.444000
     41 H1'         8.1250  -15.2080  416.7000 h4        1 DRV      0.120800
     42 H2         12.6200  -16.1620  415.7670 h5        1 DRV      0.094100
     43 HN6        13.4920  -13.4480  420.2900 hn        1 DRV      0.473300
     44 HN6A       14.7480  -14.1500  419.3540 hn        1 DRV      0.473300
     45 HN3       -31.2900   40.3350-1200.3480 hn        1 DRV      0.476133
     46 HAO2      -30.5540   39.0730-1195.8520 hn        1 DRV      0.349000
@<TRIPOS>BOND
     1    1    2 ar  
     2    1    6 ar  
     3    1   24 1   
     4    2    3 ar  
     5    2   25 1   
     6    3    5 ar  
     7    3   27 1   
     8    4   24 1   
     9    4   25 2   
    10    4   28 1   
    11    5   26 ar  
    12    6   26 ar  
    13    7    8 1   
    14    7   29 1   
    15    7   30 1   
    16    7   45 1   
    17    8    9 1   
    18    8   31 1   
    19    8   32 1   
    20    9   10 2   
    21    9   11 1   
    22   11   33 1   
    23   11   46 1   
    24   12   13 2   
    25   12   14 2   
    26   12   15 1   
    27   12   18 1   
    28   15   16 1   
    29   16   17 1   
    30   16   34 1   
    31   16   35 1   
    32   17   18 1   
    33   17   19 1   
    34   17   36 1   
    35   19   20 1   
    36   19   21 1   
    37   19   37 1   
    38   20   38 1   
    39   21   22 1   
    40   21   23 1   
    41   21   39 1   
    42   22   40 1   
    43   23   24 2   
    44   23   41 1   
    45   26   42 1   
    46   27   43 1   
    47   27   44 1   
@<TRIPOS>SUBSTRUCTURE
     1 DRV         1 TEMP              0 ****  ****    0 ROOT
