@<TRIPOS>MOLECULE
DRV
   44    46     1     0     0
SMALL
bcc


@<TRIPOS>ATOM
      1 C4          3.5080   -0.1250    0.2520 ca        1 DRV      0.447800
      2 C5          3.6480   -1.5700    0.1330 ca        1 DRV     -0.224200
      3 C6          4.9830   -2.0910    0.0500 ca        1 DRV      0.764200
      4 C8          1.5050   -1.1690    0.2380 cc        1 DRV      0.437700
      5 N1          6.0420   -1.2110    0.0890 nb        1 DRV     -0.798000
      6 N3          4.5640    0.7450    0.2880 nb        1 DRV     -0.766000
      7 N          -6.6060   -2.6270   -1.9630 n3        1 DRV     -0.889800
      8 CA         -6.2620   -1.7640   -0.8750 c3        1 DRV      0.099800
      9 C          -4.7940   -1.3150   -0.8210 c         1 DRV      0.635100
     10 O          -3.9590   -1.6600   -1.6690 o         1 DRV     -0.550100
     11 NAO        -4.4120   -0.4840    0.2410 n         1 DRV     -0.683300
     12 SBA        -2.9300    0.1180    0.5740 s6        1 DRV      1.709100
     13 OAD        -3.0290    0.8920    1.7240 o         1 DRV     -0.644800
     14 OAE        -1.9110   -0.8020    0.4290 o         1 DRV     -0.644800
     15 O5'        -2.7260    1.2470   -0.6630 os        1 DRV     -0.568500
     16 C5'        -1.8140    2.3120   -0.5570 c3        1 DRV      0.191400
     17 C4'        -0.3930    1.8180   -0.8180 c3        1 DRV      0.088100
     18 O4'         0.0820    1.2570    0.4200 os        1 DRV     -0.418600
     19 C3'         0.5990    2.9370   -1.1800 c3        1 DRV      0.122100
     20 O3'         0.6910    3.0000   -2.5870 oh        1 DRV     -0.583800
     21 C2'         1.9310    2.4750   -0.5390 c3        1 DRV      0.080100
     22 O2'         2.5130    3.5810    0.1100 oh        1 DRV     -0.594800
     23 C1'         1.5040    1.3920    0.5090 c3        1 DRV      0.238800
     24 N9          2.1270    0.1050    0.3140 na        1 DRV     -0.298000
     25 N7          2.3820   -2.1760    0.1280 nd        1 DRV     -0.555100
     26 C2          5.7570    0.1120    0.2030 ca        1 DRV      0.687900
     27 N6          5.1910   -3.4390   -0.0670 nh        1 DRV     -0.961500
     28 H8          0.4030   -1.2570    0.2710 h5        1 DRV      0.117800
     29 HN         -6.4430   -2.1840   -2.8470 hn        1 DRV      0.368800
     30 HNA        -6.0880   -3.4830   -1.9290 hn        1 DRV      0.368800
     31 HA         -6.9020   -0.8380   -0.9370 h1        1 DRV      0.080700
     32 HAA        -6.4960   -2.2960    0.0920 h1        1 DRV      0.080700
     33 HNAO       -5.1740   -0.2000    0.8200 hn        1 DRV      0.343500
     34 H5'        -2.1120    3.0340   -1.3660 h1        1 DRV      0.078200
     35 H5'A       -1.8950    2.7920    0.4560 h1        1 DRV      0.078200
     36 H4'        -0.3930    1.0150   -1.6060 h1        1 DRV      0.101700
     37 H3'         0.2840    3.9290   -0.7570 h1        1 DRV      0.073700
     38 HO3'        1.3170    3.7070   -2.7910 ho        1 DRV      0.417000
     39 H2'         2.6220    2.0620   -1.3230 h1        1 DRV      0.085700
     40 HO2'        3.3940    3.3040    0.4010 ho        1 DRV      0.433000
     41 H1'         1.7130    1.7480    1.5630 h2        1 DRV      0.103700
     42 H2          6.6500    0.7740    0.2310 h5        1 DRV      0.048100
     43 HN6         4.4080   -4.0430   -0.0890 hn        1 DRV      0.450300
     44 HN6A        6.1060   -3.8090   -0.1210 hn        1 DRV      0.450300
@<TRIPOS>BOND
     1    1    2 ar  
     2    1    6 ar  
     3    1   24 1   
     4    2    3 ar  
     5    2   25 1   
     6    3    5 ar  
     7    3   27 1   
     8    4   24 1   
     9    4   25 2   
    10    4   28 1   
    11    5   26 ar  
    12    6   26 ar  
    13    7    8 1   
    14    7   29 1   
    15    7   30 1   
    16    8    9 1   
    17    8   31 1   
    18    8   32 1   
    19    9   10 2   
    20    9   11 1   
    21   11   12 1   
    22   11   33 1   
    23   12   13 2   
    24   12   14 2   
    25   12   15 1   
    26   15   16 1   
    27   16   17 1   
    28   16   34 1   
    29   16   35 1   
    30   17   18 1   
    31   17   19 1   
    32   17   36 1   
    33   18   23 1   
    34   19   20 1   
    35   19   21 1   
    36   19   37 1   
    37   20   38 1   
    38   21   22 1   
    39   21   23 1   
    40   21   39 1   
    41   22   40 1   
    42   23   24 1   
    43   23   41 1   
    44   26   42 1   
    45   27   43 1   
    46   27   44 1   
@<TRIPOS>SUBSTRUCTURE
     1 DRV         1 TEMP              0 ****  ****    0 ROOT
