@<TRIPOS>MOLECULE
DRV
   46    47     1     0     0
SMALL
bcc


@<TRIPOS>ATOM
      1 C4          5.4460   14.4670  444.8530 ca        1 DRV      0.481800
      2 C5          6.7990   14.0820  444.4990 ca        1 DRV     -0.265200
      3 C6          7.7860   15.1190  444.4390 ca        1 DRV      0.794200
      4 C8          5.6870   12.1930  444.4810 cc        1 DRV      0.408700
      5 N1          7.3730   16.4220  444.7430 nb        1 DRV     -0.724000
      6 N3          5.0540   15.7110  445.1520 nb        1 DRV     -0.727000
      7 N         -17.8420  -38.4040-1274.3690 n4        1 DRV     -0.829600
      8 CA        -16.6660  -38.1020-1273.5080 c3        1 DRV      0.004800
      9 C         -15.6540  -37.2110-1274.2680 c         1 DRV      0.648100
     10 O         -15.8230  -37.0350-1275.4930 o         1 DRV     -0.596100
     11 NAO       -14.6300  -36.6790-1273.5620 n         1 DRV     -0.617000
     12 SBA         2.2700   11.0300  442.4470 s6        1 DRV      1.825000
     13 OAD         3.0100   10.4840  443.4580 o         1 DRV     -0.630800
     14 OAE         2.3240   10.7270  441.1350 o         1 DRV     -0.630800
     15 O5'         0.7060   11.2570  442.9330 os        1 DRV     -0.544500
     16 C5'         0.2770   12.5850  443.1590 c3        1 DRV      0.135400
     17 C4'         1.4860   13.5090  442.8730 c3        1 DRV      0.137100
     18 O4'         2.6040   12.6640  442.7300 os        1 DRV     -0.586500
     19 C3'         1.7320   14.5480  443.9780 c3        1 DRV      0.155100
     20 O3'         2.6230   15.4920  443.4280 oh        1 DRV     -0.567800
     21 C2'         2.3180   14.0060  445.3170 c3        1 DRV      0.015800
     22 O2'         1.2650   13.3240  445.9690 oh        1 DRV     -0.579800
     23 C1'         3.4170   13.0010  445.0690 c2        1 DRV      0.445200
     24 N9          4.6820   13.2310  444.8470 na        1 DRV     -0.219000
     25 N7          6.8840   12.6860  444.2790 nd        1 DRV     -0.419100
     26 C2          6.0950   16.6230  445.0680 ca        1 DRV      0.723900
     27 N6          9.0720   14.8580  444.1080 nh        1 DRV     -0.905500
     28 H8          5.3430   11.1460  444.3880 h5        1 DRV      0.133800
     29 HN        -18.5350  -37.6510-1274.3010 hn        1 DRV      0.476133
     30 HNA       -17.5290  -38.4570-1275.3580 hn        1 DRV      0.476133
     31 HA        -17.0250  -37.5930-1272.5680 hx        1 DRV      0.131200
     32 HAA       -16.1580  -39.0720-1273.2360 hx        1 DRV      0.131200
     33 HNAO      -14.5130  -36.8460-1272.5930 hn        1 DRV      0.349000
     34 H5'        -0.0660   12.6470  444.2270 h1        1 DRV      0.103700
     35 H5'A       -0.5720   12.7900  442.4560 h1        1 DRV      0.103700
     36 H4'         1.3530   14.0710  441.9020 h1        1 DRV      0.118700
     37 H3'         0.7380   15.0170  444.2390 h1        1 DRV      0.091700
     38 HO3'        2.5420   16.3090  443.9400 ho        1 DRV      0.430000
     39 H2'         2.6880   14.8820  445.9240 h1        1 DRV      0.116700
     40 HO2'        1.3600   13.4600  446.9230 ho        1 DRV      0.441000
     41 H1'         3.0910   11.9230  445.0850 h4        1 DRV      0.100800
     42 H2          5.8100   17.6750  445.3070 h5        1 DRV      0.087100
     43 HN6         9.7490   15.5870  444.0700 hn        1 DRV      0.474300
     44 HN6A        9.3450   13.9280  443.8910 hn        1 DRV      0.474300
     45 HN3       -18.2710  -39.2910-1274.0930 hn        1 DRV      0.476133
     46 HAO2      -13.9540  -36.1210-1274.0380 hn        1 DRV      0.349000
@<TRIPOS>BOND
     1    1    2 ar  
     2    1    6 ar  
     3    1   24 1   
     4    2    3 ar  
     5    2   25 1   
     6    3    5 ar  
     7    3   27 1   
     8    4   24 1   
     9    4   25 2   
    10    4   28 1   
    11    5   26 ar  
    12    6   26 ar  
    13    7    8 1   
    14    7   29 1   
    15    7   30 1   
    16    7   45 1   
    17    8    9 1   
    18    8   31 1   
    19    8   32 1   
    20    9   10 2   
    21    9   11 1   
    22   11   33 1   
    23   11   46 1   
    24   12   13 2   
    25   12   14 2   
    26   12   15 1   
    27   12   18 1   
    28   15   16 1   
    29   16   17 1   
    30   16   34 1   
    31   16   35 1   
    32   17   18 1   
    33   17   19 1   
    34   17   36 1   
    35   19   20 1   
    36   19   21 1   
    37   19   37 1   
    38   20   38 1   
    39   21   22 1   
    40   21   23 1   
    41   21   39 1   
    42   22   40 1   
    43   23   24 2   
    44   23   41 1   
    45   26   42 1   
    46   27   43 1   
    47   27   44 1   
@<TRIPOS>SUBSTRUCTURE
     1 DRV         1 TEMP              0 ****  ****    0 ROOT
