@<TRIPOS>MOLECULE
DRV
   44    39     1     0     0
SMALL
bcc


@<TRIPOS>ATOM
      1 C4          2.1380    0.5110    3.9210 c1        1 DRV      0.077000
      2 C5          3.4870    0.6010    3.9140 c1        1 DRV     -0.241000
      3 C6          4.2020    0.4320    5.1000 c1        1 DRV      0.237000
      4 C8          2.7680    1.0140    1.8760 c1        1 DRV     -0.041000
      5 N1          3.5440    0.1790    6.2560 n1        1 DRV     -0.268000
      6 N3          1.4740    0.2540    5.0930 n1        1 DRV     -0.213000
      7 N          -3.8010   -2.7530   -7.2930 n3        1 DRV     -0.368000
      8 CA         -2.8270   -1.7710   -6.9690 c3        1 DRV     -0.089000
      9 C          -2.1180   -2.1620   -5.6540 c2        1 DRV      0.332000
     10 O          -1.7250   -3.2920   -5.4960 o         1 DRV     -0.329000
     11 NAO        -1.7910   -1.1470   -4.6870 n         1 DRV     -0.862000
     12 SBA        -1.4500   -1.5670   -3.1470 s4        1 DRV      2.038800
     13 OAD        -2.6540   -2.1920   -2.4680 o         1 DRV     -0.538400
     14 OAE        -0.4510   -2.7160   -3.0940 o         1 DRV     -0.538400
     15 O5'        -0.9340   -0.3340   -2.3560 o         1 DRV     -0.725000
     16 C5'        -1.4550   -0.1710   -1.0330 c3        1 DRV      0.030000
     17 C4'        -0.4950    0.7660   -0.1990 c3        1 DRV     -0.053000
     18 O4'         0.4460   -0.0870    0.6970 os        1 DRV     -0.257000
     19 C3'        -1.1630    1.4770    0.6060 c3        1 DRV      0.012000
     20 O3'        -1.4410    2.7830    0.0090 oh        1 DRV     -0.341000
     21 C2'        -0.2230    1.6580    1.9460 c3        1 DRV      0.000000
     22 O2'        -1.0670    1.9750    3.1180 oh        1 DRV     -0.310000
     23 C1'         0.3600    0.5540    2.1190 c3        1 DRV      0.130000
     24 N9          1.6920    0.7670    2.6590 n2        1 DRV     -0.210000
     25 N7          3.8800    0.9130    2.6470 n1        1 DRV     -0.116000
     26 C2          2.1780    0.0890    6.2610 c1        1 DRV      0.023000
     27 N6          5.5740    0.5470    5.4910 n3        1 DRV     -0.353000
     28 H8          2.7530    1.1540    0.8980 DU        1 DRV      0.225000
     29 HN         -3.8360   -2.8600   -8.2030 hn        1 DRV      0.168500
     30 HNA        -4.6090   -2.4880   -6.9900 hn        1 DRV      0.168500
     31 HA         -2.1740   -1.7170   -7.6850 h1        1 DRV      0.112500
     32 HAA        -3.2580   -0.9120   -6.8600 h1        1 DRV      0.112500
     33 HNAO       -1.6950   -0.3030   -4.9470 hn        1 DRV      0.282000
     34 H5'        -1.5170   -1.0550   -0.5930 h1        1 DRV      0.120500
     35 H5'A       -2.3650    0.2400   -1.0810 h1        1 DRV      0.120500
     36 H4'         0.0490    1.3550   -0.8200 h1        1 DRV      0.113000
     37 H3'        -1.9960    1.0290    0.8400 h1        1 DRV      0.130000
     38 HO3'       -2.3380    2.9400    0.0220 ho        1 DRV      0.245000
     39 H2'         0.4430    2.3750    1.7990 h1        1 DRV      0.128000
     40 HO2'       -1.1290    2.8640    3.2110 ho        1 DRV      0.214000
     41 H1'        -0.1750   -0.0300    2.7320 h2        1 DRV      0.165000
     42 H2          1.6890   -0.0990    7.1180 ha        1 DRV      0.188000
     43 HN6         6.0140    1.3410    5.3870 hn        1 DRV      0.241000
     44 HN6A        6.0000   -0.1620    5.8570 hn        1 DRV      0.241000
@<TRIPOS>BOND
     1    1    6 1   
     2    2    3 1   
     3    3   27 1   
     4    4   24 1   
     5    4   25 1   
     6    5   26 1   
     7    7    8 1   
     8    7   29 1   
     9    7   30 1   
    10    8    9 1   
    11    8   31 1   
    12    8   32 1   
    13    9   10 1   
    14    9   11 1   
    15   11   12 1   
    16   11   33 1   
    17   12   13 1   
    18   12   14 1   
    19   15   16 1   
    20   16   17 1   
    21   16   34 1   
    22   16   35 1   
    23   17   18 1   
    24   17   19 1   
    25   17   36 1   
    26   18   23 1   
    27   19   20 1   
    28   19   21 1   
    29   19   37 1   
    30   20   38 1   
    31   21   22 1   
    32   21   23 1   
    33   21   39 1   
    34   22   40 1   
    35   23   24 1   
    36   23   41 1   
    37   26   42 1   
    38   27   43 1   
    39   27   44 1   
@<TRIPOS>SUBSTRUCTURE
     1 DRV         1 TEMP              0 ****  ****    0 ROOT
