@<TRIPOS>MOLECULE
DRV
   44    46     1     0     0
SMALL
bcc


@<TRIPOS>ATOM
      1 C4         -0.1030   -0.1230   -0.5130 ca        1 DRV      0.447800
      2 C5          1.2610   -0.4930   -0.8660 ca        1 DRV     -0.224200
      3 C6          2.2270   -0.5110    0.1950 ca        1 DRV      0.764200
      4 C8          0.1040   -0.5850   -2.7150 cc        1 DRV      0.437700
      5 N1          1.8190   -0.1860    1.4700 nb        1 DRV     -0.798000
      6 N3         -0.5040    0.2020    0.7540 nb        1 DRV     -0.766000
      7 N          -0.8730    0.4970  -11.1190 n3        1 DRV     -0.889800
      8 CA         -1.8350   -0.2110  -10.3320 c3        1 DRV      0.099800
      9 C          -1.7200   -0.0210   -8.8120 c         1 DRV      0.635100
     10 O          -0.8630    0.7090   -8.2940 o         1 DRV     -0.550100
     11 NAO        -2.6320   -0.7130   -8.0040 n         1 DRV     -0.683300
     12 SBA        -2.7310   -0.7310   -6.3730 s6        1 DRV      1.709100
     13 OAD        -3.7920   -1.5550   -6.0160 o         1 DRV     -0.644800
     14 OAE        -1.5070   -0.8460   -5.7450 o         1 DRV     -0.644800
     15 O5'        -3.2890    0.8240   -6.0390 os        1 DRV     -0.568500
     16 C5'        -3.9340    1.1410   -4.8300 c3        1 DRV      0.191400
     17 C4'        -2.9090    1.3040   -3.7110 c3        1 DRV      0.088100
     18 O4'        -2.6090   -0.0190   -3.2320 os        1 DRV     -0.418600
     19 C3'        -3.4340    2.0840   -2.4930 c3        1 DRV      0.122100
     20 O3'        -3.0400    3.4320   -2.6350 oh        1 DRV     -0.583800
     21 C2'        -2.7360    1.4060   -1.2890 c3        1 DRV      0.080100
     22 O2'        -3.6970    1.2070   -0.2790 oh        1 DRV     -0.594800
     23 C1'        -2.2420    0.0290   -1.8490 c3        1 DRV      0.238800
     24 N9         -0.8220   -0.1860   -1.7150 na        1 DRV     -0.298000
     25 N7          1.3440   -0.7700   -2.2400 nd        1 DRV     -0.555100
     26 C2          0.5110    0.1390    1.6480 ca        1 DRV      0.687900
     27 N6          3.5290   -0.8460   -0.0630 nh        1 DRV     -0.961500
     28 H8         -0.2240   -0.7130   -3.7630 h5        1 DRV      0.117800
     29 HN         -0.9450    1.4870  -10.9810 hn        1 DRV      0.368800
     30 HNA         0.0610    0.2060  -10.9050 hn        1 DRV      0.368800
     31 HA         -2.8670    0.1230  -10.6430 h1        1 DRV      0.080700
     32 HAA        -1.7360   -1.3130  -10.5510 h1        1 DRV      0.080700
     33 HNAO       -3.3300   -1.2060   -8.5210 hn        1 DRV      0.343500
     34 H5'        -4.6880    0.3480   -4.5750 h1        1 DRV      0.078200
     35 H5'A       -4.4400    2.1280   -5.0190 h1        1 DRV      0.078200
     36 H4'        -1.9650    1.7720   -4.1060 h1        1 DRV      0.101700
     37 H3'        -4.5500    2.0040   -2.3950 h1        1 DRV      0.073700
     38 HO3'       -3.3790    3.9010   -1.8610 ho        1 DRV      0.417000
     39 H2'        -1.8900    2.0430   -0.9150 h1        1 DRV      0.085700
     40 HO2'       -3.2210    0.8930    0.5030 ho        1 DRV      0.433000
     41 H1'        -2.7940   -0.8280   -1.3560 h2        1 DRV      0.103700
     42 H2          0.2390    0.3920    2.6960 h5        1 DRV      0.048100
     43 HN6         3.7880   -1.0780   -0.9890 hn        1 DRV      0.450300
     44 HN6A        4.2020   -0.8650    0.6600 hn        1 DRV      0.450300
@<TRIPOS>BOND
     1    1    2 ar  
     2    1    6 ar  
     3    1   24 1   
     4    2    3 ar  
     5    2   25 1   
     6    3    5 ar  
     7    3   27 1   
     8    4   24 1   
     9    4   25 2   
    10    4   28 1   
    11    5   26 ar  
    12    6   26 ar  
    13    7    8 1   
    14    7   29 1   
    15    7   30 1   
    16    8    9 1   
    17    8   31 1   
    18    8   32 1   
    19    9   10 2   
    20    9   11 1   
    21   11   12 1   
    22   11   33 1   
    23   12   13 2   
    24   12   14 2   
    25   12   15 1   
    26   15   16 1   
    27   16   17 1   
    28   16   34 1   
    29   16   35 1   
    30   17   18 1   
    31   17   19 1   
    32   17   36 1   
    33   18   23 1   
    34   19   20 1   
    35   19   21 1   
    36   19   37 1   
    37   20   38 1   
    38   21   22 1   
    39   21   23 1   
    40   21   39 1   
    41   22   40 1   
    42   23   24 1   
    43   23   41 1   
    44   26   42 1   
    45   27   43 1   
    46   27   44 1   
@<TRIPOS>SUBSTRUCTURE
     1 DRV         1 TEMP              0 ****  ****    0 ROOT
