@<TRIPOS>MOLECULE
DRW
   52    53     1     0     0
SMALL
bcc


@<TRIPOS>ATOM
      1 CAA        -5.9470   -0.7930    2.5580 c3        1 DRW     -0.126100
      2 CAB        -2.9600   -2.2950   -1.4110 c3        1 DRW     -0.092100
      3 NAC         5.5660   -1.3230   -1.5750 n3        1 DRW     -1.026700
      4 OAD        -6.0560   -1.9590   -1.9470 o         1 DRW     -0.569100
      5 OAE        -1.5200    3.0810    0.1010 o         1 DRW     -0.799300
      6 OAF         6.2260   -2.4620    0.4800 o         1 DRW     -0.664800
      7 OAG         7.6740   -0.7430   -0.3970 o         1 DRW     -0.664800
      8 OAH        -2.0410    2.4650   -1.9950 o         1 DRW     -0.799300
      9 OAI        -6.6920    0.5550    0.6960 oh        1 DRW     -0.615800
     10 CAJ        -5.5690   -1.0690   -1.2440 c         1 DRW      0.592900
     11 CAK         1.5840    0.8580   -1.1570 c3        1 DRW      0.139800
     12 CAM         1.9050    0.8180    1.2610 c3        1 DRW     -0.083400
     13 NAN        -3.6290    0.6730    0.3050 n2        1 DRW     -0.611900
     14 NAO         2.9840    0.4930   -0.9170 n3        1 DRW     -0.784200
     15 SAQ        -0.2010   -0.5570    0.4290 ss        1 DRW     -0.347200
     16 CAS        -2.4890    0.9160   -0.2620 ce        1 DRW      0.388300
     17 CAT        -6.2910   -0.7450    1.0810 c3        1 DRW      0.166100
     18 CAU        -2.5920   -1.4910   -0.1930 c3        1 DRW     -0.079700
     19 CAV         3.2490    0.8100    0.4950 c3        1 DRW      0.116500
     20 CAW         0.8280    0.8700    0.1850 c3        1 DRW     -0.028600
     21 CAX        -5.1710   -1.3160    0.1910 c3        1 DRW     -0.197700
     22 CAY        -3.7830   -0.7710    0.5300 c3        1 DRW      0.100500
     23 CAZ        -1.6550   -0.3220   -0.5670 c3        1 DRW     -0.072900
     24 SBA         6.3470   -1.2050   -0.1740 s6        1 DRW      1.587800
     25 HAA        -6.8660   -0.5960    3.1600 hc        1 DRW      0.042367
     26 HAAA       -5.5430   -1.7960    2.8310 hc        1 DRW      0.042367
     27 HAAB       -5.1910   -0.0110    2.8120 hc        1 DRW      0.042367
     28 HAB        -3.3970   -1.6420   -2.2060 hc        1 DRW      0.039367
     29 HABA       -2.0470   -2.7870   -1.8300 hc        1 DRW      0.039367
     30 HABB       -3.7040   -3.0890   -1.1590 hc        1 DRW      0.039367
     31 HNAC        5.0150   -2.1080   -1.8170 hn        1 DRW      0.448800
     32 HNAA        5.5110   -0.6010   -2.2490 hn        1 DRW      0.448800
     33 HOAI       -5.9340    1.1470    0.7920 ho        1 DRW      0.437000
     34 HAJ        -5.4270   -0.0310   -1.6140 h4        1 DRW      0.037200
     35 HAK         1.5730    1.8920   -1.6000 h1        1 DRW      0.069700
     36 HAKA        1.1020    0.1590   -1.8890 h1        1 DRW      0.069700
     37 HAL         3.9050   -1.1950    1.1220 h1        1 DRW      0.055700
     38 HALA        4.2700    0.1570    2.2840 h1        1 DRW      0.055700
     39 HAM         1.8000   -0.0990    1.8970 hc        1 DRW      0.059200
     40 HAMA        1.8430    1.7100    1.9310 hc        1 DRW      0.059200
     41 HNAO        3.0850   -0.4980   -1.0560 hn        1 DRW      0.327800
     42 HNAP        5.9990    0.8530    0.7730 hn        1 DRW      0.447800
     43 HAT        -7.2180   -1.3670    0.8930 h1        1 DRW      0.057700
     44 HAU        -2.0910   -2.1700    0.5500 hc        1 DRW      0.059700
     45 HAV         3.6660    1.8610    0.5000 h1        1 DRW      0.065700
     46 HAW         0.2010    1.8010    0.2640 h1        1 DRW      0.157700
     47 HAX        -5.1380   -2.4270    0.3810 hc        1 DRW      0.063700
     48 HAY        -3.6340   -0.9460    1.6390 h1        1 DRW      0.057700
     49 HAZ        -1.3750   -0.3140   -1.6480 h1        1 DRW      0.096700
     50 CAR        -1.9860    2.2830   -0.7520 c         1 DRW      0.840300
     51 CAL         4.2580   -0.1260    1.1910 c3        1 DRW      0.223800
     52 NAP         5.5900   -0.0470    0.6720 n3        1 DRW     -0.914100
@<TRIPOS>BOND
     1    1   17 1   
     2    1   25 1   
     3    1   26 1   
     4    1   27 1   
     5    2   18 1   
     6    2   28 1   
     7    2   29 1   
     8    2   30 1   
     9    3   24 1   
    10    3   31 1   
    11    3   32 1   
    12    4   10 2   
    13    5   50 1   
    14    6   24 2   
    15    7   24 2   
    16    8   50 1   
    17    9   17 1   
    18    9   33 1   
    19   10   21 1   
    20   10   34 1   
    21   11   14 1   
    22   11   20 1   
    23   11   35 1   
    24   11   36 1   
    25   12   19 1   
    26   12   20 1   
    27   12   39 1   
    28   12   40 1   
    29   13   16 2   
    30   13   22 1   
    31   14   19 1   
    32   14   41 1   
    33   15   20 1   
    34   15   23 1   
    35   16   23 1   
    36   16   50 1   
    37   17   21 1   
    38   17   43 1   
    39   18   22 1   
    40   18   23 1   
    41   18   44 1   
    42   19   45 1   
    43   19   51 1   
    44   20   46 1   
    45   21   22 1   
    46   21   47 1   
    47   22   48 1   
    48   23   49 1   
    49   24   52 1   
    50   37   51 1   
    51   38   51 1   
    52   42   52 1   
    53   51   52 1   
@<TRIPOS>SUBSTRUCTURE
     1 DRW         1 TEMP              0 ****  ****    0 ROOT
