@<TRIPOS>MOLECULE
DRW
   54    53     1     0     0
SMALL
bcc


@<TRIPOS>ATOM
      1 CAA         0.7020    2.6190    2.1050 cy        1 DRW      0.057100
      2 CAB         1.0370   -0.6610    6.4270 c3        1 DRW     -0.094100
      3 NAC         0.4950    5.0550    7.8720 nz        1 DRW     -0.813500
      4 OAD         4.1750    2.1240    2.8810 o         1 DRW     -0.535100
      5 OAE         1.0860    4.3140    5.1180 o         1 DRW     -0.637500
      6 OAF         2.1510    5.7030    9.6620 o         1 DRW     -0.563800
      7 OAG        -0.0970    6.5330    9.8210 o         1 DRW     -0.563800
      8 OAH         0.7510    3.6500    3.0890 os        1 DRW     -0.383900
      9 OAI         2.6970    3.8490    1.2070 oh        1 DRW     -0.560800
     10 CAJ         3.7860    1.3190    2.0320 c         1 DRW      0.595900
     11 CAK         1.5880    7.7530    2.5410 c2        1 DRW      0.078000
     12 CAM         0.2520    7.9480    4.6720 c3        1 DRW      0.001800
     13 NAN         1.5800    0.9620    3.8750 n2        1 DRW     -0.484900
     14 NAO         1.9420    6.4200    2.6130 nv        1 DRW     -0.843600
     15 SAQ         0.6520    1.9980    7.4280 ss        1 DRW     -0.540200
     16 CAS         1.5160    1.9320    4.7240 ce        1 DRW      0.412300
     17 CAT         1.8540    2.7550    1.0550 cy        1 DRW      0.154100
     18 CAU         1.7000    0.5530    6.9580 cx        1 DRW      0.164400
     19 CAV         0.9130    8.5330    5.9190 c3        1 DRW     -0.142300
     20 CAW         0.8910    8.4720    3.4490 c2        1 DRW     -0.327200
     21 CAX         2.3980    1.3490    1.4740 cy        1 DRW     -0.236700
     22 CAY         1.2260    1.2030    2.5090 cy        1 DRW      0.072500
     23 CAZ         1.9050    1.7870    6.1470 cx        1 DRW     -0.000900
     24 SBA         1.0500    6.3110    9.0820 s6        1 DRW      1.538800
     25 HAA        -0.3310    2.6480    1.6840 h1        1 DRW      0.114700
     26 HAAA        0.6690   -0.9200    0.4340 ha        1 DRW      0.002500
     27 HAAB        0.4480   -1.4900    0.1420 ha        1 DRW      0.002500
     28 HAB         0.7430   -1.3360    7.2710 hc        1 DRW      0.074033
     29 HABA        1.7510   -1.2160    5.7630 hc        1 DRW      0.074033
     30 HABB        0.1200   -0.4180    5.8370 hc        1 DRW      0.074033
     31 HNAC        0.4810    5.4160    6.8980 hn        1 DRW      0.489133
     32 HNAA        1.0920    4.2100    7.8730 hn        1 DRW      0.489133
     33 HOAI        3.0660    3.8380    2.1050 ho        1 DRW      0.430000
     34 HAJ         4.4500    0.5250    1.6250 h4        1 DRW      0.036200
     35 HAK         1.4170    5.8510    3.2420 hn        1 DRW      0.401300
     36 HAKA        2.0040    8.2750    1.6520 h4        1 DRW      0.142000
     37 HAL         1.9800    8.8210    5.6910 hc        1 DRW      0.099700
     38 HALA        0.3860    9.4860    6.2170 hc        1 DRW      0.099700
     39 HAM         0.2960    6.8260    4.7220 hc        1 DRW      0.048200
     40 HAMA       -0.8370    8.2290    4.6740 hc        1 DRW      0.048200
     41 HNAO        2.1140    5.9790    1.7340 hn        1 DRW      0.401300
     42 HNAP        2.5890    5.9710    6.0600 ha        1 DRW      0.002500
     43 HAT         1.4880    2.7950   -0.0020 h1        1 DRW      0.117700
     44 HAU         2.5070    0.3250    7.6890 h1        1 DRW      0.121700
     45 HAV         2.4460    6.2320    5.4490 ha        1 DRW      0.002500
     46 HAW         0.7660    9.5520    3.2800 ha        1 DRW      0.136000
     47 HAX         2.2940    0.5990    0.6520 hc        1 DRW      0.108700
     48 HAY         0.5160    0.3840    2.2040 h1        1 DRW      0.128700
     49 HAZ         2.8650    2.3270    6.3220 h1        1 DRW      0.134700
     50 CAR         1.1180    3.3340    4.3640 c         1 DRW      0.629300
     51 CAL         0.8360    7.5810    7.0210 c1        1 DRW     -0.112100
     52 NAP         1.5040    7.5980    8.1710 n7        1 DRW     -0.581900
     53 HAC3       -0.4560    4.7450    8.0810 hn        1 DRW      0.489133
     54 HAP2        2.1860    8.2780    8.4470 hn        1 DRW      0.451800
@<TRIPOS>BOND
     1    1    8 1   
     2    1   17 1   
     3    1   22 1   
     4    1   25 1   
     5    2   18 1   
     6    2   28 1   
     7    2   29 1   
     8    2   30 1   
     9    3   24 1   
    10    3   31 1   
    11    3   32 1   
    12    3   53 1   
    13    4   10 2   
    14    5   50 2   
    15    6   24 2   
    16    7   24 2   
    17    8   50 1   
    18    9   17 1   
    19    9   33 1   
    20   10   21 1   
    21   10   34 1   
    22   11   14 1   
    23   11   20 2   
    24   11   36 1   
    25   12   19 1   
    26   12   20 1   
    27   12   39 1   
    28   12   40 1   
    29   13   16 2   
    30   13   22 1   
    31   14   35 1   
    32   14   41 1   
    33   15   18 1   
    34   15   23 1   
    35   16   23 1   
    36   16   50 1   
    37   17   21 1   
    38   17   43 1   
    39   18   23 1   
    40   18   44 1   
    41   19   37 1   
    42   19   38 1   
    43   19   51 1   
    44   20   46 1   
    45   21   22 1   
    46   21   47 1   
    47   22   48 1   
    48   23   49 1   
    49   24   52 1   
    50   26   27 1   
    51   42   45 1   
    52   51   52 3   
    53   52   54 1   
@<TRIPOS>SUBSTRUCTURE
     1 DRW         1 TEMP              0 ****  ****    0 ROOT
