@<TRIPOS>MOLECULE
DRW
   52    51     1     0     0
SMALL
bcc


@<TRIPOS>ATOM
      1 CAA        -5.3510   -0.8960   -3.8930 c3        1 DRW     -0.220000
      2 CAB        -3.2150    0.3580    0.3890 c3        1 DRW     -0.208000
      3 NAC         7.0650    3.0450    0.7570 n3        1 DRW     -0.956000
      4 OAD        -3.2670   -3.1410   -2.4560 o         1 DRW     -0.327000
      5 OAE        -0.3570   -3.8040    0.7770 o         1 DRW     -0.539500
      6 OAF         6.3230    0.6460    0.1860 o         1 DRW     -0.945500
      7 OAG         5.5720    2.2350   -1.1770 o         1 DRW     -0.945500
      8 OAH         0.9290   -3.1130   -0.8470 o         1 DRW     -0.539500
      9 OAI        -3.6190    0.7380   -3.8890 oh        1 DRW     -0.340000
     10 CAJ        -3.8430   -2.2930   -1.7980 c1        1 DRW      0.199000
     11 CAK         0.8160    0.6760    3.2770 c3        1 DRW     -0.079000
     12 CAL         3.4620    1.1440    1.1220 c3        1 DRW     -0.005000
     13 CAM         2.6630   -0.5730    2.5130 c3        1 DRW     -0.178000
     14 NAN        -1.3830   -1.4160   -1.6800 n1        1 DRW     -0.190000
     15 NAO         2.1040    1.5460    3.2260 n3        1 DRW     -0.283000
     16 NAP         4.4840    2.1690    1.1570 n3        1 DRW     -0.889000
     17 SAQ         0.5030   -0.0360    0.7930 ss        1 DRW      0.049000
     18 CAR        -0.0740   -2.9450   -0.1040 c2        1 DRW      0.376000
     19 CAS        -1.0180   -1.7720   -0.3520 c2        1 DRW     -0.050000
     20 CAT        -3.8990   -0.6000   -3.5800 c3        1 DRW      0.051000
     21 CAU        -2.0080    0.2380   -0.2280 c3        1 DRW     -0.118000
     22 CAV         3.1880    0.6500    2.5410 c3        1 DRW     -0.067000
     23 CAW         1.0700   -0.3750    2.4920 c3        1 DRW     -0.252000
     24 CAX        -3.6420   -0.8450   -2.1050 c3        1 DRW     -0.184000
     25 CAY        -2.1910   -0.4430   -1.7570 c2        1 DRW     -0.070000
     26 CAZ        -1.0970   -0.7530    0.5500 c3        1 DRW     -0.225000
     27 SBA         5.8640    2.0100    0.2120 s6        1 DRW      2.812000
     28 HAA        -5.5150   -0.7500   -4.8440 hc        1 DRW      0.082333
     29 HAAA       -5.9300   -0.2990   -3.3650 hc        1 DRW      0.082333
     30 HAAB       -5.5530   -1.8380   -3.6640 hc        1 DRW      0.082333
     31 HAB        -3.0850    0.7440    1.3010 hc        1 DRW      0.077333
     32 HABA       -3.6300   -0.5220    0.4650 hc        1 DRW      0.077333
     33 HABB       -3.7950    0.9480   -0.1370 hc        1 DRW      0.077333
     34 HNAC        7.6990    2.7420    1.3540 hn        1 DRW      0.239000
     35 HNAA        7.1050    3.9080    0.4430 hn        1 DRW      0.239000
     36 HOAI       -3.8290    0.8980   -4.7550 ho        1 DRW      0.223000
     37 HAJ        -4.4740   -2.5580   -1.1130 DU        1 DRW      0.120000
     38 HAK         0.6410    0.3790    4.2000 h1        1 DRW      0.090000
     39 HAKA        0.0500    1.1820    2.9320 h1        1 DRW      0.090000
     40 HAL         2.6350    1.5180    0.7400 h1        1 DRW      0.097500
     41 HALA        3.7710    0.3940    0.5670 h1        1 DRW      0.097500
     42 HAM         2.9530   -1.0460    1.7080 hc        1 DRW      0.128500
     43 HAMA        2.9310   -1.0750    3.3170 hc        1 DRW      0.128500
     44 HNAO        2.3720    1.7490    4.0840 hn        1 DRW      0.139000
     45 HNAP        4.4040    2.8700    1.7290 hn        1 DRW      0.254000
     46 HAT        -3.3220   -1.1870   -4.1160 h1        1 DRW      0.092000
     47 HAU        -1.5700    1.1210   -0.2980 hc        1 DRW      0.102000
     48 HAV         4.0160    0.6530    3.0700 h1        1 DRW      0.077000
     49 HAW         0.6240   -1.1750    2.8440 h1        1 DRW      0.170000
     50 HAX        -4.2620   -0.3110   -1.5740 hc        1 DRW      0.111000
     51 HAY        -1.9670    0.1810   -2.4820 ha        1 DRW      0.105000
     52 HAZ        -1.3470   -0.9760    1.4660 h1        1 DRW      0.142000
@<TRIPOS>BOND
     1    1   20 1   
     2    1   28 1   
     3    1   29 1   
     4    1   30 1   
     5    2   21 1   
     6    2   31 1   
     7    2   32 1   
     8    2   33 1   
     9    3   27 1   
    10    3   34 1   
    11    3   35 1   
    12    4   10 1   
    13    5   18 1   
    14    6   27 1   
    15    7   27 1   
    16    8   18 1   
    17    9   20 1   
    18    9   36 1   
    19   10   24 1   
    20   11   15 1   
    21   11   23 1   
    22   11   38 1   
    23   11   39 1   
    24   12   16 1   
    25   12   22 1   
    26   12   40 1   
    27   12   41 1   
    28   13   22 1   
    29   13   23 1   
    30   13   42 1   
    31   13   43 1   
    32   14   19 1   
    33   15   22 1   
    34   15   44 1   
    35   16   27 1   
    36   16   45 1   
    37   17   23 1   
    38   17   26 1   
    39   18   19 1   
    40   19   26 1   
    41   20   24 1   
    42   20   46 1   
    43   21   25 1   
    44   21   26 1   
    45   21   47 1   
    46   22   48 1   
    47   23   49 1   
    48   24   25 1   
    49   24   50 1   
    50   25   51 1   
    51   26   52 1   
@<TRIPOS>SUBSTRUCTURE
     1 DRW         1 TEMP              0 ****  ****    0 ROOT
