@<TRIPOS>MOLECULE
DRX
   41    43     1     0     0
SMALL
bcc


@<TRIPOS>ATOM
      1 CAO       -98.2770   51.4420  141.0370 ca        1 DRX     -0.063000
      2 CAP       -98.7250   51.7960  142.3110 ca        1 DRX     -0.071000
      3 CAQ      -100.0450   51.5250  142.6600 ca        1 DRX     -0.100000
      4 CLR      -100.6130   51.9500  144.2180 cl        1 DRX     -0.073000
      5 CBB      -100.9320   50.9070  141.7610 ca        1 DRX     -0.135000
      6 CBA      -100.4930   50.5540  140.4940 ca        1 DRX     -0.115000
      7 CAZ       -99.1710   50.8150  140.1190 ca        1 DRX     -0.288000
      8 SBC       -98.4030   50.4880  138.6590 ss        1 DRX      0.395000
      9 CAY       -96.9240   51.1360  139.1640 c2        1 DRX     -0.525000
     10 CAN       -96.9440   51.6280  140.4570 c2        1 DRX      0.117000
     11 CAM       -95.8960   52.2250  141.1710 c2        1 DRX     -0.492000
     12 PAD       869.2030 -514.6350-1332.0060 p3        1 DRX      2.361000
     13 OAB       870.3770 -515.0900-1331.2410 o         1 DRX     -1.120000
     14 OAE       868.0420 -515.5280-1332.1750 o         1 DRX     -1.120000
     15 OAC       869.1890 -513.2880-1332.6030 o         1 DRX     -1.120000
     16 CAL       -94.5970   52.4140  140.6270 c2        1 DRX      0.374000
     17 OAX       -94.2000   52.0920  139.4780 o         1 DRX     -0.464000
     18 NAK       -93.6620   53.0460  141.5190 n         1 DRX     -0.335000
     19 CAW       -92.3400   53.3700  141.3180 ca        1 DRX      0.157000
     20 CAV       -91.6130   53.9900  142.3500 ca        1 DRX     -0.279000
     21 CAU       -90.2560   54.3410  142.1920 ca        1 DRX      0.022000
     22 CAT       -89.5230   54.9690  143.2400 ca        1 DRX     -0.140000
     23 CAS       -88.2030   55.3030  143.0700 ca        1 DRX     -0.132000
     24 CAF       -87.5450   55.0290  141.8480 ca        1 DRX     -0.176000
     25 CAG       -88.2280   54.4240  140.8200 ca        1 DRX     -0.096000
     26 CAH       -89.5920   54.0680  140.9680 ca        1 DRX     -0.094000
     27 CAI       -90.3310   53.4410  139.9280 ca        1 DRX     -0.111000
     28 CAJ       -91.6450   53.1020  140.0820 ca        1 DRX     -0.148000
     29 HAP       -98.0390   52.2790  143.0220 ha        1 DRX      0.146000
     30 HBB      -101.9690   50.7060  142.0640 ha        1 DRX      0.124000
     31 HBA      -101.1810   50.0710  139.7870 ha        1 DRX      0.120000
     32 HAY       -96.0510   51.1540  138.5150 h4        1 DRX      0.189000
     33 HAM       -96.1080   52.5540  142.1940 ha        1 DRX      0.098000
     34 HNAK      -94.0250   53.2820  142.4160 hn        1 DRX      0.210000
     35 HAV       -92.0940   54.2170  143.3120 ha        1 DRX      0.119000
     36 HAT       -90.0400   55.1800  144.1880 ha        1 DRX      0.120000
     37 HAS       -87.6400   55.7880  143.8800 ha        1 DRX      0.112000
     38 HAF       -86.4880   55.3060  141.7350 ha        1 DRX      0.113000
     39 HAG       -87.7280   54.2060  139.8650 ha        1 DRX      0.116000
     40 HAI       -89.8170   53.2300  138.9780 ha        1 DRX      0.118000
     41 HAJ       -92.1960   52.6160  139.2570 ha        1 DRX      0.187000
@<TRIPOS>BOND
     1    1    2 1   
     2    1    7 1   
     3    1   10 1   
     4    2    3 1   
     5    2   29 1   
     6    3    4 1   
     7    3    5 1   
     8    5    6 1   
     9    5   30 1   
    10    6    7 1   
    11    6   31 1   
    12    7    8 1   
    13    8    9 1   
    14    9   10 1   
    15    9   32 1   
    16   10   11 1   
    17   11   16 1   
    18   11   33 1   
    19   12   13 1   
    20   12   14 1   
    21   12   15 1   
    22   16   17 1   
    23   16   18 1   
    24   18   19 1   
    25   18   34 1   
    26   19   20 1   
    27   19   28 1   
    28   20   21 1   
    29   20   35 1   
    30   21   22 1   
    31   21   26 1   
    32   22   23 1   
    33   22   36 1   
    34   23   24 1   
    35   23   37 1   
    36   24   25 1   
    37   24   38 1   
    38   25   26 1   
    39   25   39 1   
    40   26   27 1   
    41   27   28 1   
    42   27   40 1   
    43   28   41 1   
@<TRIPOS>SUBSTRUCTURE
     1 DRX         1 TEMP              0 ****  ****    0 ROOT
