@<TRIPOS>MOLECULE
DRX
   41    43     1     0     0
SMALL
bcc


@<TRIPOS>ATOM
      1 CAO       -42.9080   41.4860  107.4400 ca        1 DRX     -0.063000
      2 CAP       -42.4170   42.7090  107.9040 ca        1 DRX     -0.071000
      3 CAQ       -43.0990   43.3640  108.9240 ca        1 DRX     -0.100000
      4 CLR       -42.5130   44.8640  109.5060 cl        1 DRX     -0.073000
      5 CBB       -44.2650   42.8250  109.4960 ca        1 DRX     -0.135000
      6 CBA       -44.7570   41.6130  109.0400 ca        1 DRX     -0.115000
      7 CAZ       -44.0910   40.9330  108.0150 ca        1 DRX     -0.288000
      8 SBC       -44.4790   39.4650  107.2930 ss        1 DRX      0.395000
      9 CAY       -43.1560   39.5040  106.2400 c2        1 DRX     -0.525000
     10 CAN       -42.3620   40.6270  106.3860 c2        1 DRX      0.117000
     11 CAM       -41.2010   40.9630  105.6750 c2        1 DRX     -0.492000
     12 PAD       367.7630 -401.5590 -990.0330 p3        1 DRX      2.361000
     13 OAB       367.3410 -400.8890 -991.2760 o         1 DRX     -1.120000
     14 OAE       368.9640 -402.4130 -990.0270 o         1 DRX     -1.120000
     15 OAC       366.9840 -401.3740 -988.7960 o         1 DRX     -1.120000
     16 CAL       -40.6560   40.1450  104.6510 c2        1 DRX      0.374000
     17 OAX       -41.1040   39.0440  104.2380 o         1 DRX     -0.464000
     18 NAK       -39.4610   40.6640  104.0420 n         1 DRX     -0.335000
     19 CAW       -38.6880   40.1340  103.0350 ca        1 DRX      0.157000
     20 CAV       -37.5470   40.8310  102.5970 ca        1 DRX     -0.279000
     21 CAU       -36.7230   40.3290  101.5680 ca        1 DRX      0.022000
     22 CAT       -35.5690   41.0380  101.1270 ca        1 DRX     -0.140000
     23 CAS       -34.7770   40.5340  100.1240 ca        1 DRX     -0.132000
     24 CAF       -35.0950   39.3000   99.5100 ca        1 DRX     -0.176000
     25 CAG       -36.2030   38.5950   99.9160 ca        1 DRX     -0.096000
     26 CAH       -37.0370   39.0910  100.9490 ca        1 DRX     -0.094000
     27 CAI       -38.1910   38.3910  101.3960 ca        1 DRX     -0.111000
     28 CAJ       -38.9890   38.8790  102.3920 ca        1 DRX     -0.148000
     29 HAP       -41.5050   43.1390  107.4630 ha        1 DRX      0.146000
     30 HBB       -44.7820   43.3660  110.3000 ha        1 DRX      0.124000
     31 HBA       -45.6680   41.1860  109.4820 ha        1 DRX      0.120000
     32 HAY       -42.9670   38.7090  105.5220 h4        1 DRX      0.189000
     33 HAM       -40.7060   41.9050  105.9370 ha        1 DRX      0.098000
     34 HNAK      -39.1470   41.5370  104.4030 hn        1 DRX      0.210000
     35 HAV       -37.2720   41.7930  103.0530 ha        1 DRX      0.119000
     36 HAT       -35.3270   41.9960  101.6080 ha        1 DRX      0.120000
     37 HAS       -33.8870   41.0840   99.7860 ha        1 DRX      0.112000
     38 HAF       -34.4470   38.9180   98.7100 ha        1 DRX      0.113000
     39 HAG       -36.4610   37.6350   99.4470 ha        1 DRX      0.116000
     40 HAI       -38.4360   37.4310  100.9160 ha        1 DRX      0.118000
     41 HAJ       -39.8800   38.3130  102.7200 ha        1 DRX      0.187000
@<TRIPOS>BOND
     1    1    2 1   
     2    1    7 1   
     3    1   10 1   
     4    2    3 1   
     5    2   29 1   
     6    3    4 1   
     7    3    5 1   
     8    5    6 1   
     9    5   30 1   
    10    6    7 1   
    11    6   31 1   
    12    7    8 1   
    13    8    9 1   
    14    9   10 1   
    15    9   32 1   
    16   10   11 1   
    17   11   16 1   
    18   11   33 1   
    19   12   13 1   
    20   12   14 1   
    21   12   15 1   
    22   16   17 1   
    23   16   18 1   
    24   18   19 1   
    25   18   34 1   
    26   19   20 1   
    27   19   28 1   
    28   20   21 1   
    29   20   35 1   
    30   21   22 1   
    31   21   26 1   
    32   22   23 1   
    33   22   36 1   
    34   23   24 1   
    35   23   37 1   
    36   24   25 1   
    37   24   38 1   
    38   25   26 1   
    39   25   39 1   
    40   26   27 1   
    41   27   28 1   
    42   27   40 1   
    43   28   41 1   
@<TRIPOS>SUBSTRUCTURE
     1 DRX         1 TEMP              0 ****  ****    0 ROOT
