@<TRIPOS>MOLECULE
DRX
   41    43     1     0     0
SMALL
bcc


@<TRIPOS>ATOM
      1 CAO       207.7220  -36.0510  103.6590 ca        1 DRX     -0.063000
      2 CAP       206.6620  -35.3100  104.1850 ca        1 DRX     -0.071000
      3 CAQ       205.5110  -35.1460  103.4200 ca        1 DRX     -0.100000
      4 CLR       204.2010  -34.2410  104.0470 cl        1 DRX     -0.073000
      5 CBB       205.3940  -35.7080  102.1370 ca        1 DRX     -0.135000
      6 CBA       206.4420  -36.4440  101.6090 ca        1 DRX     -0.115000
      7 CAZ       207.6110  -36.6250  102.3570 ca        1 DRX     -0.288000
      8 SBC       209.0080  -37.4650  101.9480 ss        1 DRX      0.395000
      9 CAY       209.7800  -37.1180  103.4130 c2        1 DRX     -0.525000
     10 CAN       209.0170  -36.3520  104.2760 c2        1 DRX      0.117000
     11 CAM       209.3580  -35.8950  105.5570 c2        1 DRX     -0.492000
     12 PAD     -1894.1240  277.7960 -997.7300 p3        1 DRX      2.361000
     13 OAB     -1894.4610  279.2170 -997.9330 o         1 DRX     -1.120000
     14 OAE     -1893.8980  277.2810 -996.3680 o         1 DRX     -1.120000
     15 OAC     -1894.0130  276.8920 -998.8880 o         1 DRX     -1.120000
     16 CAL       210.6070  -36.1760  106.1720 c2        1 DRX      0.374000
     17 OAX       211.5590  -36.8440  105.6910 o         1 DRX     -0.464000
     18 NAK       210.7640  -35.6180  107.4880 n         1 DRX     -0.335000
     19 CAW       211.8320  -35.6980  108.3530 ca        1 DRX      0.157000
     20 CAV       211.7550  -35.0690  109.6090 ca        1 DRX     -0.279000
     21 CAU       212.8220  -35.1220  110.5290 ca        1 DRX      0.022000
     22 CAT       212.7420  -34.4830  111.8000 ca        1 DRX     -0.140000
     23 CAS       213.7900  -34.5450  112.6850 ca        1 DRX     -0.132000
     24 CAF       214.9720  -35.2460  112.3490 ca        1 DRX     -0.176000
     25 CAG       215.0770  -35.8710  111.1290 ca        1 DRX     -0.096000
     26 CAH       214.0110  -35.8240  110.1970 ca        1 DRX     -0.094000
     27 CAI       214.0820  -36.4580  108.9270 ca        1 DRX     -0.111000
     28 CAJ       213.0480  -36.4060  108.0360 ca        1 DRX     -0.148000
     29 HAP       206.7450  -34.8670  105.1880 ha        1 DRX      0.146000
     30 HBB       204.4720  -35.5610  101.5560 ha        1 DRX      0.124000
     31 HBA       206.3570  -36.8860  100.6070 ha        1 DRX      0.120000
     32 HAY       210.7840  -37.4750  103.6340 h4        1 DRX      0.189000
     33 HAM       208.6130  -35.2950  106.0920 ha        1 DRX      0.098000
     34 HNAK      209.9840  -35.1000  107.8250 hn        1 DRX      0.210000
     35 HAV       210.8510  -34.5160  109.9020 ha        1 DRX      0.119000
     36 HAT       211.8200  -33.9400  112.0560 ha        1 DRX      0.120000
     37 HAS       213.7240  -34.0510  113.6650 ha        1 DRX      0.112000
     38 HAF       215.7970  -35.2820  113.0720 ha        1 DRX      0.113000
     39 HAG       215.9910  -36.4200  110.8560 ha        1 DRX      0.116000
     40 HAI       215.0030  -37.0020  108.6680 ha        1 DRX      0.118000
     41 HAJ       213.1310  -36.9080  107.0550 ha        1 DRX      0.187000
@<TRIPOS>BOND
     1    1    2 1   
     2    1    7 1   
     3    1   10 1   
     4    2    3 1   
     5    2   29 1   
     6    3    4 1   
     7    3    5 1   
     8    5    6 1   
     9    5   30 1   
    10    6    7 1   
    11    6   31 1   
    12    7    8 1   
    13    8    9 1   
    14    9   10 1   
    15    9   32 1   
    16   10   11 1   
    17   11   16 1   
    18   11   33 1   
    19   12   13 1   
    20   12   14 1   
    21   12   15 1   
    22   16   17 1   
    23   16   18 1   
    24   18   19 1   
    25   18   34 1   
    26   19   20 1   
    27   19   28 1   
    28   20   21 1   
    29   20   35 1   
    30   21   22 1   
    31   21   26 1   
    32   22   23 1   
    33   22   36 1   
    34   23   24 1   
    35   23   37 1   
    36   24   25 1   
    37   24   38 1   
    38   25   26 1   
    39   25   39 1   
    40   26   27 1   
    41   27   28 1   
    42   27   40 1   
    43   28   41 1   
@<TRIPOS>SUBSTRUCTURE
     1 DRX         1 TEMP              0 ****  ****    0 ROOT
