@<TRIPOS>MOLECULE
DRX
   41    43     1     0     0
SMALL
bcc


@<TRIPOS>ATOM
      1 CAO      -102.6080   54.0030  147.6740 ca        1 DRX     -0.063000
      2 CAP      -103.0560   54.3560  148.9490 ca        1 DRX     -0.071000
      3 CAQ      -104.3760   54.0860  149.2970 ca        1 DRX     -0.100000
      4 ClR      -104.9440   54.5110  150.8550 cl        1 DRX     -0.073000
      5 CBB      -105.2620   53.4680  148.3980 ca        1 DRX     -0.135000
      6 CBA      -104.8240   53.1150  147.1320 ca        1 DRX     -0.115000
      7 CAZ      -103.5020   53.3750  146.7560 ca        1 DRX     -0.288000
      8 SBC      -102.7330   53.0490  145.2970 ss        1 DRX      0.395000
      9 CAY      -101.2550   53.6970  145.8020 c2        1 DRX     -0.525000
     10 CAN      -101.2750   54.1890  147.0940 c2        1 DRX      0.117000
     11 CAM      -100.2270   54.7860  147.8090 c2        1 DRX     -0.492000
     12 PAD       909.2630 -538.3240-1393.4060 p3        1 DRX      2.361000
     13 OAB       910.4380 -538.7790-1392.6410 o         1 DRX     -1.120000
     14 OAE       908.1030 -539.2170-1393.5750 o         1 DRX     -1.120000
     15 OAC       909.2490 -536.9770-1394.0030 o         1 DRX     -1.120000
     16 CAL       -98.9280   54.9750  147.2650 c2        1 DRX      0.374000
     17 OAX       -98.5300   54.6530  146.1160 o         1 DRX     -0.464000
     18 NAK       -97.9930   55.6070  148.1570 ns        1 DRX     -0.335000
     19 CAW       -96.6710   55.9310  147.9560 ca        1 DRX      0.157000
     20 CAV       -95.9440   56.5510  148.9880 ca        1 DRX     -0.279000
     21 CAU       -94.5870   56.9020  148.8310 ca        1 DRX      0.022000
     22 CAT       -93.8540   57.5300  149.8780 ca        1 DRX     -0.140000
     23 CAS       -92.5340   57.8650  149.7080 ca        1 DRX     -0.132000
     24 CAF       -91.8760   57.5910  148.4860 ca        1 DRX     -0.176000
     25 CAG       -92.5590   56.9860  147.4580 ca        1 DRX     -0.096000
     26 CAH       -93.9230   56.6300  147.6070 ca        1 DRX     -0.094000
     27 CAI       -94.6620   56.0030  146.5660 ca        1 DRX     -0.111000
     28 CAJ       -95.9760   55.6630  146.7200 ca        1 DRX     -0.148000
     29 HAP      -102.3700   54.8400  149.6600 ha        1 DRX      0.146000
     30 HBB      -106.2990   53.2670  148.7010 ha        1 DRX      0.124000
     31 HBA      -105.5110   52.6310  146.4240 ha        1 DRX      0.120000
     32 HAY      -100.3820   53.7150  145.1530 h4        1 DRX      0.189000
     33 HAM      -100.4390   55.1150  148.8320 ha        1 DRX      0.098000
     34 HNAK      -98.3560   55.8440  149.0540 hn        1 DRX      0.210000
     35 HAV       -96.4250   56.7780  149.9510 ha        1 DRX      0.119000
     36 HAT       -94.3710   57.7410  150.8260 ha        1 DRX      0.120000
     37 HAS       -91.9710   58.3490  150.5190 ha        1 DRX      0.112000
     38 HAF       -90.8190   57.8670  148.3730 ha        1 DRX      0.113000
     39 HAG       -92.0580   56.7670  146.5030 ha        1 DRX      0.116000
     40 HAI       -94.1480   55.7910  145.6160 ha        1 DRX      0.118000
     41 HAJ       -96.5270   55.1770  145.8950 ha        1 DRX      0.187000
@<TRIPOS>BOND
     1    1    2 1   
     2    1    7 1   
     3    1   10 1   
     4    2    3 1   
     5    2   29 1   
     6    3    4 1   
     7    3    5 1   
     8    5    6 1   
     9    5   30 1   
    10    6    7 1   
    11    6   31 1   
    12    7    8 1   
    13    8    9 1   
    14    9   10 1   
    15    9   32 1   
    16   10   11 1   
    17   11   16 1   
    18   11   33 1   
    19   12   13 1   
    20   12   14 1   
    21   12   15 1   
    22   16   17 1   
    23   16   18 1   
    24   18   19 1   
    25   18   34 1   
    26   19   20 1   
    27   19   28 1   
    28   20   21 1   
    29   20   35 1   
    30   21   22 1   
    31   21   26 1   
    32   22   23 1   
    33   22   36 1   
    34   23   24 1   
    35   23   37 1   
    36   24   25 1   
    37   24   38 1   
    38   25   26 1   
    39   25   39 1   
    40   26   27 1   
    41   27   28 1   
    42   27   40 1   
    43   28   41 1   
@<TRIPOS>SUBSTRUCTURE
     1 DRX         1 TEMP              0 ****  ****    0 ROOT
