@<TRIPOS>MOLECULE
DRY
   69    73     1     0     0
SMALL
bcc


@<TRIPOS>ATOM
      1 CAO        -0.3160    0.9680    0.0780 ca        1 DRY     -0.086500
      2 CAR         0.9880    1.4530   -0.0020 ca        1 DRY     -0.144500
      3 CAQ         1.8790    1.2400    1.0510 ca        1 DRY     -0.109000
      4 CAP         1.4640    0.5420    2.1850 ca        1 DRY     -0.144500
      5 CAS         0.1570    0.0640    2.2740 ca        1 DRY     -0.086500
      6 CAT        -0.7410    0.2790    1.2220 ca        1 DRY     -0.165600
      7 CAU        -2.1280   -0.2400    1.2750 c         1 DRY      0.590300
      8 OBH        -2.6970   -0.6370    0.2480 o         1 DRY     -0.532100
      9 CAV        -2.8020   -0.2670    2.5900 ca        1 DRY     -0.176600
     10 CBA        -2.5340    0.6660    3.5670 ca        1 DRY     -0.064000
     11 CAW        -3.7790   -1.2720    2.8310 ca        1 DRY     -0.087000
     12 CAZ        -4.4390   -1.3310    4.0310 ca        1 DRY     -0.131000
     13 CAY        -4.1810   -0.3810    5.0620 ca        1 DRY      0.016000
     14 CBD        -4.8630   -0.4150    6.3130 ca        1 DRY     -0.095300
     15 CBE        -5.9060   -1.4380    6.6000 c3        1 DRY     -0.033100
     16 CBF        -5.3080   -2.7630    7.0340 c3        1 DRY     -0.076400
     17 CBG        -6.3850   -3.7630    7.3670 c3        1 DRY     -0.097100
     18 CAX        -3.2130    0.6300    4.8140 ca        1 DRY     -0.080000
     19 CBB        -2.9300    1.5930    5.8190 ca        1 DRY     -0.091000
     20 CBC        -3.5740    1.5520    7.0280 ca        1 DRY     -0.178000
     21 CAE        -4.5400    0.5400    7.2760 ca        1 DRY      0.129100
     22 OAD        -5.1750    0.4160    8.4960 os        1 DRY     -0.326900
     23 CAC        -5.2740    1.6130    9.2820 c3        1 DRY      0.131400
     24 CAB        -6.3220    1.3320   10.3430 c3        1 DRY     -0.119400
     25 CAA        -7.7190    1.2850    9.7170 c3        1 DRY      0.041300
     26 NAM        -8.7850    0.8960   10.5900 na        1 DRY     -0.072400
     27 CAN        -9.3140    1.7470   11.5860 cc        1 DRY     -0.137100
     28 CAF        -9.9280    1.0080   12.5840 cd        1 DRY     -0.179200
     29 CAG        -9.7200   -0.3940   12.2750 ca        1 DRY     -0.053800
     30 CAL       -10.0990   -1.5750   12.9080 ca        1 DRY     -0.188000
     31 CAH        -8.9640   -0.4330   11.0500 ca        1 DRY     -0.108200
     32 CAK        -8.5910   -1.6580   10.4780 ca        1 DRY     -0.117000
     33 CAJ        -8.9650   -2.8230   11.1220 ca        1 DRY     -0.150000
     34 CAI        -9.7140   -2.7890   12.3300 ca        1 DRY      0.144100
     35 OBI       -10.0050   -4.0260   12.8430 os        1 DRY     -0.290900
     36 CBJ       -10.7370   -4.0450   14.0740 c3        1 DRY     -0.009600
     37 CBK       -10.9120   -5.5380   14.4800 c         1 DRY      0.925600
     38 OBM       -11.9850   -6.1000   14.1380 o         1 DRY     -0.821800
     39 OBL        -9.9980   -6.0550   15.1760 o         1 DRY     -0.821800
     40 HBJ1      -10.1580   -3.4980   14.8600 h1        1 DRY      0.020200
     41 HBJ2      -11.7360   -3.5650   13.9180 h1        1 DRY      0.020200
     42 HAJ        -8.6880   -3.8060   10.7120 ha        1 DRY      0.147000
     43 HAK        -8.0120   -1.6930    9.5440 ha        1 DRY      0.122000
     44 HAN        -9.2500    2.8290   11.4640 h4        1 DRY      0.147000
     45 HAF       -10.4790    1.3890   13.4380 ha        1 DRY      0.148000
     46 HAL       -10.6850   -1.5450   13.8350 ha        1 DRY      0.148000
     47 HAA1       -7.6920    0.5500    8.8600 h1        1 DRY      0.055700
     48 HAA2       -7.9670    2.3050    9.3050 h1        1 DRY      0.055700
     49 HAB1       -6.2670    2.1370   11.1200 hc        1 DRY      0.070700
     50 HAB2       -6.0960    0.3510   10.8410 hc        1 DRY      0.070700
     51 HAC1       -5.5660    2.4790    8.6340 h1        1 DRY      0.037700
     52 HAC2       -4.2770    1.8120    9.7570 h1        1 DRY      0.037700
     53 HBC        -3.3440    2.2910    7.8090 ha        1 DRY      0.139000
     54 HBB        -2.1800    2.3710    5.6110 ha        1 DRY      0.132000
     55 HBA        -1.7900    1.4610    3.3960 ha        1 DRY      0.138000
     56 HAW        -3.9930   -1.9950    2.0280 ha        1 DRY      0.150000
     57 HAZ        -5.1810   -2.1240    4.2120 ha        1 DRY      0.147000
     58 HBE1       -6.5820   -1.0620    7.4190 hc        1 DRY      0.056700
     59 HBE2       -6.5500   -1.5910    5.6930 hc        1 DRY      0.056700
     60 HBF1       -4.6520   -3.1650    6.2170 hc        1 DRY      0.042200
     61 HBF2       -4.6570   -2.5970    7.9330 hc        1 DRY      0.042200
     62 HBG1       -7.0400   -3.9500    6.4810 hc        1 DRY      0.038033
     63 HBG2       -5.9290   -4.7330    7.6810 hc        1 DRY      0.038033
     64 HBG3       -7.0260   -3.3890    8.2030 hc        1 DRY      0.038033
     65 HAS        -0.1700   -0.4890    3.1690 ha        1 DRY      0.148000
     66 HAP         2.1670    0.3660    3.0120 ha        1 DRY      0.134500
     67 HAQ         2.9090    1.6200    0.9860 ha        1 DRY      0.131000
     68 HAR         1.3160    1.9990   -0.8990 ha        1 DRY      0.134500
     69 HAO        -1.0210    1.1130   -0.7560 ha        1 DRY      0.148000
@<TRIPOS>BOND
     1    1    2 ar  
     2    1    6 ar  
     3    1   69 1   
     4    2    3 ar  
     5    2   68 1   
     6    3    4 ar  
     7    3   67 1   
     8    4    5 ar  
     9    4   66 1   
    10    5    6 ar  
    11    5   65 1   
    12    6    7 1   
    13    7    8 2   
    14    7    9 1   
    15    9   10 ar  
    16    9   11 ar  
    17   10   18 ar  
    18   10   55 1   
    19   11   12 ar  
    20   11   56 1   
    21   12   13 ar  
    22   12   57 1   
    23   13   14 ar  
    24   13   18 ar  
    25   14   15 1   
    26   14   21 ar  
    27   15   16 1   
    28   15   58 1   
    29   15   59 1   
    30   16   17 1   
    31   16   60 1   
    32   16   61 1   
    33   17   62 1   
    34   17   63 1   
    35   17   64 1   
    36   18   19 ar  
    37   19   20 ar  
    38   19   54 1   
    39   20   21 ar  
    40   20   53 1   
    41   21   22 1   
    42   22   23 1   
    43   23   24 1   
    44   23   51 1   
    45   23   52 1   
    46   24   25 1   
    47   24   49 1   
    48   24   50 1   
    49   25   26 1   
    50   25   47 1   
    51   25   48 1   
    52   26   27 1   
    53   26   31 1   
    54   27   28 2   
    55   27   44 1   
    56   28   29 1   
    57   28   45 1   
    58   29   30 ar  
    59   29   31 ar  
    60   30   34 ar  
    61   30   46 1   
    62   31   32 ar  
    63   32   33 ar  
    64   32   43 1   
    65   33   34 ar  
    66   33   42 1   
    67   34   35 1   
    68   35   36 1   
    69   36   37 1   
    70   36   40 1   
    71   36   41 1   
    72   37   38 1   
    73   37   39 1   
@<TRIPOS>SUBSTRUCTURE
     1 DRY         1 TEMP              0 ****  ****    0 ROOT
