@<TRIPOS>MOLECULE
DRY
   69    73     1     0     0
SMALL
bcc


@<TRIPOS>ATOM
      1 CAO        -3.5190   -2.1290    2.5950 ca        1 DRY     -0.086500
      2 CAR        -3.9530   -2.2260    3.9160 ca        1 DRY     -0.144500
      3 CAQ        -3.1040   -1.8550    4.9600 ca        1 DRY     -0.109000
      4 CAP        -1.8200   -1.3880    4.6810 ca        1 DRY     -0.144500
      5 CAS        -1.3780   -1.2990    3.3620 ca        1 DRY     -0.086500
      6 CAT        -2.2240   -1.6740    2.3120 ca        1 DRY     -0.165600
      7 CAU        -1.7930   -1.5650    0.8990 c         1 DRY      0.590300
      8 OBH        -2.6020   -1.2640    0.0090 o         1 DRY     -0.532100
      9 CAV        -0.3710   -1.8270    0.5920 ca        1 DRY     -0.176600
     10 CBA         0.3820   -2.7200    1.3220 ca        1 DRY     -0.064000
     11 CAW         0.2200   -1.1530   -0.5130 ca        1 DRY     -0.087000
     12 CAZ         1.5320   -1.3720   -0.8430 ca        1 DRY     -0.131000
     13 CAY         2.3360   -2.2880   -0.1050 ca        1 DRY      0.016000
     14 CBD         3.6990   -2.5400   -0.4370 ca        1 DRY     -0.096300
     15 CBE         4.3500   -1.8730   -1.5980 c3        1 DRY     -0.033100
     16 CBF         4.8250   -0.4700   -1.2620 c3        1 DRY     -0.076400
     17 CBG         5.5290    0.1600   -2.4360 c3        1 DRY     -0.096100
     18 CAX         1.7400   -2.9690    0.9910 ca        1 DRY     -0.080000
     19 CBB         2.5110   -3.8890    1.7490 ca        1 DRY     -0.091000
     20 CBC         3.8260   -4.1210    1.4400 ca        1 DRY     -0.178000
     21 CAE         4.4220   -3.4380    0.3470 ca        1 DRY      0.130100
     22 OAD         5.7580   -3.5880    0.0280 os        1 DRY     -0.326900
     23 CAC         6.3710   -4.8200    0.4350 c3        1 DRY      0.131400
     24 CAB         7.6700   -4.9210   -0.3420 c3        1 DRY     -0.119400
     25 CAA         7.3900   -5.2040   -1.8210 c3        1 DRY      0.041300
     26 NAM         8.5320   -5.2120   -2.6840 na        1 DRY     -0.071400
     27 CAN         9.4670   -6.2710   -2.7120 cc        1 DRY     -0.137100
     28 CAF        10.6860   -5.8340   -3.2030 cd        1 DRY     -0.179200
     29 CAG        10.5740   -4.4050   -3.4300 ca        1 DRY     -0.053800
     30 CAL        11.4630   -3.4440   -3.9050 ca        1 DRY     -0.188000
     31 CAH         9.2330   -4.0360   -3.0540 ca        1 DRY     -0.108200
     32 CAK         8.8020   -2.7060   -3.1530 ca        1 DRY     -0.117000
     33 CAJ         9.6980   -1.7600   -3.6160 ca        1 DRY     -0.150000
     34 CAI        11.0220   -2.1190   -3.9910 ca        1 DRY      0.144100
     35 OBI        11.7850   -1.0690   -4.4290 os        1 DRY     -0.290900
     36 CBJ        13.1360   -1.3760   -4.7940 c3        1 DRY     -0.009600
     37 CBK        13.8130   -0.0370   -5.2120 c         1 DRY      0.925600
     38 OBM        13.8200    0.2380   -6.4410 o         1 DRY     -0.821800
     39 OBL        14.3590    0.6390   -4.3020 o         1 DRY     -0.821800
     40 HBJ1       13.6680   -1.8170   -3.9140 h1        1 DRY      0.020200
     41 HBJ2       13.1330   -2.0950   -5.6520 h1        1 DRY      0.020200
     42 HAJ         9.4050   -0.7030   -3.7040 ha        1 DRY      0.147000
     43 HAK         7.7810   -2.4190   -2.8670 ha        1 DRY      0.122000
     44 HAN         9.1570   -7.2750   -2.4210 h4        1 DRY      0.147000
     45 HAF        11.5680   -6.4350   -3.4020 ha        1 DRY      0.148000
     46 HAL        12.4800   -3.7270   -4.2020 ha        1 DRY      0.148000
     47 HAA1        6.8840   -6.2070   -1.9090 h1        1 DRY      0.055700
     48 HAA2        6.6800   -4.4110   -2.1990 h1        1 DRY      0.055700
     49 HAB1        8.2410   -3.9600   -0.2420 hc        1 DRY      0.070700
     50 HAB2        8.2880   -5.7410    0.1040 hc        1 DRY      0.070700
     51 HAC1        6.5740   -4.7710    1.5380 h1        1 DRY      0.037700
     52 HAC2        5.6900   -5.6830    0.2140 h1        1 DRY      0.037700
     53 HBC         4.4250   -4.8240    2.0370 ha        1 DRY      0.139000
     54 HBB         2.0350   -4.4100    2.5940 ha        1 DRY      0.132000
     55 HBA        -0.0600   -3.2620    2.1740 ha        1 DRY      0.138000
     56 HAW        -0.4060   -0.4580   -1.0960 ha        1 DRY      0.150000
     57 HAZ         1.9820   -0.8320   -1.6920 ha        1 DRY      0.147000
     58 HBE1        5.2360   -2.4830   -1.9310 hc        1 DRY      0.056700
     59 HBE2        3.6380   -1.8350   -2.4660 hc        1 DRY      0.056700
     60 HBF1        3.9490    0.1600   -0.9580 hc        1 DRY      0.042700
     61 HBF2        5.5240   -0.5190   -0.3850 hc        1 DRY      0.042700
     62 HBG1        6.4240   -0.4430   -2.7290 hc        1 DRY      0.038033
     63 HBG2        4.8480    0.2260   -3.3180 hc        1 DRY      0.038033
     64 HBG3        5.8700    1.1900   -2.1740 hc        1 DRY      0.038033
     65 HAS        -0.3640   -0.9270    3.1430 ha        1 DRY      0.148000
     66 HAP        -1.1530   -1.0870    5.5030 ha        1 DRY      0.134500
     67 HAQ        -3.4490   -1.9280    6.0020 ha        1 DRY      0.131000
     68 HAR        -4.9680   -2.5900    4.1340 ha        1 DRY      0.134500
     69 HAO        -4.1880   -2.4000    1.7630 ha        1 DRY      0.148000
@<TRIPOS>BOND
     1    1    2 ar  
     2    1    6 ar  
     3    1   69 1   
     4    2    3 ar  
     5    2   68 1   
     6    3    4 ar  
     7    3   67 1   
     8    4    5 ar  
     9    4   66 1   
    10    5    6 ar  
    11    5   65 1   
    12    6    7 1   
    13    7    8 2   
    14    7    9 1   
    15    9   10 ar  
    16    9   11 ar  
    17   10   18 ar  
    18   10   55 1   
    19   11   12 ar  
    20   11   56 1   
    21   12   13 ar  
    22   12   57 1   
    23   13   14 ar  
    24   13   18 ar  
    25   14   15 1   
    26   14   21 ar  
    27   15   16 1   
    28   15   58 1   
    29   15   59 1   
    30   16   17 1   
    31   16   60 1   
    32   16   61 1   
    33   17   62 1   
    34   17   63 1   
    35   17   64 1   
    36   18   19 ar  
    37   19   20 ar  
    38   19   54 1   
    39   20   21 ar  
    40   20   53 1   
    41   21   22 1   
    42   22   23 1   
    43   23   24 1   
    44   23   51 1   
    45   23   52 1   
    46   24   25 1   
    47   24   49 1   
    48   24   50 1   
    49   25   26 1   
    50   25   47 1   
    51   25   48 1   
    52   26   27 1   
    53   26   31 1   
    54   27   28 2   
    55   27   44 1   
    56   28   29 1   
    57   28   45 1   
    58   29   30 ar  
    59   29   31 ar  
    60   30   34 ar  
    61   30   46 1   
    62   31   32 ar  
    63   32   33 ar  
    64   32   43 1   
    65   33   34 ar  
    66   33   42 1   
    67   34   35 1   
    68   35   36 1   
    69   36   37 1   
    70   36   40 1   
    71   36   41 1   
    72   37   38 1   
    73   37   39 1   
@<TRIPOS>SUBSTRUCTURE
     1 DRY         1 TEMP              0 ****  ****    0 ROOT
