@<TRIPOS>MOLECULE
DRY
   69    62     1     0     0
SMALL
bcc


@<TRIPOS>ATOM
      1 CAO         3.9120   -1.8420   -6.9950 c1        1 DRY     -0.094000
      2 CAR         3.3100   -1.4850   -8.2020 c1        1 DRY     -0.123500
      3 CAQ         3.3350   -0.1740   -8.6260 c1        1 DRY     -0.123500
      4 CAP         3.9560    0.7850   -7.8580 c1        1 DRY     -0.123500
      5 CAS         4.5560    0.4320   -6.6580 c1        1 DRY     -0.123500
      6 CAT         4.5300   -0.8880   -6.2310 c1        1 DRY     -0.146000
      7 CAU         5.2940   -1.3120   -4.8780 c2        1 DRY      0.310000
      8 OBH         6.5060   -1.5870   -4.9090 o         1 DRY     -0.294000
      9 CAV         4.5160   -1.3680   -3.5250 c2        1 DRY     -0.152000
     10 CBA         4.2120   -0.3100   -2.7010 c1        1 DRY     -0.065000
     11 CAW         4.0960   -2.6670   -3.1890 c2        1 DRY     -0.090000
     12 CAZ         3.3750   -2.8820   -2.0280 c1        1 DRY     -0.132000
     13 CAY         3.0640   -1.8060   -1.1880 c2        1 DRY      0.001000
     14 CBD         2.2720   -2.0080   -0.0460 c2        1 DRY     -0.076000
     15 CBE         1.7640   -3.3870    0.3650 c3        1 DRY     -0.126000
     16 CBF         0.6430   -3.8560   -0.6360 c3        1 DRY     -0.156000
     17 CBG        -0.2150   -4.9390    0.0270 c3        1 DRY     -0.211000
     18 CAX         3.4810   -0.5250   -1.5240 c1        1 DRY     -0.064000
     19 CBB         3.1100    0.5790   -0.7150 c2        1 DRY     -0.104000
     20 CBC         2.3100    0.3770    0.4380 c1        1 DRY     -0.144000
     21 CAE         1.8960   -0.8900    0.7720 c1        1 DRY      0.067000
     22 OAD         1.0130   -0.8500    1.8670 os        1 DRY     -0.228000
     23 CAC        -0.2950   -0.2580    1.5520 c3        1 DRY     -0.015000
     24 CAB        -1.3230   -0.6200    2.6870 c3        1 DRY     -0.200000
     25 CAA        -2.7570   -0.4040    2.1710 c3        1 DRY     -0.015000
     26 NAM        -3.5150    0.2010    3.1530 n3        1 DRY     -0.165000
     27 CAN        -4.1310   -0.5830    4.0870 c1        1 DRY     -0.085500
     28 CAF        -4.8510    0.2430    4.9300 c1        1 DRY     -0.114500
     29 CAG        -4.6730    1.5510    4.5040 c1        1 DRY     -0.114500
     30 CAL        -5.1850    2.7780    4.9770 c1        1 DRY     -0.187000
     31 CAH        -3.8530    1.5290    3.4130 c1        1 DRY     -0.085500
     32 CAK        -3.5180    2.7290    2.7610 c1        1 DRY     -0.123500
     33 CAJ        -4.0210    3.9360    3.2260 c1        1 DRY     -0.123500
     34 CAI        -4.8550    3.9590    4.3350 c1        1 DRY      0.100000
     35 OBI        -5.3640    5.3420    4.4830 os        1 DRY     -0.173000
     36 CBJ        -5.2300    5.8730    5.8280 c3        1 DRY     -0.110000
     37 CBK        -5.2310    7.3720    5.7780 c2        1 DRY      0.345000
     38 OBM        -4.2010    8.0060    6.0990 o         1 DRY     -0.556000
     39 OBL        -6.2990    7.9900    5.5330 o         1 DRY     -0.556000
     40 HBJ1       -5.9760    5.5630    6.3740 h1        1 DRY      0.060000
     41 HBJ2       -4.3890    5.5620    6.2200 h1        1 DRY      0.060000
     42 HAJ        -3.7910    4.7640    2.7750 ha        1 DRY      0.136333
     43 HAK        -2.9320    2.7110    1.9820 ha        1 DRY      0.136333
     44 HAN        -4.0440   -1.5620    4.1710 DU        1 DRY      0.146333
     45 HAF        -5.3730   -0.0350    5.6680 DU        1 DRY      0.146333
     46 HAL        -5.7110    2.7990    5.7610 ha        1 DRY      0.148000
     47 HAA1       -2.7360    0.1700    1.3750 h1        1 DRY      0.089500
     48 HAA2       -3.1600   -1.2850    1.9360 h1        1 DRY      0.089500
     49 HAB1       -1.1670   -0.0460    3.4640 hc        1 DRY      0.109500
     50 HAB2       -1.2100   -1.5380    2.9410 hc        1 DRY      0.109500
     51 HAC1       -0.2060    0.7180    1.4890 h1        1 DRY      0.074500
     52 HAC2       -0.6180   -0.6150    0.6900 h1        1 DRY      0.074500
     53 HBC         2.0280    1.1320    0.9670 ha        1 DRY      0.151000
     54 HBB         3.3610    1.4570   -0.9710 ha        1 DRY      0.137000
     55 HBA         4.4560    0.5710   -2.9510 ha        1 DRY      0.142000
     56 HAW         4.2930   -3.4230   -3.7950 ha        1 DRY      0.150000
     57 HAZ         3.0880   -3.7650   -1.8000 DU        1 DRY      0.146333
     58 HBE1        2.5170   -4.0380    0.3470 hc        1 DRY      0.100000
     59 HBE2        1.3870   -3.3400    1.2870 hc        1 DRY      0.100000
     60 HBF1        0.0730   -3.0870   -0.8770 hc        1 DRY      0.081000
     61 HBF2        1.0590   -4.2200   -1.4440 hc        1 DRY      0.081000
     62 HBG1       -0.7410   -4.5440    0.7330 hc        1 DRY      0.072667
     63 HBG2        0.3650   -5.6300    0.4010 hc        1 DRY      0.072667
     64 HBG3       -0.8190   -5.3440   -0.6500 hc        1 DRY      0.072667
     65 HAS         4.9770    1.1350   -6.0850 ha        1 DRY      0.136333
     66 HAP         3.9660    1.7200   -8.1550 ha        1 DRY      0.136333
     67 HAQ         2.8990    0.0820   -9.4970 ha        1 DRY      0.136333
     68 HAR         2.8690   -2.1670   -8.7470 ha        1 DRY      0.136333
     69 HAO         3.8960   -2.7890   -6.6910 ha        1 DRY      0.144000
@<TRIPOS>BOND
     1    1    6 1   
     2    1   69 1   
     3    2    3 1   
     4    2   68 1   
     5    3   67 1   
     6    4    5 1   
     7    4   66 1   
     8    5   65 1   
     9    6    7 1   
    10    7    8 1   
    11    7    9 1   
    12    9   10 1   
    13    9   11 1   
    14   10   55 1   
    15   11   12 1   
    16   11   56 1   
    17   12   13 1   
    18   13   14 1   
    19   13   18 1   
    20   14   15 1   
    21   14   21 1   
    22   15   16 1   
    23   15   58 1   
    24   15   59 1   
    25   16   17 1   
    26   16   60 1   
    27   16   61 1   
    28   17   62 1   
    29   17   63 1   
    30   17   64 1   
    31   18   19 1   
    32   19   20 1   
    33   19   54 1   
    34   20   53 1   
    35   21   22 1   
    36   22   23 1   
    37   23   24 1   
    38   23   51 1   
    39   23   52 1   
    40   24   25 1   
    41   24   49 1   
    42   24   50 1   
    43   25   26 1   
    44   25   47 1   
    45   25   48 1   
    46   26   27 1   
    47   26   31 1   
    48   27   28 1   
    49   28   29 1   
    50   29   31 1   
    51   30   34 1   
    52   30   46 1   
    53   32   33 1   
    54   32   43 1   
    55   33   42 1   
    56   34   35 1   
    57   35   36 1   
    58   36   37 1   
    59   36   40 1   
    60   36   41 1   
    61   37   38 1   
    62   37   39 1   
@<TRIPOS>SUBSTRUCTURE
     1 DRY         1 TEMP              0 ****  ****    0 ROOT
