@<TRIPOS>MOLECULE
DRY
   69    73     1     0     0
SMALL
bcc


@<TRIPOS>ATOM
      1 CAO        -0.5250   -0.2290    0.0540 ca        1 DRY     -0.086000
      2 CAR         0.2000   -1.3120   -0.4400 ca        1 DRY     -0.144000
      3 CAQ         0.7360   -2.2540    0.4380 ca        1 DRY     -0.108000
      4 CAP         0.5470   -2.1120    1.8130 ca        1 DRY     -0.144000
      5 CAS        -0.1870   -1.0370    2.3120 ca        1 DRY     -0.086000
      6 CAT        -0.7300   -0.0920    1.4340 ca        1 DRY     -0.164600
      7 CAU        -1.4890    1.0770    1.9360 c         1 DRY      0.591300
      8 OBH        -1.4220    2.1730    1.3600 o         1 DRY     -0.539100
      9 CAV        -2.3210    0.8940    3.1430 ca        1 DRY     -0.182600
     10 CBA        -2.5360    1.9600    3.9920 ca        1 DRY     -0.046000
     11 CAW        -2.9260   -0.3590    3.4300 ca        1 DRY     -0.100000
     12 CAZ        -3.7080   -0.5170    4.5450 ca        1 DRY     -0.130000
     13 CAY        -3.9330    0.5610    5.4490 ca        1 DRY      0.016000
     14 CBD        -4.7390    0.4170    6.6150 ca        1 DRY     -0.097300
     15 CBE        -5.4180   -0.8700    6.9340 c3        1 DRY     -0.033100
     16 CBF        -4.4880   -1.8580    7.6130 c3        1 DRY     -0.075400
     17 CBG        -5.2080   -3.1370    7.9560 c3        1 DRY     -0.098100
     18 CAX        -3.3300    1.8150    5.1590 ca        1 DRY     -0.081000
     19 CBB        -3.5280    2.9090    6.0410 ca        1 DRY     -0.087000
     20 CBC        -4.2890    2.7680    7.1730 ca        1 DRY     -0.180000
     21 CAE        -4.8910    1.5150    7.4620 ca        1 DRY      0.131100
     22 OAD        -5.6200    1.2960    8.6140 os        1 DRY     -0.325900
     23 CAC        -6.1970    2.4560    9.2310 c3        1 DRY      0.130400
     24 CAB        -7.2300    1.9320   10.2130 c3        1 DRY     -0.119400
     25 CAA        -8.4590    1.4060    9.4660 c3        1 DRY      0.042300
     26 NAM        -9.4090    0.6790   10.2510 na        1 DRY     -0.072400
     27 CAN       -10.2870    1.2920   11.1710 cc        1 DRY     -0.136100
     28 CAF       -10.7140    0.3790   12.1210 cd        1 DRY     -0.180200
     29 CAG       -10.0220   -0.8700   11.8640 ca        1 DRY     -0.053800
     30 CAL       -10.0450   -2.1180   12.4810 ca        1 DRY     -0.188000
     31 CAH        -9.1790   -0.6390   10.7190 ca        1 DRY     -0.107200
     32 CAK        -8.3650   -1.6610   10.2120 ca        1 DRY     -0.117000
     33 CAJ        -8.3900   -2.8930   10.8400 ca        1 DRY     -0.151000
     34 CAI        -9.2230   -3.1270   11.9680 ca        1 DRY      0.144100
     35 OBI        -9.1360   -4.3970   12.4750 os        1 DRY     -0.290900
     36 CBJ        -9.9410   -4.6780   13.6250 c3        1 DRY     -0.009600
     37 CBK        -9.6530   -6.1520   14.0360 c         1 DRY      0.925600
     38 OBM       -10.4320   -7.0320   13.5850 o         1 DRY     -0.821800
     39 OBL        -8.7040   -6.3490   14.8390 o         1 DRY     -0.821800
     40 HBJ1       -9.6580   -3.9840   14.4570 h1        1 DRY      0.020200
     41 HBJ2      -11.0210   -4.5530   13.3600 h1        1 DRY      0.020200
     42 HAJ        -7.7600   -3.7200   10.4800 ha        1 DRY      0.146000
     43 HAK        -7.7170   -1.4890    9.3400 ha        1 DRY      0.122000
     44 HAN       -10.5740    2.3350   11.0340 h4        1 DRY      0.147000
     45 HAF       -11.4410    0.5440   12.9110 ha        1 DRY      0.148000
     46 HAL       -10.6970   -2.2980   13.3460 ha        1 DRY      0.148000
     47 HAA1       -8.1000    0.7200    8.6440 h1        1 DRY      0.055700
     48 HAA2       -8.9970    2.2770    8.9930 h1        1 DRY      0.055700
     49 HAB1       -7.5190    2.7620   10.9060 hc        1 DRY      0.070700
     50 HAB2       -6.7750    1.1090   10.8250 hc        1 DRY      0.070700
     51 HAC1       -6.6640    3.1160    8.4550 h1        1 DRY      0.037700
     52 HAC2       -5.3880    3.0160    9.7700 h1        1 DRY      0.037700
     53 HBC        -4.4300    3.6130    7.8610 ha        1 DRY      0.139000
     54 HBB        -3.0540    3.8740    5.8020 ha        1 DRY      0.134000
     55 HBA        -2.0890    2.9430    3.7660 ha        1 DRY      0.147000
     56 HAW        -2.7620   -1.2000    2.7380 ha        1 DRY      0.141000
     57 HAZ        -4.1680   -1.4950    4.7580 ha        1 DRY      0.146000
     58 HBE1       -6.2930   -0.6720    7.6150 hc        1 DRY      0.056200
     59 HBE2       -5.8360   -1.3240    5.9960 hc        1 DRY      0.056200
     60 HBF1       -3.6180   -2.0790    6.9390 hc        1 DRY      0.042200
     61 HBF2       -4.0770   -1.3940    8.5480 hc        1 DRY      0.042200
     62 HBG1       -5.6220   -3.6180    7.0380 hc        1 DRY      0.038700
     63 HBG2       -4.5070   -3.8550    8.4460 hc        1 DRY      0.038700
     64 HBG3       -6.0540   -2.9390    8.6600 hc        1 DRY      0.038700
     65 HAS        -0.3370   -0.9260    3.3970 ha        1 DRY      0.147500
     66 HAP         0.9750   -2.8510    2.5070 ha        1 DRY      0.135500
     67 HAQ         1.3100   -3.1070    0.0470 ha        1 DRY      0.132000
     68 HAR         0.3510   -1.4200   -1.5240 ha        1 DRY      0.135500
     69 HAO        -0.9370    0.5300   -0.6290 ha        1 DRY      0.147500
@<TRIPOS>BOND
     1    1    2 ar  
     2    1    6 ar  
     3    1   69 1   
     4    2    3 ar  
     5    2   68 1   
     6    3    4 ar  
     7    3   67 1   
     8    4    5 ar  
     9    4   66 1   
    10    5    6 ar  
    11    5   65 1   
    12    6    7 1   
    13    7    8 2   
    14    7    9 1   
    15    9   10 ar  
    16    9   11 ar  
    17   10   18 ar  
    18   10   55 1   
    19   11   12 ar  
    20   11   56 1   
    21   12   13 ar  
    22   12   57 1   
    23   13   14 ar  
    24   13   18 ar  
    25   14   15 1   
    26   14   21 ar  
    27   15   16 1   
    28   15   58 1   
    29   15   59 1   
    30   16   17 1   
    31   16   60 1   
    32   16   61 1   
    33   17   62 1   
    34   17   63 1   
    35   17   64 1   
    36   18   19 ar  
    37   19   20 ar  
    38   19   54 1   
    39   20   21 ar  
    40   20   53 1   
    41   21   22 1   
    42   22   23 1   
    43   23   24 1   
    44   23   51 1   
    45   23   52 1   
    46   24   25 1   
    47   24   49 1   
    48   24   50 1   
    49   25   26 1   
    50   25   47 1   
    51   25   48 1   
    52   26   27 1   
    53   26   31 1   
    54   27   28 2   
    55   27   44 1   
    56   28   29 1   
    57   28   45 1   
    58   29   30 ar  
    59   29   31 ar  
    60   30   34 ar  
    61   30   46 1   
    62   31   32 ar  
    63   32   33 ar  
    64   32   43 1   
    65   33   34 ar  
    66   33   42 1   
    67   34   35 1   
    68   35   36 1   
    69   36   37 1   
    70   36   40 1   
    71   36   41 1   
    72   37   38 1   
    73   37   39 1   
@<TRIPOS>SUBSTRUCTURE
     1 DRY         1 TEMP              0 ****  ****    0 ROOT
