@<TRIPOS>MOLECULE
DRZ
   22    20     1     0     0
SMALL
bcc


@<TRIPOS>ATOM
      1 P           0.0530    3.7340    1.0110 p4        1 DRZ      1.698200
      2 OP1        -0.0800    3.5440    2.5030 o         1 DRZ     -0.937500
      3 OP2        -0.7720    4.9240    0.5800 os        1 DRZ     -1.231000
      4 OP3         1.5020    3.9730    0.6610 o         1 DRZ     -0.986300
      5 O5'        -0.4620    2.4390    0.2670 os        1 DRZ     -0.565200
      6 C5'         0.2020    1.2200    0.5040 c3        1 DRZ      0.212400
      7 C4'        -0.5590    0.0940   -0.1590 c3        1 DRZ      0.059100
      8 O4'        -0.8740    0.4560   -1.4830 oh        1 DRZ     -0.658800
      9 C3'         0.2940   -1.1540   -0.1670 c3        1 DRZ      0.183100
     10 C2'        -0.5480   -2.3370   -0.5880 c3        1 DRZ     -0.220400
     11 C1'         0.3530   -3.4470   -1.0830 c         1 DRZ      0.582900
     12 O1          0.7500   -3.4410   -2.2330 o         1 DRZ     -0.619100
     13 O3'         0.8090   -1.3790    1.1230 oh        1 DRZ     -0.686800
     14 H5'         1.1080    1.2640    0.1330 h1        1 DRZ     -0.003300
     15 H5''        0.2520    1.0570    1.4690 h1        1 DRZ     -0.003300
     16 H4'        -1.3830   -0.0790    0.3370 h1        1 DRZ      0.074700
     17 H4'O       -1.7380    0.6570   -1.5370 ho        1 DRZ      0.405000
     18 H3'         1.0330   -1.0400   -0.7980 h1        1 DRZ      0.015700
     19 H2'        -1.1560   -2.0670   -1.3040 hc        1 DRZ      0.072700
     20 H2''       -1.0680   -2.6560    0.1770 hc        1 DRZ      0.072700
     21 H1'         0.6160   -4.1700   -0.4790 h4        1 DRZ      0.014200
     22 HO3'        1.6700   -1.5910    1.0660 ho        1 DRZ      0.519000
@<TRIPOS>BOND
     1    1    2 1   
     2    1    4 2   
     3    1    5 1   
     4    5    6 1   
     5    6    7 1   
     6    6   14 1   
     7    6   15 1   
     8    7    8 1   
     9    7    9 1   
    10    7   16 1   
    11    8   17 1   
    12    9   10 1   
    13    9   13 1   
    14    9   18 1   
    15   10   11 1   
    16   10   19 1   
    17   10   20 1   
    18   11   12 2   
    19   11   21 1   
    20   13   22 1   
@<TRIPOS>SUBSTRUCTURE
     1 DRZ         1 TEMP              0 ****  ****    0 ROOT
