@<TRIPOS>MOLECULE
DRZ
   22    21     1     0     0
SMALL
bcc


@<TRIPOS>ATOM
      1 P          -0.8520   -4.0500   -1.4480 p5        1 DRZ      1.329900
      2 OP1        -1.8880   -5.0620   -1.8270 o         1 DRZ     -0.928833
      3 OP2         0.4920   -4.1390   -2.1070 o         1 DRZ     -0.928833
      4 OP3        -1.3380   -2.6360   -1.1900 o         1 DRZ     -0.928833
      5 O5'        -0.4710   -4.4630    0.2110 os        1 DRZ     -0.565200
      6 C5'         0.2520   -3.4880    0.8400 c3        1 DRZ      0.212400
      7 C4'        -0.6390   -2.6750    1.8180 c3        1 DRZ      0.059100
      8 O4'        -0.5210   -3.1720    3.1550 oh        1 DRZ     -0.658800
      9 C3'        -0.2440   -1.1930    1.8360 c3        1 DRZ      0.183100
     10 C2'        -1.0710   -0.4430    2.8900 c3        1 DRZ     -0.220400
     11 C1'        -0.7420    1.0090    2.9100 c         1 DRZ      0.582900
     12 O1         -0.8180    1.7220    3.9200 o         1 DRZ     -0.619100
     13 O3'        -0.4310   -0.5610    0.5910 oh        1 DRZ     -0.686800
     14 H5'         0.7220   -2.7830    0.0970 h1        1 DRZ     -0.003300
     15 H5''        1.0760   -3.9600    1.4590 h1        1 DRZ     -0.003300
     16 H4'        -1.7170   -2.7600    1.5040 h1        1 DRZ      0.074700
     17 H4'O       -0.4940   -4.1310    3.0620 ho        1 DRZ      0.405000
     18 H3'         0.8490   -1.0950    2.0990 h1        1 DRZ      0.015700
     19 H2'        -2.1580   -0.5450    2.6270 hc        1 DRZ      0.072700
     20 H2''       -0.9090   -0.9160    3.8920 hc        1 DRZ      0.072700
     21 H1'        -0.4250    1.4360    1.9290 h4        1 DRZ      0.014200
     22 HO3'       -0.7820   -1.2160   -0.0690 ho        1 DRZ      0.519000
@<TRIPOS>BOND
     1    1    2 1   
     2    1    3 1   
     3    1    4 1   
     4    1    5 1   
     5    5    6 1   
     6    6    7 1   
     7    6   14 1   
     8    6   15 1   
     9    7    8 1   
    10    7    9 1   
    11    7   16 1   
    12    8   17 1   
    13    9   10 1   
    14    9   13 1   
    15    9   18 1   
    16   10   11 1   
    17   10   19 1   
    18   10   20 1   
    19   11   12 2   
    20   11   21 1   
    21   13   22 1   
@<TRIPOS>SUBSTRUCTURE
     1 DRZ         1 TEMP              0 ****  ****    0 ROOT
