@<TRIPOS>MOLECULE
DS0
   17    17     1     0     0
SMALL
bcc


@<TRIPOS>ATOM
      1 O11         1.3100    1.2180   -0.3170 o         1 DS0     -0.820000
      2 P8          2.1660    0.0500   -0.5330 p5        1 DS0      1.446800
      3 O9          2.4700   -0.7230    0.8610 oh        1 DS0     -0.760400
      4 O10         3.4160   -0.0550   -1.3120 o         1 DS0     -0.820000
      5 O7          1.2830   -1.2590   -1.1650 os        1 DS0     -0.551000
      6 C3          1.1640   -1.4580   -2.4760 c2        1 DS0      0.550600
      7 N2          0.1690   -1.0370   -3.2500 n2        1 DS0     -0.460200
      8 O1          0.2860   -1.5290   -4.4750 os        1 DS0     -0.181300
      9 C5          1.4450   -2.4180   -4.6210 c3        1 DS0      0.078400
     10 C4          2.1340   -2.4210   -3.2330 c3        1 DS0      0.068200
     11 N6          3.5290   -2.0750   -3.2770 n3        1 DS0     -0.891800
     12 H4          2.0380   -3.4380   -2.7580 h1        1 DS0      0.065700
     13 H51C        2.0660   -1.9960   -5.4440 h1        1 DS0      0.050200
     14 H52C        1.0460   -3.4210   -4.8940 h1        1 DS0      0.050200
     15 H61N        3.9260   -2.1520   -2.3570 hn        1 DS0      0.372300
     16 H62N        3.6410   -1.1170   -3.5610 hn        1 DS0      0.372300
     17 H63         3.0860   -1.4380    0.7520 ho        1 DS0      0.429000
@<TRIPOS>BOND
     1    1    2 1   
     2    2    3 1   
     3    2    4 1   
     4    2    5 1   
     5    3   17 1   
     6    5    6 1   
     7    6    7 2   
     8    6   10 1   
     9    7    8 1   
    10    8    9 1   
    11    9   10 1   
    12    9   13 1   
    13    9   14 1   
    14   10   11 1   
    15   10   12 1   
    16   11   15 1   
    17   11   16 1   
@<TRIPOS>SUBSTRUCTURE
     1 DS0         1 TEMP              0 ****  ****    0 ROOT
