@<TRIPOS>MOLECULE
DS0
   17    17     1     0     0
SMALL
bcc


@<TRIPOS>ATOM
      1 O11         1.5510    1.2370   -0.2710 o         1 DS0     -0.820000
      2 P8          2.2730   -0.0170   -0.4900 p5        1 DS0      1.446800
      3 O9          2.4370   -0.8510    0.8920 oh        1 DS0     -0.760400
      4 O10         3.5300   -0.2480   -1.2300 o         1 DS0     -0.820000
      5 O7          1.2690   -1.2000   -1.1860 os        1 DS0     -0.551000
      6 C3          1.1740   -1.3540   -2.5050 c2        1 DS0      0.550600
      7 N2          0.2620   -0.8020   -3.2980 n2        1 DS0     -0.460200
      8 O1          0.3640   -1.2760   -4.5320 os        1 DS0     -0.181300
      9 C5          1.4170   -2.2890   -4.6640 c3        1 DS0      0.078400
     10 C4          2.0530   -2.4050   -3.2550 c3        1 DS0      0.068200
     11 N6          3.4790   -2.2210   -3.2450 n8        1 DS0     -0.891800
     12 H4          1.8240   -3.4140   -2.8110 h1        1 DS0      0.065700
     13 H51C        0.9160   -3.2340   -4.9770 h1        1 DS0      0.050200
     14 H52C        2.1120   -1.9230   -5.4550 h1        1 DS0      0.050200
     15 H61N        3.8320   -2.3650   -2.3150 hn        1 DS0      0.372300
     16 H62N        3.7110   -1.2760   -3.5000 hn        1 DS0      0.372300
     17 H63         2.9700   -1.6300    0.7840 ho        1 DS0      0.429000
@<TRIPOS>BOND
     1    1    2 1   
     2    2    3 1   
     3    2    4 1   
     4    2    5 1   
     5    3   17 1   
     6    5    6 1   
     7    6    7 2   
     8    6   10 1   
     9    7    8 1   
    10    8    9 1   
    11    9   10 1   
    12    9   13 1   
    13    9   14 1   
    14   10   11 1   
    15   10   12 1   
    16   11   15 1   
    17   11   16 1   
@<TRIPOS>SUBSTRUCTURE
     1 DS0         1 TEMP              0 ****  ****    0 ROOT
