@<TRIPOS>MOLECULE
DS2
   69    65     1     0     0
SMALL
bcc


@<TRIPOS>ATOM
      1 C1         -1.2940   -1.5050   -5.3510 c1        1 DS2      0.118000
      2 O1         -1.8910   -2.9750   -9.4500 o         1 DS2     -0.555000
      3 C2         -1.7910   -2.0370   -4.1650 c1        1 DS2     -0.115000
      4 O2         -3.8310   -2.1350   -8.8990 o         1 DS2     -0.555000
      5 C3         -1.0840   -1.8660   -2.9700 c1        1 DS2     -0.104000
      6 C4          0.1160   -1.1640   -2.9660 c1        1 DS2     -0.141000
      7 C5          0.6140   -0.6300   -4.1570 c1        1 DS2     -0.096000
      8 C6         -0.0920   -0.8010   -5.3490 c1        1 DS2     -0.226000
      9 C10         1.0210   -1.1550   -1.6570 c3        1 DS2      0.052000
     10 C11         0.2830   -0.4160   -0.5280 c2        1 DS2     -0.075000
     11 C12         2.3540   -0.4350   -1.9550 c3        1 DS2     -0.148000
     12 C13         1.3070   -2.6110   -1.2180 c3        1 DS2     -0.148000
     13 C14         0.0480   -3.1990   -0.5250 c3        1 DS2     -0.214000
     14 C20         3.4570   -1.4700   -2.1700 c3        1 DS2     -0.214000
     15 C26         0.7980   -0.9440    0.6650 c2        1 DS2     -0.109000
     16 C27         1.0130   -0.1080    1.7630 c1        1 DS2     -0.102000
     17 C28         0.7160    1.2590    1.6730 c1        1 DS2      0.061000
     18 C29         0.2030    1.7830    0.4820 c1        1 DS2     -0.191000
     19 C30        -0.0130    0.9420   -0.6190 c1        1 DS2     -0.089000
     20 C34        -3.0720   -2.8410   -4.2790 c3        1 DS2     -0.166000
     21 C38         1.5730   -0.6930    3.0840 c3        1 DS2     -0.161000
     22 O42         1.1300    2.1570    2.7340 os        1 DS2     -0.237000
     23 C43         0.0640    2.5230    3.6500 c3        1 DS2     -0.060000
     24 C44         0.6580    2.8620    5.0090 c3        1 DS2      0.039000
     25 O47         1.3870    1.7700    5.4820 oh        1 DS2     -0.333000
     26 C48        -0.4670    3.1900    5.9930 c3        1 DS2     -0.048000
     27 C50        -1.0760    4.5450    5.6400 c3        1 DS2     -0.206000
     28 C54         0.0920    3.2400    7.3950 c3        1 DS2     -0.206000
     29 C58        -1.5420    2.1130    5.9130 c3        1 DS2     -0.206000
     30 O62        -1.6340   -2.2110   -6.5380 os        1 DS2     -0.168000
     31 C63        -1.9170   -1.3700   -7.6470 c3        1 DS2     -0.112000
     32 C64        -2.5820   -2.1870   -8.7450 c2        1 DS2      0.345000
     33 H3         -1.4340   -2.2400   -2.1370 ha        1 DS2      0.126000
     34 H5          1.4450   -0.1160   -4.1520 ha        1 DS2      0.119000
     35 H6          0.2270   -0.3670   -6.1790 ha        1 DS2      0.142000
     36 H12         2.2570    0.1100   -2.7620 hc        1 DS2      0.079000
     37 H12A        2.5920    0.1420   -1.1950 hc        1 DS2      0.079000
     38 H13         1.5290   -3.1500   -2.0020 hc        1 DS2      0.079000
     39 H13A        2.0590   -2.6210   -0.5920 hc        1 DS2      0.079000
     40 H14        -0.2440   -4.0100   -1.0060 hc        1 DS2      0.074000
     41 H14A        0.2640   -3.4300    0.4090 hc        1 DS2      0.074000
     42 H14B       -0.6720   -2.5370   -0.5390 hc        1 DS2      0.074000
     43 H20         3.0550   -2.3460   -2.3380 hc        1 DS2      0.074000
     44 H20A        4.0230   -1.5170   -1.3690 hc        1 DS2      0.074000
     45 H20B        4.0070   -1.2080   -2.9450 hc        1 DS2      0.074000
     46 H26         1.0070   -1.9030    0.7280 ha        1 DS2      0.134000
     47 H29         0.0560    2.7490    0.3970 ha        1 DS2      0.136000
     48 H30        -0.3740    1.3120   -1.4560 ha        1 DS2      0.159000
     49 H34        -3.7740   -2.2820   -4.6740 hc        1 DS2      0.083667
     50 H34A       -2.9170   -3.6240   -4.8510 hc        1 DS2      0.083667
     51 H34B       -3.3510   -3.1360   -3.3910 hc        1 DS2      0.083667
     52 H38         1.2660   -1.6260    3.1880 hc        1 DS2      0.078333
     53 H38A        2.5540   -0.6730    3.0610 hc        1 DS2      0.078333
     54 H38B        1.2520   -0.1560    3.8440 hc        1 DS2      0.078333
     55 H43        -0.4160    3.3030    3.2990 h1        1 DS2      0.094500
     56 H43A       -0.5540    1.7760    3.7430 h1        1 DS2      0.094500
     57 H44         1.2500    3.6360    4.9220 h1        1 DS2      0.081000
     58 HO47        2.2410    2.0020    5.5750 ho        1 DS2      0.216000
     59 H50        -1.5530    4.4760    4.7920 hc        1 DS2      0.077667
     60 H50A       -1.7030    4.8180    6.3490 hc        1 DS2      0.077667
     61 H50B       -0.3620    5.2150    5.5600 hc        1 DS2      0.077667
     62 H54         0.8050    3.9170    7.4390 hc        1 DS2      0.077667
     63 H54A       -0.6210    3.4750    8.0220 hc        1 DS2      0.077667
     64 H54B        0.4590    2.3630    7.6310 hc        1 DS2      0.077667
     65 H58        -2.2460    2.3010    6.5770 hc        1 DS2      0.077667
     66 H58A       -1.9330    2.1090    5.0160 hc        1 DS2      0.077667
     67 H58B       -1.1430    1.2400    6.0990 hc        1 DS2      0.077667
     68 H63        -1.0820   -0.9840   -7.9870 h1        1 DS2      0.061000
     69 H63A       -2.5190   -0.6510   -7.3660 h1        1 DS2      0.061000
@<TRIPOS>BOND
     1    1    8 1   
     2    1   30 1   
     3    2   32 1   
     4    3    5 1   
     5    3   20 1   
     6    4   32 1   
     7    5   33 1   
     8    6    7 1   
     9    6    9 1   
    10    7   34 1   
    11    8   35 1   
    12    9   10 1   
    13    9   11 1   
    14    9   12 1   
    15   10   15 1   
    16   10   19 1   
    17   11   14 1   
    18   11   36 1   
    19   11   37 1   
    20   12   13 1   
    21   12   38 1   
    22   12   39 1   
    23   13   40 1   
    24   13   41 1   
    25   13   42 1   
    26   14   43 1   
    27   14   44 1   
    28   14   45 1   
    29   15   16 1   
    30   15   46 1   
    31   16   21 1   
    32   17   18 1   
    33   17   22 1   
    34   18   47 1   
    35   19   48 1   
    36   20   49 1   
    37   20   50 1   
    38   20   51 1   
    39   21   52 1   
    40   21   53 1   
    41   21   54 1   
    42   22   23 1   
    43   23   24 1   
    44   23   55 1   
    45   23   56 1   
    46   24   25 1   
    47   24   26 1   
    48   24   57 1   
    49   25   58 1   
    50   26   27 1   
    51   26   28 1   
    52   26   29 1   
    53   27   59 1   
    54   27   60 1   
    55   27   61 1   
    56   28   62 1   
    57   28   63 1   
    58   28   64 1   
    59   29   65 1   
    60   29   66 1   
    61   29   67 1   
    62   30   31 1   
    63   31   32 1   
    64   31   68 1   
    65   31   69 1   
@<TRIPOS>SUBSTRUCTURE
     1 DS2         1 TEMP              0 ****  ****    0 ROOT
