@<TRIPOS>MOLECULE
DS2
   69    70     1     0     0
SMALL
bcc


@<TRIPOS>ATOM
      1 C1         -4.4480    0.3640    0.0950 ca        1 DS2      0.162100
      2 O1         -7.8850    2.5170    1.8170 o         1 DS2     -0.820300
      3 C2         -3.2320    0.8930   -0.4130 ca        1 DS2     -0.123300
      4 O2         -8.3690    2.1520   -0.3420 o         1 DS2     -0.820300
      5 C3         -2.1380    0.0480   -0.5560 ca        1 DS2     -0.104000
      6 C4         -2.1970   -1.3100   -0.2020 ca        1 DS2     -0.144300
      7 C5         -3.4080   -1.8140    0.2790 ca        1 DS2     -0.096000
      8 C6         -4.5230   -0.9940    0.4340 ca        1 DS2     -0.224000
      9 C10        -1.0030   -2.2050   -0.4250 c3        1 DS2      0.062600
     10 C11         0.3070   -1.4900   -0.1900 ca        1 DS2     -0.078300
     11 C12        -1.0050   -3.4360    0.5090 c3        1 DS2     -0.066400
     12 C13        -1.1170   -2.7640   -1.8590 c3        1 DS2     -0.066400
     13 C14        -0.9950   -1.7270   -2.9450 c3        1 DS2     -0.097600
     14 C20        -1.0260   -3.1040    1.9780 c3        1 DS2     -0.097600
     15 C26         0.4030   -0.5070    0.8080 ca        1 DS2     -0.093000
     16 C27         1.6050    0.1410    1.0910 ca        1 DS2     -0.096300
     17 C28         2.7540   -0.2200    0.3530 ca        1 DS2      0.106100
     18 C29         2.6820   -1.2050   -0.6350 ca        1 DS2     -0.207000
     19 C30         1.4640   -1.8330   -0.8950 ca        1 DS2     -0.109000
     20 C34        -3.1610    2.3240   -0.7800 c3        1 DS2     -0.039800
     21 C38         1.6870    1.1770    2.1440 c3        1 DS2     -0.043800
     22 O42         3.9180    0.4440    0.7060 os        1 DS2     -0.323900
     23 C43         5.0110    0.2890   -0.2010 c3        1 DS2      0.098400
     24 C44         6.0950    1.2620    0.2800 c3        1 DS2      0.142100
     25 O47         5.7900    2.5890   -0.1100 oh        1 DS2     -0.582800
     26 C48         7.5010    0.8430   -0.2040 c3        1 DS2     -0.086000
     27 C50         7.5230    0.6430   -1.7110 c3        1 DS2     -0.087767
     28 C54         8.4830    1.9470    0.1690 c3        1 DS2     -0.087767
     29 C58         7.9270   -0.4430    0.4890 c3        1 DS2     -0.087767
     30 O62        -5.4770    1.2560    0.2090 os        1 DS2     -0.285900
     31 C63        -6.7200    0.7370    0.6980 c3        1 DS2     -0.011600
     32 C64        -7.7330    1.9210    0.7190 c         1 DS2      0.925600
     33 H3         -1.1990    0.4580   -0.9640 ha        1 DS2      0.127000
     34 H5         -3.5050   -2.8780    0.5440 ha        1 DS2      0.117000
     35 H6         -5.4600   -1.4180    0.8200 ha        1 DS2      0.142000
     36 H12        -1.8850   -4.0820    0.2560 hc        1 DS2      0.033950
     37 H12A       -0.0830   -4.0370    0.2820 hc        1 DS2      0.033950
     38 H13        -0.3420   -3.5620   -2.0080 hc        1 DS2      0.033950
     39 H13A       -2.1200   -3.2630   -1.9450 hc        1 DS2      0.033950
     40 H14        -1.0580   -2.2160   -3.9470 hc        1 DS2      0.037200
     41 H14A       -1.8190   -0.9760   -2.8640 hc        1 DS2      0.037200
     42 H14B       -0.0210   -1.1850   -2.8740 hc        1 DS2      0.037200
     43 H20        -1.0810   -4.0430    2.5800 hc        1 DS2      0.037200
     44 H20A       -0.1010   -2.5490    2.2710 hc        1 DS2      0.037200
     45 H20B       -1.9090   -2.4660    2.2290 hc        1 DS2      0.037200
     46 H26        -0.5000   -0.2350    1.3830 ha        1 DS2      0.158000
     47 H29         3.5700   -1.4970   -1.2100 ha        1 DS2      0.124000
     48 H30         1.4340   -2.6120   -1.6720 ha        1 DS2      0.130000
     49 H34        -3.3390    2.9570    0.1260 hc        1 DS2      0.044367
     50 H34A       -2.1670    2.5870   -1.2180 hc        1 DS2      0.044367
     51 H34B       -3.9640    2.5670   -1.5210 hc        1 DS2      0.044367
     52 H38         2.2320    0.7730    3.0340 hc        1 DS2      0.046367
     53 H38A        2.2560    2.0640    1.7680 hc        1 DS2      0.046367
     54 H38B        0.6700    1.5080    2.4660 hc        1 DS2      0.046367
     55 H43         5.3760   -0.7700   -0.1590 h1        1 DS2      0.041700
     56 H43A        4.6850    0.5380   -1.2450 h1        1 DS2      0.041700
     57 H44         6.0870    1.3080    1.4080 h1        1 DS2      0.095700
     58 HO47        5.6840    2.5950   -1.0690 ho        1 DS2      0.395000
     59 H50         7.2110    1.5800   -2.2320 hc        1 DS2      0.037256
     60 H50A        8.5540    0.3800   -2.0460 hc        1 DS2      0.037256
     61 H50B        6.8320   -0.1810   -2.0110 hc        1 DS2      0.037256
     62 H54         8.5130    2.0740    1.2780 hc        1 DS2      0.037256
     63 H54A        9.5070    1.6920   -0.1930 hc        1 DS2      0.037256
     64 H54B        8.1650    2.9150   -0.2890 hc        1 DS2      0.037256
     65 H58         7.3360   -1.3150    0.1200 hc        1 DS2      0.037256
     66 H58A        9.0070   -0.6430    0.2840 hc        1 DS2      0.037256
     67 H58B        7.7840   -0.3550    1.5930 hc        1 DS2      0.037256
     68 H63        -7.0830   -0.0680    0.0090 h1        1 DS2      0.021200
     69 H63A       -6.5720    0.3340    1.7310 h1        1 DS2      0.021200
@<TRIPOS>BOND
     1    1    3 ar  
     2    1    8 ar  
     3    1   30 1   
     4    2   32 1   
     5    3    5 ar  
     6    3   20 1   
     7    4   32 1   
     8    5    6 ar  
     9    5   33 1   
    10    6    7 ar  
    11    6    9 1   
    12    7    8 ar  
    13    7   34 1   
    14    8   35 1   
    15    9   10 1   
    16    9   11 1   
    17    9   12 1   
    18   10   15 ar  
    19   10   19 ar  
    20   11   14 1   
    21   11   36 1   
    22   11   37 1   
    23   12   13 1   
    24   12   38 1   
    25   12   39 1   
    26   13   40 1   
    27   13   41 1   
    28   13   42 1   
    29   14   43 1   
    30   14   44 1   
    31   14   45 1   
    32   15   16 ar  
    33   15   46 1   
    34   16   17 ar  
    35   16   21 1   
    36   17   18 ar  
    37   17   22 1   
    38   18   19 ar  
    39   18   47 1   
    40   19   48 1   
    41   20   49 1   
    42   20   50 1   
    43   20   51 1   
    44   21   52 1   
    45   21   53 1   
    46   21   54 1   
    47   22   23 1   
    48   23   24 1   
    49   23   55 1   
    50   23   56 1   
    51   24   25 1   
    52   24   26 1   
    53   24   57 1   
    54   25   58 1   
    55   26   27 1   
    56   26   28 1   
    57   26   29 1   
    58   27   59 1   
    59   27   60 1   
    60   27   61 1   
    61   28   62 1   
    62   28   63 1   
    63   28   64 1   
    64   29   65 1   
    65   29   66 1   
    66   29   67 1   
    67   30   31 1   
    68   31   32 1   
    69   31   68 1   
    70   31   69 1   
@<TRIPOS>SUBSTRUCTURE
     1 DS2         1 TEMP              0 ****  ****    0 ROOT
