@<TRIPOS>MOLECULE
DS2
   69    70     1     0     0
SMALL
bcc


@<TRIPOS>ATOM
      1 C1         -0.1040    0.1380   -0.0680 ca        1 DS2      0.162100
      2 O1         -3.2280   -0.2100   -3.1730 o         1 DS2     -0.819800
      3 C2          1.2050   -0.4110   -0.0510 ca        1 DS2     -0.123300
      4 O2         -2.1200    1.7030   -3.5500 o         1 DS2     -0.819800
      5 C3          1.8860   -0.4930    1.1580 ca        1 DS2     -0.104000
      6 C4          1.3200   -0.0390    2.3610 ca        1 DS2     -0.145300
      7 C5          0.0220    0.4780    2.3260 ca        1 DS2     -0.096000
      8 C6         -0.6860    0.5740    1.1300 ca        1 DS2     -0.224000
      9 C10         2.0740   -0.1920    3.6590 c3        1 DS2      0.062600
     10 C11         3.5620    0.0040    3.4860 ca        1 DS2     -0.075300
     11 C12         1.6190    0.8230    4.7300 c3        1 DS2     -0.066900
     12 C13         1.7290   -1.5870    4.2240 c3        1 DS2     -0.066900
     13 C14         2.2210   -2.7390    3.3900 c3        1 DS2     -0.097600
     14 C20         1.7610    2.2650    4.3230 c3        1 DS2     -0.097600
     15 C26         4.0450    0.9280    2.5450 ca        1 DS2     -0.093000
     16 C27         5.4090    1.1740    2.3880 ca        1 DS2     -0.099300
     17 C28         6.3160    0.4790    3.2160 ca        1 DS2      0.106100
     18 C29         5.8560   -0.4330    4.1680 ca        1 DS2     -0.199000
     19 C30         4.4860   -0.6610    4.2980 ca        1 DS2     -0.109000
     20 C34         1.8100   -0.8860   -1.3150 c3        1 DS2     -0.039800
     21 C38         5.8970    2.1500    1.3890 c3        1 DS2     -0.040800
     22 O42         7.6540    0.7990    3.0410 os        1 DS2     -0.348900
     23 C43         8.5880   -0.1610    3.5480 c3        1 DS2      0.090400
     24 C44         9.9360    0.2470    2.9410 c3        1 DS2      0.150100
     25 O47         9.8840    0.1550    1.5230 oh        1 DS2     -0.604800
     26 C48        11.0970   -0.6460    3.4240 c3        1 DS2     -0.048000
     27 C50        10.8660   -2.0940    3.0260 c3        1 DS2     -0.087767
     28 C54        12.3800   -0.1450    2.7720 c3        1 DS2     -0.087767
     29 C58        11.2320   -0.5380    4.9350 c3        1 DS2     -0.087767
     30 O62        -0.7060    0.1910   -1.2940 os        1 DS2     -0.284900
     31 C63        -2.0210    0.7590   -1.3350 c3        1 DS2     -0.011600
     32 C64        -2.4790    0.7390   -2.8250 c         1 DS2      0.925600
     33 H3          2.8970   -0.9310    1.1710 ha        1 DS2      0.126000
     34 H5         -0.4700    0.8190    3.2490 ha        1 DS2      0.117000
     35 H6         -1.7030    0.9910    1.1330 ha        1 DS2      0.142000
     36 H12         0.5520    0.6100    5.0020 hc        1 DS2      0.034200
     37 H12A        2.2330    0.6410    5.6540 hc        1 DS2      0.034200
     38 H13         2.1340   -1.6730    5.2670 hc        1 DS2      0.034200
     39 H13A        0.6090   -1.6470    4.3020 hc        1 DS2      0.034200
     40 H14         1.7490   -2.7200    2.3770 hc        1 DS2      0.037367
     41 H14A        3.3300   -2.6940    3.2580 hc        1 DS2      0.037367
     42 H14B        1.9620   -3.7060    3.8850 hc        1 DS2      0.037367
     43 H20         2.8340    2.5240    4.1490 hc        1 DS2      0.037367
     44 H20A        1.1970    2.4710    3.3800 hc        1 DS2      0.037367
     45 H20B        1.3630    2.9300    5.1280 hc        1 DS2      0.037367
     46 H26         3.3260    1.4720    1.9070 ha        1 DS2      0.159000
     47 H29         6.5590   -0.9720    4.8180 ha        1 DS2      0.128000
     48 H30         4.1450   -1.3780    5.0600 ha        1 DS2      0.132000
     49 H34         1.2070   -1.7340   -1.7290 hc        1 DS2      0.044700
     50 H34A        1.7940   -0.0640   -2.0760 hc        1 DS2      0.044700
     51 H34B        2.8620   -1.2260   -1.1640 hc        1 DS2      0.044700
     52 H38         6.8260    1.7690    0.8950 hc        1 DS2      0.044033
     53 H38A        5.1250    2.3440    0.6040 hc        1 DS2      0.044033
     54 H38B        6.1470    3.1190    1.8910 hc        1 DS2      0.044033
     55 H43         8.2960   -1.1930    3.2260 h1        1 DS2      0.051200
     56 H43A        8.6160   -0.0920    4.6660 h1        1 DS2      0.051200
     57 H44        10.1520    1.3170    3.2270 h1        1 DS2      0.044700
     58 HO47        9.0880    0.6300    1.2460 ho        1 DS2      0.420000
     59 H50        10.6490   -2.1560    1.9310 hc        1 DS2      0.038033
     60 H50A       11.7740   -2.7030    3.2510 hc        1 DS2      0.038033
     61 H50B       10.0030   -2.5260    3.5870 hc        1 DS2      0.038033
     62 H54        12.5860    0.9070    3.0810 hc        1 DS2      0.038033
     63 H54A       13.2430   -0.7840    3.0780 hc        1 DS2      0.038033
     64 H54B       12.2790   -0.1790    1.6600 hc        1 DS2      0.038033
     65 H58        10.3770   -1.0380    5.4490 hc        1 DS2      0.038033
     66 H58A       11.2640    0.5320    5.2500 hc        1 DS2      0.038033
     67 H58B       12.1770   -1.0340    5.2650 hc        1 DS2      0.038033
     68 H63        -2.7110    0.1400   -0.7080 h1        1 DS2      0.021700
     69 H63A       -1.9840    1.8120   -0.9580 h1        1 DS2      0.021700
@<TRIPOS>BOND
     1    1    3 ar  
     2    1    8 ar  
     3    1   30 1   
     4    2   32 1   
     5    3    5 ar  
     6    3   20 1   
     7    4   32 1   
     8    5    6 ar  
     9    5   33 1   
    10    6    7 ar  
    11    6    9 1   
    12    7    8 ar  
    13    7   34 1   
    14    8   35 1   
    15    9   10 1   
    16    9   11 1   
    17    9   12 1   
    18   10   15 ar  
    19   10   19 ar  
    20   11   14 1   
    21   11   36 1   
    22   11   37 1   
    23   12   13 1   
    24   12   38 1   
    25   12   39 1   
    26   13   40 1   
    27   13   41 1   
    28   13   42 1   
    29   14   43 1   
    30   14   44 1   
    31   14   45 1   
    32   15   16 ar  
    33   15   46 1   
    34   16   17 ar  
    35   16   21 1   
    36   17   18 ar  
    37   17   22 1   
    38   18   19 ar  
    39   18   47 1   
    40   19   48 1   
    41   20   49 1   
    42   20   50 1   
    43   20   51 1   
    44   21   52 1   
    45   21   53 1   
    46   21   54 1   
    47   22   23 1   
    48   23   24 1   
    49   23   55 1   
    50   23   56 1   
    51   24   25 1   
    52   24   26 1   
    53   24   57 1   
    54   25   58 1   
    55   26   27 1   
    56   26   28 1   
    57   26   29 1   
    58   27   59 1   
    59   27   60 1   
    60   27   61 1   
    61   28   62 1   
    62   28   63 1   
    63   28   64 1   
    64   29   65 1   
    65   29   66 1   
    66   29   67 1   
    67   30   31 1   
    68   31   32 1   
    69   31   68 1   
    70   31   69 1   
@<TRIPOS>SUBSTRUCTURE
     1 DS2         1 TEMP              0 ****  ****    0 ROOT
