@<TRIPOS>MOLECULE
DS2
   69    70     1     0     0
SMALL
bcc


@<TRIPOS>ATOM
      1 C1         -0.1060    0.1290   -0.0700 ca        1 DS2      0.162100
      2 O1         -3.2200   -0.2450   -3.1760 o         1 DS2     -0.819800
      3 C2          1.2030   -0.4200   -0.0500 ca        1 DS2     -0.123300
      4 O2         -2.1330    1.6790   -3.5570 o         1 DS2     -0.819800
      5 C3          1.8830   -0.4970    1.1600 ca        1 DS2     -0.104000
      6 C4          1.3170   -0.0370    2.3610 ca        1 DS2     -0.145300
      7 C5          0.0190    0.4800    2.3220 ca        1 DS2     -0.096000
      8 C6         -0.6880    0.5710    1.1260 ca        1 DS2     -0.224000
      9 C10         2.0710   -0.1840    3.6590 c3        1 DS2      0.062600
     10 C11         3.5600    0.0120    3.4850 ca        1 DS2     -0.075300
     11 C12         1.6170    0.8370    4.7250 c3        1 DS2     -0.066900
     12 C13         1.7260   -1.5750    4.2310 c3        1 DS2     -0.066900
     13 C14         2.2180   -2.7310    3.4030 c3        1 DS2     -0.097600
     14 C20         1.7580    2.2770    4.3110 c3        1 DS2     -0.097600
     15 C26         4.0430    0.9310    2.5400 ca        1 DS2     -0.093000
     16 C27         5.4070    1.1760    2.3830 ca        1 DS2     -0.099300
     17 C28         6.3130    0.4840    3.2140 ca        1 DS2      0.106100
     18 C29         5.8530   -0.4230    4.1700 ca        1 DS2     -0.199000
     19 C30         4.4830   -0.6500    4.3010 ca        1 DS2     -0.109000
     20 C34         1.8080   -0.9010   -1.3120 c3        1 DS2     -0.039800
     21 C38         5.8950    2.1470    1.3790 c3        1 DS2     -0.040800
     22 O42         7.6510    0.8040    3.0380 os        1 DS2     -0.348900
     23 C43         8.5850   -0.1540    3.5490 c3        1 DS2      0.090400
     24 C44         9.9330    0.2500    2.9400 c3        1 DS2      0.150100
     25 O47         9.8810    0.1520    1.5230 oh        1 DS2     -0.604800
     26 C48        11.0930   -0.6420    3.4260 c3        1 DS2     -0.048000
     27 C50        10.8620   -2.0920    3.0340 c3        1 DS2     -0.087767
     28 C54        12.3770   -0.1440    2.7720 c3        1 DS2     -0.087767
     29 C58        11.2290   -0.5280    4.9370 c3        1 DS2     -0.087767
     30 O62        -0.7070    0.1750   -1.2960 os        1 DS2     -0.284900
     31 C63        -2.0230    0.7410   -1.3400 c3        1 DS2     -0.011600
     32 C64        -2.4810    0.7130   -2.8290 c         1 DS2      0.925600
     33 H3          2.8950   -0.9350    1.1750 ha        1 DS2      0.126000
     34 H5         -0.4720    0.8260    3.2440 ha        1 DS2      0.117000
     35 H6         -1.7050    0.9870    1.1260 ha        1 DS2      0.142000
     36 H12         2.2300    0.6600    5.6500 hc        1 DS2      0.034200
     37 H12A        0.5490    0.6260    4.9970 hc        1 DS2      0.034200
     38 H13         0.6060   -1.6350    4.3100 hc        1 DS2      0.034200
     39 H13A        2.1300   -1.6570    5.2750 hc        1 DS2      0.034200
     40 H14         1.7450   -2.7180    2.3900 hc        1 DS2      0.037367
     41 H14A        1.9580   -3.6960    3.9030 hc        1 DS2      0.037367
     42 H14B        3.3260   -2.6880    3.2710 hc        1 DS2      0.037367
     43 H20         1.1950    2.4780    3.3660 hc        1 DS2      0.037367
     44 H20A        2.8320    2.5350    4.1360 hc        1 DS2      0.037367
     45 H20B        1.3600    2.9460    5.1120 hc        1 DS2      0.037367
     46 H26         3.3240    1.4720    1.9000 ha        1 DS2      0.159000
     47 H29         6.5550   -0.9590    4.8230 ha        1 DS2      0.128000
     48 H30         4.1410   -1.3630    5.0660 ha        1 DS2      0.132000
     49 H34         2.8580   -1.2470   -1.1580 hc        1 DS2      0.044700
     50 H34A        1.2020   -1.7470   -1.7250 hc        1 DS2      0.044700
     51 H34B        1.7990   -0.0810   -2.0740 hc        1 DS2      0.044700
     52 H38         5.1230    2.3380    0.5930 hc        1 DS2      0.044033
     53 H38A        6.8240    1.7630    0.8870 hc        1 DS2      0.044033
     54 H38B        6.1450    3.1180    1.8760 hc        1 DS2      0.044033
     55 H43         8.6130   -0.0810    4.6660 h1        1 DS2      0.051200
     56 H43A        8.2930   -1.1880    3.2310 h1        1 DS2      0.051200
     57 H44        10.1500    1.3210    3.2210 h1        1 DS2      0.044700
     58 HO47        9.0850    0.6260    1.2440 ho        1 DS2      0.420000
     59 H50         9.9990   -2.5210    3.5980 hc        1 DS2      0.038033
     60 H50A       11.7700   -2.7000    3.2620 hc        1 DS2      0.038033
     61 H50B       10.6450   -2.1570    1.9400 hc        1 DS2      0.038033
     62 H54        12.2760   -0.1820    1.6610 hc        1 DS2      0.038033
     63 H54A       13.2400   -0.7820    3.0810 hc        1 DS2      0.038033
     64 H54B       12.5830    0.9090    3.0780 hc        1 DS2      0.038033
     65 H58        12.1730   -1.0240    5.2690 hc        1 DS2      0.038033
     66 H58A       10.3740   -1.0260    5.4530 hc        1 DS2      0.038033
     67 H58B       11.2610    0.5440    5.2480 hc        1 DS2      0.038033
     68 H63        -2.7120    0.1250   -0.7100 h1        1 DS2      0.021700
     69 H63A       -1.9870    1.7960   -0.9690 h1        1 DS2      0.021700
@<TRIPOS>BOND
     1    1    3 ar  
     2    1    8 ar  
     3    1   30 1   
     4    2   32 1   
     5    3    5 ar  
     6    3   20 1   
     7    4   32 1   
     8    5    6 ar  
     9    5   33 1   
    10    6    7 ar  
    11    6    9 1   
    12    7    8 ar  
    13    7   34 1   
    14    8   35 1   
    15    9   10 1   
    16    9   11 1   
    17    9   12 1   
    18   10   15 ar  
    19   10   19 ar  
    20   11   14 1   
    21   11   36 1   
    22   11   37 1   
    23   12   13 1   
    24   12   38 1   
    25   12   39 1   
    26   13   40 1   
    27   13   41 1   
    28   13   42 1   
    29   14   43 1   
    30   14   44 1   
    31   14   45 1   
    32   15   16 ar  
    33   15   46 1   
    34   16   17 ar  
    35   16   21 1   
    36   17   18 ar  
    37   17   22 1   
    38   18   19 ar  
    39   18   47 1   
    40   19   48 1   
    41   20   49 1   
    42   20   50 1   
    43   20   51 1   
    44   21   52 1   
    45   21   53 1   
    46   21   54 1   
    47   22   23 1   
    48   23   24 1   
    49   23   55 1   
    50   23   56 1   
    51   24   25 1   
    52   24   26 1   
    53   24   57 1   
    54   25   58 1   
    55   26   27 1   
    56   26   28 1   
    57   26   29 1   
    58   27   59 1   
    59   27   60 1   
    60   27   61 1   
    61   28   62 1   
    62   28   63 1   
    63   28   64 1   
    64   29   65 1   
    65   29   66 1   
    66   29   67 1   
    67   30   31 1   
    68   31   32 1   
    69   31   68 1   
    70   31   69 1   
@<TRIPOS>SUBSTRUCTURE
     1 DS2         1 TEMP              0 ****  ****    0 ROOT
