@<TRIPOS>MOLECULE
DS3
   78    79     1     0     0
SMALL
bcc


@<TRIPOS>ATOM
      1 C1         -3.3260    0.0190   -0.2510 ca        1 DS3      0.143100
      2 O1        -10.7570    0.0950    0.5100 o         1 DS3     -0.850800
      3 C2         -2.1380    0.6090   -0.7480 ca        1 DS3     -0.113300
      4 O2        -11.2900    1.9470    1.6370 o         1 DS3     -0.850800
      5 C3         -0.9830   -0.1650   -0.8140 ca        1 DS3     -0.103000
      6 C4         -0.9630   -1.5040   -0.3920 ca        1 DS3     -0.118300
      7 C5         -2.1530   -2.0680    0.0790 ca        1 DS3     -0.098000
      8 C6         -3.3260   -1.3190    0.1560 ca        1 DS3     -0.209000
      9 C10         0.2960   -2.3250   -0.5320 c3        1 DS3      0.058600
     10 C11         1.5440   -1.5060   -0.3010 ca        1 DS3     -0.086300
     11 C12         0.3470   -3.5020    0.4660 c3        1 DS3     -0.067900
     12 C13         0.2630   -2.9630   -1.9380 c3        1 DS3     -0.067900
     13 C14         0.3430   -1.9780   -3.0740 c3        1 DS3     -0.098100
     14 C20         0.2550   -3.1000    1.9130 c3        1 DS3     -0.098100
     15 C26         1.5420   -0.4750    0.6520 ca        1 DS3     -0.096000
     16 C27         2.6860    0.2710    0.9310 ca        1 DS3     -0.097300
     17 C28         3.8780   -0.0370    0.2360 ca        1 DS3      0.112100
     18 C29         3.9030   -1.0690   -0.7050 ca        1 DS3     -0.207000
     19 C30         2.7410   -1.7970   -0.9620 ca        1 DS3     -0.105000
     20 C34        -2.1460    2.0220   -1.1880 c3        1 DS3     -0.039800
     21 C38         2.6680    1.3580    1.9350 c3        1 DS3     -0.043800
     22 O42         4.9740    0.7370    0.5780 os        1 DS3     -0.321900
     23 C43         6.1410    0.5440   -0.2250 c3        1 DS3      0.098400
     24 C44         7.1540    1.5900    0.2570 c3        1 DS3      0.142100
     25 O47         6.8680    2.8580   -0.3060 oh        1 DS3     -0.582800
     26 C48         8.6090    1.1590   -0.0270 c3        1 DS3     -0.086000
     27 C50         8.7970    0.7980   -1.4910 c3        1 DS3     -0.087767
     28 C54         9.5290    2.3230    0.3240 c3        1 DS3     -0.087767
     29 C58         8.9770   -0.0320    0.8450 c3        1 DS3     -0.087767
     30 O62        -4.4220    0.8480   -0.2140 os        1 DS3     -0.330900
     31 C63        -5.6440    0.2590    0.2660 c3        1 DS3      0.126400
     32 C64        -6.6990    1.3480    0.1930 c3        1 DS3     -0.084400
     33 C65        -8.0230    0.8180    0.7010 c3        1 DS3     -0.066400
     34 C66        -9.1120    1.8590    0.6260 c3        1 DS3     -0.195400
     35 C67       -10.4880    1.2490    0.9520 c         1 DS3      0.908600
     36 H3         -0.0600    0.2880   -1.2130 ha        1 DS3      0.136000
     37 H5         -2.1870   -3.1210    0.3960 ha        1 DS3      0.128000
     38 H6         -4.2430   -1.7920    0.5360 ha        1 DS3      0.145000
     39 H12        -0.4780   -4.2230    0.2210 hc        1 DS3      0.037200
     40 H12A        1.3150   -4.0470    0.2980 hc        1 DS3      0.037200
     41 H13         1.0960   -3.7080   -2.0230 hc        1 DS3      0.037200
     42 H13A       -0.6990   -3.5380   -2.0220 hc        1 DS3      0.037200
     43 H14        -0.5370   -1.2890   -3.0610 hc        1 DS3      0.037700
     44 H14A        1.2710   -1.3600   -3.0050 hc        1 DS3      0.037700
     45 H14B        0.3510   -2.5230   -4.0500 hc        1 DS3      0.037700
     46 H20         1.1290   -2.4660    2.2040 hc        1 DS3      0.037700
     47 H20A       -0.6780   -2.5160    2.1080 hc        1 DS3      0.037700
     48 H20B        0.2470   -4.0100    2.5620 hc        1 DS3      0.037700
     49 H26         0.6100   -0.2470    1.1970 ha        1 DS3      0.153000
     50 H29         4.8240   -1.3220   -1.2460 ha        1 DS3      0.128000
     51 H30         2.7880   -2.6110   -1.7000 ha        1 DS3      0.132000
     52 H34        -2.4380    2.6840   -0.3350 hc        1 DS3      0.044367
     53 H34A       -1.1440    2.3380   -1.5660 hc        1 DS3      0.044367
     54 H34B       -2.9020    2.1630   -2.0010 hc        1 DS3      0.044367
     55 H38         3.2770    1.0630    2.8260 hc        1 DS3      0.046700
     56 H38A        3.1210    2.2860    1.5040 hc        1 DS3      0.046700
     57 H38B        1.6270    1.5850    2.2700 hc        1 DS3      0.046700
     58 H43         6.5280   -0.4960   -0.0690 h1        1 DS3      0.042700
     59 H43A        5.8920    0.6990   -1.3080 h1        1 DS3      0.042700
     60 H44         7.0230    1.7580    1.3660 h1        1 DS3      0.097700
     61 HO47        6.9120    2.7680   -1.2660 ho        1 DS3      0.394000
     62 H50         8.5440    1.6680   -2.1440 hc        1 DS3      0.037811
     63 H50A        9.8600    0.5140   -1.6810 hc        1 DS3      0.037811
     64 H50B        8.1460   -0.0640   -1.7740 hc        1 DS3      0.037811
     65 H54         9.4370    2.5700    1.4090 hc        1 DS3      0.037811
     66 H54A       10.5890    2.0580    0.1020 hc        1 DS3      0.037811
     67 H54B        9.2490    3.2270   -0.2690 hc        1 DS3      0.037811
     68 H58         8.4410   -0.9540    0.5170 hc        1 DS3      0.037811
     69 H58A       10.0750   -0.2260    0.7770 hc        1 DS3      0.037811
     70 H58B        8.7190    0.1720    1.9120 hc        1 DS3      0.037811
     71 H63        -5.9180   -0.6110   -0.3860 h1        1 DS3      0.038200
     72 H63A       -5.4950   -0.0890    1.3210 h1        1 DS3      0.038200
     73 H64        -6.3720    2.2290    0.8030 hc        1 DS3      0.044700
     74 H64A       -6.8020    1.6960   -0.8670 hc        1 DS3      0.044700
     75 H65        -8.3420   -0.0750    0.0990 hc        1 DS3      0.047200
     76 H65A       -7.9080    0.4760    1.7630 hc        1 DS3      0.047200
     77 H66        -8.9010    2.6990    1.3330 hc        1 DS3      0.021700
     78 H66A       -9.1650    2.2860   -0.4080 hc        1 DS3      0.021700
@<TRIPOS>BOND
     1    1    3 ar  
     2    1    8 ar  
     3    1   30 1   
     4    2   35 1   
     5    3    5 ar  
     6    3   20 1   
     7    4   35 1   
     8    5    6 ar  
     9    5   36 1   
    10    6    7 ar  
    11    6    9 1   
    12    7    8 ar  
    13    7   37 1   
    14    8   38 1   
    15    9   10 1   
    16    9   11 1   
    17    9   12 1   
    18   10   15 ar  
    19   10   19 ar  
    20   11   14 1   
    21   11   39 1   
    22   11   40 1   
    23   12   13 1   
    24   12   41 1   
    25   12   42 1   
    26   13   43 1   
    27   13   44 1   
    28   13   45 1   
    29   14   46 1   
    30   14   47 1   
    31   14   48 1   
    32   15   16 ar  
    33   15   49 1   
    34   16   17 ar  
    35   16   21 1   
    36   17   18 ar  
    37   17   22 1   
    38   18   19 ar  
    39   18   50 1   
    40   19   51 1   
    41   20   52 1   
    42   20   53 1   
    43   20   54 1   
    44   21   55 1   
    45   21   56 1   
    46   21   57 1   
    47   22   23 1   
    48   23   24 1   
    49   23   58 1   
    50   23   59 1   
    51   24   25 1   
    52   24   26 1   
    53   24   60 1   
    54   25   61 1   
    55   26   27 1   
    56   26   28 1   
    57   26   29 1   
    58   27   62 1   
    59   27   63 1   
    60   27   64 1   
    61   28   65 1   
    62   28   66 1   
    63   28   67 1   
    64   29   68 1   
    65   29   69 1   
    66   29   70 1   
    67   30   31 1   
    68   31   32 1   
    69   31   71 1   
    70   31   72 1   
    71   32   33 1   
    72   32   73 1   
    73   32   74 1   
    74   33   34 1   
    75   33   75 1   
    76   33   76 1   
    77   34   35 1   
    78   34   77 1   
    79   34   78 1   
@<TRIPOS>SUBSTRUCTURE
     1 DS3         1 TEMP              0 ****  ****    0 ROOT
