@<TRIPOS>MOLECULE
DS3
   78    79     1     0     0
SMALL
bcc


@<TRIPOS>ATOM
      1 C1         -0.2010   -0.2030    0.0750 ca        1 DS3      0.144100
      2 O1         -6.8740    0.5490   -3.2080 o         1 DS3     -0.850300
      3 C2          1.1190   -0.7150    0.0740 ca        1 DS3     -0.113300
      4 O2         -6.5290    1.5530   -5.1730 o         1 DS3     -0.850300
      5 C3          1.8380   -0.7150    1.2660 ca        1 DS3     -0.103000
      6 C4          1.2940   -0.2130    2.4590 ca        1 DS3     -0.119300
      7 C5         -0.0170    0.2690    2.4380 ca        1 DS3     -0.097000
      8 C6         -0.7630    0.2830    1.2610 ca        1 DS3     -0.209000
      9 C10         2.0900   -0.2810    3.7410 c3        1 DS3      0.057600
     10 C11         3.5680   -0.0660    3.5090 ca        1 DS3     -0.082300
     11 C12         1.6440    0.7810    4.7690 c3        1 DS3     -0.068400
     12 C13         1.7880   -1.6490    4.3870 c3        1 DS3     -0.068400
     13 C14         2.2740   -2.8360    3.5980 c3        1 DS3     -0.098100
     14 C20         1.7390    2.2030    4.2820 c3        1 DS3     -0.098100
     15 C26         4.0010    0.8260    2.5150 ca        1 DS3     -0.096000
     16 C27         5.3540    1.0880    2.3020 ca        1 DS3     -0.100300
     17 C28         6.3020    0.4420    3.1240 ca        1 DS3      0.113100
     18 C29         5.8900   -0.4370    4.1290 ca        1 DS3     -0.200000
     19 C30         4.5300   -0.6800    4.3170 ca        1 DS3     -0.105000
     20 C34         1.7040   -1.2400   -1.1800 c3        1 DS3     -0.039800
     21 C38         5.7920    2.0310    1.2490 c3        1 DS3     -0.040800
     22 O42         7.6240    0.7720    2.8790 os        1 DS3     -0.347900
     23 C43         8.6010   -0.0930    3.4720 c3        1 DS3      0.090400
     24 C44         9.9310    0.3250    2.8330 c3        1 DS3      0.150100
     25 O47         9.8920    0.0960    1.4310 oh        1 DS3     -0.602800
     26 C48        11.1310   -0.4600    3.4000 c3        1 DS3     -0.047000
     27 C50        10.9740   -1.9490    3.1420 c3        1 DS3     -0.087767
     28 C54        12.3920    0.0390    2.7050 c3        1 DS3     -0.087767
     29 C58        11.2520   -0.2020    4.8940 c3        1 DS3     -0.087767
     30 O62        -0.8440   -0.2320   -1.1400 os        1 DS3     -0.330900
     31 C63        -2.1890    0.2780   -1.1570 c3        1 DS3      0.126400
     32 C64        -2.6800    0.1360   -2.5860 c3        1 DS3     -0.084400
     33 C65        -4.0890    0.6810   -2.7030 c3        1 DS3     -0.066400
     34 C66        -4.6310    0.5410   -4.1030 c3        1 DS3     -0.195400
     35 C67        -6.1250    0.9130   -4.1610 c         1 DS3      0.908600
     36 H3          2.8610   -1.1260    1.2700 ha        1 DS3      0.135000
     37 H5         -0.4900    0.6470    3.3570 ha        1 DS3      0.128000
     38 H6         -1.7900    0.6740    1.2780 ha        1 DS3      0.145000
     39 H12         2.2900    0.6630    5.6800 hc        1 DS3      0.037950
     40 H12A        0.5910    0.5610    5.0860 hc        1 DS3      0.037950
     41 H13         0.6740   -1.7240    4.5080 hc        1 DS3      0.037950
     42 H13A        2.2300   -1.6740    5.4180 hc        1 DS3      0.037950
     43 H14         3.3760   -2.7780    3.4220 hc        1 DS3      0.038033
     44 H14A        2.0530   -3.7790    4.1550 hc        1 DS3      0.038033
     45 H14B        1.7640   -2.8840    2.6050 hc        1 DS3      0.038033
     46 H20         1.1410    2.3470    3.3490 hc        1 DS3      0.038033
     47 H20A        1.3500    2.9000    5.0640 hc        1 DS3      0.038033
     48 H20B        2.8000    2.4760    4.0610 hc        1 DS3      0.038033
     49 H26         3.2520    1.3330    1.8830 ha        1 DS3      0.153000
     50 H29         6.6220   -0.9360    4.7780 ha        1 DS3      0.131000
     51 H30         4.2280   -1.3690    5.1200 ha        1 DS3      0.134000
     52 H34         1.7170   -0.4380   -1.9600 hc        1 DS3      0.044367
     53 H34A        2.7450   -1.6100   -1.0220 hc        1 DS3      0.044367
     54 H34B        1.0750   -2.0800   -1.5710 hc        1 DS3      0.044367
     55 H38         6.6850    1.6230    0.7120 hc        1 DS3      0.044700
     56 H38A        6.0860    3.0080    1.7100 hc        1 DS3      0.044700
     57 H38B        4.9780    2.2170    0.5080 hc        1 DS3      0.044700
     58 H43         8.6180    0.0730    4.5800 h1        1 DS3      0.052200
     59 H43A        8.3600   -1.1620    3.2390 h1        1 DS3      0.052200
     60 H44        10.0910    1.4260    3.0180 h1        1 DS3      0.045700
     61 HO47        9.0900    0.5270    1.1050 ho        1 DS3      0.418000
     62 H50        11.9090   -2.4890    3.4270 hc        1 DS3      0.038367
     63 H50A       10.7690   -2.1260    2.0580 hc        1 DS3      0.038367
     64 H50B       10.1290   -2.3680    3.7400 hc        1 DS3      0.038367
     65 H54        12.5440    1.1250    2.9130 hc        1 DS3      0.038367
     66 H54A       12.3000   -0.1050    1.6020 hc        1 DS3      0.038367
     67 H54B       13.2830   -0.5240    3.0720 hc        1 DS3      0.038367
     68 H58        11.2280    0.8940    5.1070 hc        1 DS3      0.038367
     69 H58A       10.4200   -0.6940    5.4530 hc        1 DS3      0.038367
     70 H58B       12.2180   -0.6170    5.2710 hc        1 DS3      0.038367
     71 H63        -2.1800    1.3530   -0.8370 h1        1 DS3      0.038700
     72 H63A       -2.8220   -0.3210   -0.4520 h1        1 DS3      0.038700
     73 H64        -1.9910    0.6880   -3.2760 hc        1 DS3      0.044700
     74 H64A       -2.6560   -0.9440   -2.8830 hc        1 DS3      0.044700
     75 H65        -4.7760    0.1380   -1.9990 hc        1 DS3      0.047200
     76 H65A       -4.0990    1.7620   -2.4060 hc        1 DS3      0.047200
     77 H66        -4.0590    1.1910   -4.8120 hc        1 DS3      0.021700
     78 H66A       -4.5300   -0.5190   -4.4510 hc        1 DS3      0.021700
@<TRIPOS>BOND
     1    1    3 ar  
     2    1    8 ar  
     3    1   30 1   
     4    2   35 1   
     5    3    5 ar  
     6    3   20 1   
     7    4   35 1   
     8    5    6 ar  
     9    5   36 1   
    10    6    7 ar  
    11    6    9 1   
    12    7    8 ar  
    13    7   37 1   
    14    8   38 1   
    15    9   10 1   
    16    9   11 1   
    17    9   12 1   
    18   10   15 ar  
    19   10   19 ar  
    20   11   14 1   
    21   11   39 1   
    22   11   40 1   
    23   12   13 1   
    24   12   41 1   
    25   12   42 1   
    26   13   43 1   
    27   13   44 1   
    28   13   45 1   
    29   14   46 1   
    30   14   47 1   
    31   14   48 1   
    32   15   16 ar  
    33   15   49 1   
    34   16   17 ar  
    35   16   21 1   
    36   17   18 ar  
    37   17   22 1   
    38   18   19 ar  
    39   18   50 1   
    40   19   51 1   
    41   20   52 1   
    42   20   53 1   
    43   20   54 1   
    44   21   55 1   
    45   21   56 1   
    46   21   57 1   
    47   22   23 1   
    48   23   24 1   
    49   23   58 1   
    50   23   59 1   
    51   24   25 1   
    52   24   26 1   
    53   24   60 1   
    54   25   61 1   
    55   26   27 1   
    56   26   28 1   
    57   26   29 1   
    58   27   62 1   
    59   27   63 1   
    60   27   64 1   
    61   28   65 1   
    62   28   66 1   
    63   28   67 1   
    64   29   68 1   
    65   29   69 1   
    66   29   70 1   
    67   30   31 1   
    68   31   32 1   
    69   31   71 1   
    70   31   72 1   
    71   32   33 1   
    72   32   73 1   
    73   32   74 1   
    74   33   34 1   
    75   33   75 1   
    76   33   76 1   
    77   34   35 1   
    78   34   77 1   
    79   34   78 1   
@<TRIPOS>SUBSTRUCTURE
     1 DS3         1 TEMP              0 ****  ****    0 ROOT
