@<TRIPOS>MOLECULE
DS3
   78    79     1     0     0
SMALL
bcc


@<TRIPOS>ATOM
      1 C1         -0.2080   -0.2090    0.0760 ca        1 DS3      0.144100
      2 O1         -6.8840    0.5340   -3.2010 o         1 DS3     -0.850300
      3 C2          1.1130   -0.7200    0.0740 ca        1 DS3     -0.113300
      4 O2         -6.5430    1.5360   -5.1670 o         1 DS3     -0.850300
      5 C3          1.8340   -0.7180    1.2650 ca        1 DS3     -0.103000
      6 C4          1.2910   -0.2150    2.4590 ca        1 DS3     -0.119300
      7 C5         -0.0210    0.2660    2.4390 ca        1 DS3     -0.097000
      8 C6         -0.7680    0.2780    1.2620 ca        1 DS3     -0.209000
      9 C10         2.0880   -0.2800    3.7390 c3        1 DS3      0.057600
     10 C11         3.5650   -0.0650    3.5060 ca        1 DS3     -0.082300
     11 C12         1.6420    0.7830    4.7670 c3        1 DS3     -0.068400
     12 C13         1.7880   -1.6490    4.3880 c3        1 DS3     -0.068400
     13 C14         2.2740   -2.8360    3.6000 c3        1 DS3     -0.098100
     14 C20         1.7360    2.2040    4.2780 c3        1 DS3     -0.098100
     15 C26         3.9970    0.8260    2.5100 ca        1 DS3     -0.096000
     16 C27         5.3490    1.0890    2.2950 ca        1 DS3     -0.100300
     17 C28         6.2990    0.4450    3.1180 ca        1 DS3      0.113100
     18 C29         5.8890   -0.4320    4.1240 ca        1 DS3     -0.200000
     19 C30         4.5290   -0.6770    4.3130 ca        1 DS3     -0.105000
     20 C34         1.6960   -1.2460   -1.1790 c3        1 DS3     -0.039800
     21 C38         5.7860    2.0310    1.2410 c3        1 DS3     -0.040800
     22 O42         7.6200    0.7760    2.8700 os        1 DS3     -0.347900
     23 C43         8.5980   -0.0850    3.4670 c3        1 DS3      0.090400
     24 C44         9.9280    0.3340    2.8270 c3        1 DS3      0.150100
     25 O47         9.8910    0.0990    1.4260 oh        1 DS3     -0.602800
     26 C48        11.1300   -0.4460    3.3990 c3        1 DS3     -0.047000
     27 C50        10.9760   -1.9370    3.1470 c3        1 DS3     -0.087767
     28 C54        12.3900    0.0540    2.7030 c3        1 DS3     -0.087767
     29 C58        11.2490   -0.1810    4.8920 c3        1 DS3     -0.087767
     30 O62        -0.8510   -0.2400   -1.1370 os        1 DS3     -0.330900
     31 C63        -2.1970    0.2700   -1.1540 c3        1 DS3      0.126400
     32 C64        -2.6900    0.1260   -2.5820 c3        1 DS3     -0.084400
     33 C65        -4.0990    0.6690   -2.6980 c3        1 DS3     -0.066400
     34 C66        -4.6420    0.5270   -4.0980 c3        1 DS3     -0.195400
     35 C67        -6.1360    0.8980   -4.1540 c         1 DS3      0.908600
     36 H3          2.8570   -1.1280    1.2690 ha        1 DS3      0.135000
     37 H5         -0.4930    0.6450    3.3580 ha        1 DS3      0.128000
     38 H6         -1.7960    0.6680    1.2800 ha        1 DS3      0.145000
     39 H12         0.5900    0.5610    5.0850 hc        1 DS3      0.037950
     40 H12A        2.2900    0.6660    5.6780 hc        1 DS3      0.037950
     41 H13         2.2310   -1.6710    5.4190 hc        1 DS3      0.037950
     42 H13A        0.6740   -1.7240    4.5100 hc        1 DS3      0.037950
     43 H14         3.3760   -2.7770    3.4220 hc        1 DS3      0.038033
     44 H14A        1.7640   -2.8850    2.6070 hc        1 DS3      0.038033
     45 H14B        2.0540   -3.7780    4.1580 hc        1 DS3      0.038033
     46 H20         1.3470    2.9010    5.0590 hc        1 DS3      0.038033
     47 H20A        2.7960    2.4770    4.0560 hc        1 DS3      0.038033
     48 H20B        1.1370    2.3460    3.3450 hc        1 DS3      0.038033
     49 H26         3.2470    1.3320    1.8780 ha        1 DS3      0.153000
     50 H29         6.6220   -0.9310    4.7730 ha        1 DS3      0.131000
     51 H30         4.2290   -1.3650    5.1180 ha        1 DS3      0.134000
     52 H34         1.0690   -2.0880   -1.5680 hc        1 DS3      0.044367
     53 H34A        1.7080   -0.4450   -1.9600 hc        1 DS3      0.044367
     54 H34B        2.7390   -1.6150   -1.0230 hc        1 DS3      0.044367
     55 H38         6.6780    1.6230    0.7020 hc        1 DS3      0.044700
     56 H38A        6.0800    3.0080    1.7000 hc        1 DS3      0.044700
     57 H38B        4.9700    2.2160    0.5000 hc        1 DS3      0.044700
     58 H43         8.3610   -1.1550    3.2360 h1        1 DS3      0.052200
     59 H43A        8.6150    0.0850    4.5740 h1        1 DS3      0.052200
     60 H44        10.0850    1.4360    3.0080 h1        1 DS3      0.045700
     61 HO47        9.0880    0.5270    1.0970 ho        1 DS3      0.418000
     62 H50        11.9120   -2.4720    3.4340 hc        1 DS3      0.038367
     63 H50A       10.1330   -2.3540    3.7470 hc        1 DS3      0.038367
     64 H50B       10.7720   -2.1180    2.0630 hc        1 DS3      0.038367
     65 H54        13.2820   -0.5060    3.0730 hc        1 DS3      0.038367
     66 H54A       12.2990   -0.0960    1.6000 hc        1 DS3      0.038367
     67 H54B       12.5390    1.1410    2.9060 hc        1 DS3      0.038367
     68 H58        10.4180   -0.6720    5.4520 hc        1 DS3      0.038367
     69 H58A       11.2230    0.9150    5.0990 hc        1 DS3      0.038367
     70 H58B       12.2160   -0.5920    5.2710 hc        1 DS3      0.038367
     71 H63        -2.1880    1.3450   -0.8350 h1        1 DS3      0.038700
     72 H63A       -2.8290   -0.3300   -0.4470 h1        1 DS3      0.038700
     73 H64        -2.6650   -0.9550   -2.8780 hc        1 DS3      0.044700
     74 H64A       -2.0020    0.6770   -3.2730 hc        1 DS3      0.044700
     75 H65        -4.7850    0.1260   -1.9930 hc        1 DS3      0.047200
     76 H65A       -4.1100    1.7500   -2.4020 hc        1 DS3      0.047200
     77 H66        -4.5410   -0.5330   -4.4440 hc        1 DS3      0.021700
     78 H66A       -4.0720    1.1760   -4.8080 hc        1 DS3      0.021700
@<TRIPOS>BOND
     1    1    3 ar  
     2    1    8 ar  
     3    1   30 1   
     4    2   35 1   
     5    3    5 ar  
     6    3   20 1   
     7    4   35 1   
     8    5    6 ar  
     9    5   36 1   
    10    6    7 ar  
    11    6    9 1   
    12    7    8 ar  
    13    7   37 1   
    14    8   38 1   
    15    9   10 1   
    16    9   11 1   
    17    9   12 1   
    18   10   15 ar  
    19   10   19 ar  
    20   11   14 1   
    21   11   39 1   
    22   11   40 1   
    23   12   13 1   
    24   12   41 1   
    25   12   42 1   
    26   13   43 1   
    27   13   44 1   
    28   13   45 1   
    29   14   46 1   
    30   14   47 1   
    31   14   48 1   
    32   15   16 ar  
    33   15   49 1   
    34   16   17 ar  
    35   16   21 1   
    36   17   18 ar  
    37   17   22 1   
    38   18   19 ar  
    39   18   50 1   
    40   19   51 1   
    41   20   52 1   
    42   20   53 1   
    43   20   54 1   
    44   21   55 1   
    45   21   56 1   
    46   21   57 1   
    47   22   23 1   
    48   23   24 1   
    49   23   58 1   
    50   23   59 1   
    51   24   25 1   
    52   24   26 1   
    53   24   60 1   
    54   25   61 1   
    55   26   27 1   
    56   26   28 1   
    57   26   29 1   
    58   27   62 1   
    59   27   63 1   
    60   27   64 1   
    61   28   65 1   
    62   28   66 1   
    63   28   67 1   
    64   29   68 1   
    65   29   69 1   
    66   29   70 1   
    67   30   31 1   
    68   31   32 1   
    69   31   71 1   
    70   31   72 1   
    71   32   33 1   
    72   32   73 1   
    73   32   74 1   
    74   33   34 1   
    75   33   75 1   
    76   33   76 1   
    77   34   35 1   
    78   34   77 1   
    79   34   78 1   
@<TRIPOS>SUBSTRUCTURE
     1 DS3         1 TEMP              0 ****  ****    0 ROOT
