@<TRIPOS>MOLECULE
DS3
   78    74     1     0     0
SMALL
bcc


@<TRIPOS>ATOM
      1 C1         -2.6120   -1.1030   -3.3030 c1        1 DS3      0.094000
      2 O1         -7.3770   -6.7720   -5.8520 o         1 DS3     -0.585500
      3 C2         -1.4430   -1.8520   -3.2760 c1        1 DS3     -0.109000
      4 O2         -6.7410   -6.0260   -7.7970 o         1 DS3     -0.585500
      5 C3         -0.6550   -1.8730   -2.1290 c1        1 DS3     -0.103000
      6 C4         -1.0410   -1.1400   -1.0030 c1        1 DS3     -0.117000
      7 C5         -2.2110   -0.3910   -1.0310 c1        1 DS3     -0.095000
      8 C6         -2.9980   -0.3710   -2.1800 c1        1 DS3     -0.199000
      9 C10        -0.2590   -1.3120    0.3440 c3        1 DS3      0.043000
     10 C11         0.1570    0.0980    0.8940 c2        1 DS3     -0.053000
     11 C12        -1.1580   -2.0190    1.3710 c3        1 DS3     -0.151500
     12 C13         1.0010   -2.1570    0.0990 c3        1 DS3     -0.151500
     13 C14         0.9710   -3.3850    0.9960 c3        1 DS3     -0.215000
     14 C20        -2.1390   -1.0160    1.9620 c3        1 DS3     -0.215000
     15 C26         0.7610   -0.0770    2.1390 c2        1 DS3     -0.130000
     16 C27         1.7470    0.8140    2.5680 c1        1 DS3     -0.079000
     17 C28         2.1270    1.8760    1.7540 c1        1 DS3      0.032000
     18 C29         1.5230    2.0490    0.5090 c1        1 DS3     -0.142000
     19 C30         0.5360    1.1570    0.0810 c1        1 DS3     -0.118000
     20 C34        -0.7020   -2.3350   -4.5120 c3        1 DS3     -0.162000
     21 C38         2.4850    0.5570    3.8710 c3        1 DS3     -0.184000
     22 O42         3.2540    2.7080    2.1320 os        1 DS3     -0.235000
     23 C43         2.8810    3.9860    2.6760 c3        1 DS3     -0.017000
     24 C44         4.0810    4.9090    2.6650 c3        1 DS3      0.029000
     25 O47         5.2370    4.1660    2.4290 oh        1 DS3     -0.327000
     26 C48         4.1950    5.6130    4.0160 c3        1 DS3     -0.082000
     27 C50         4.4900    4.5920    5.0940 c3        1 DS3     -0.207667
     28 C54         5.3250    6.6390    3.9630 c3        1 DS3     -0.207667
     29 C58         2.8910    6.3170    4.3300 c3        1 DS3     -0.207667
     30 O62        -3.5250   -1.5590   -4.3020 os        1 DS3     -0.223000
     31 C63        -4.3100   -2.6910   -3.9000 c3        1 DS3     -0.024000
     32 C64        -3.9920   -3.8860   -4.8130 c3        1 DS3     -0.193000
     33 C65        -5.2510   -4.2690   -5.6170 c3        1 DS3     -0.146000
     34 C66        -5.1930   -5.7490   -5.9790 c3        1 DS3     -0.225000
     35 C67        -6.5260   -6.1770   -6.5740 c2        1 DS3      0.328000
     36 H3          0.1900   -2.3510   -2.1290 ha        1 DS3      0.134000
     37 H5         -2.4850    0.1120   -0.2450 ha        1 DS3      0.135000
     38 H6         -3.8160    0.1530   -2.2000 ha        1 DS3      0.162000
     39 H12        -1.6520   -2.7360    0.9320 hc        1 DS3      0.085750
     40 H12A       -0.5990   -2.3960    2.0910 hc        1 DS3      0.085750
     41 H13         1.0280   -2.4370   -0.8320 hc        1 DS3      0.085750
     42 H13A        1.7930   -1.6260    0.3020 hc        1 DS3      0.085750
     43 H14         1.8250   -3.8660    0.9200 hc        1 DS3      0.073667
     44 H14A        0.2410   -3.9720    0.7200 hc        1 DS3      0.073667
     45 H14B        0.8340   -3.1080    1.9250 hc        1 DS3      0.073667
     46 H20        -2.0890   -0.1830    1.4650 hc        1 DS3      0.073667
     47 H20A       -1.9100   -0.8480    2.9100 hc        1 DS3      0.073667
     48 H20B       -3.0500   -1.3770    1.9040 hc        1 DS3      0.073667
     49 H26         0.4970   -0.8130    2.7040 ha        1 DS3      0.138000
     50 H29         1.7890    2.7950   -0.0640 ha        1 DS3      0.138000
     51 H30         0.1140    1.2780   -0.7890 ha        1 DS3      0.150000
     52 H34        -1.2440   -2.1540   -5.3110 hc        1 DS3      0.080000
     53 H34A       -0.5380   -3.2990   -4.4400 hc        1 DS3      0.080000
     54 H34B        0.1520   -1.8640   -4.5850 hc        1 DS3      0.080000
     55 H38         3.3370    0.1000    3.6810 hc        1 DS3      0.089000
     56 H38A        2.6630    1.4020    4.3150 hc        1 DS3      0.089000
     57 H38B        1.9330   -0.0080    4.4530 hc        1 DS3      0.089000
     58 H43         2.5680    3.8700    3.5920 h1        1 DS3      0.091500
     59 H43A        2.1560    4.3790    2.1270 h1        1 DS3      0.091500
     60 H44         3.9710    5.5800    1.9540 h1        1 DS3      0.095000
     61 HO47        5.7760    4.6220    1.9050 ho        1 DS3      0.198000
     62 H50         5.3120    4.1160    4.8750 hc        1 DS3      0.076889
     63 H50A        4.5940    5.0480    5.9560 hc        1 DS3      0.076889
     64 H50B        3.7490    3.9520    5.1500 hc        1 DS3      0.076889
     65 H54         6.1760    6.1800    3.8400 hc        1 DS3      0.076889
     66 H54A        5.1720    7.2580    3.2090 hc        1 DS3      0.076889
     67 H54B        5.3450    7.1480    4.8050 hc        1 DS3      0.076889
     68 H58         2.1850    5.6500    4.4710 hc        1 DS3      0.076889
     69 H58A        2.9990    6.8580    5.1460 hc        1 DS3      0.076889
     70 H58B        2.6470    6.8960    3.5860 hc        1 DS3      0.076889
     71 H63        -5.2700   -2.4690   -3.9710 h1        1 DS3      0.092000
     72 H63A       -4.0990   -2.9210   -2.9810 h1        1 DS3      0.092000
     73 H64        -3.2740   -3.6430   -5.4290 hc        1 DS3      0.083000
     74 H64A       -3.7120   -4.6430   -4.2700 hc        1 DS3      0.083000
     75 H65        -5.2900   -3.7310   -6.4400 hc        1 DS3      0.085000
     76 H65A       -6.0510   -4.0960   -5.0740 hc        1 DS3      0.085000
     77 H66        -5.0100   -6.2780   -5.1710 hc        1 DS3      0.061500
     78 H66A       -4.4830   -5.8960   -6.6330 hc        1 DS3      0.061500
@<TRIPOS>BOND
     1    1    8 1   
     2    1   30 1   
     3    2   35 1   
     4    3    5 1   
     5    3   20 1   
     6    4   35 1   
     7    5   36 1   
     8    6    7 1   
     9    6    9 1   
    10    7   37 1   
    11    8   38 1   
    12    9   10 1   
    13    9   11 1   
    14    9   12 1   
    15   10   15 1   
    16   10   19 1   
    17   11   14 1   
    18   11   39 1   
    19   11   40 1   
    20   12   13 1   
    21   12   41 1   
    22   12   42 1   
    23   13   43 1   
    24   13   44 1   
    25   13   45 1   
    26   14   46 1   
    27   14   47 1   
    28   14   48 1   
    29   15   16 1   
    30   15   49 1   
    31   16   21 1   
    32   17   18 1   
    33   17   22 1   
    34   18   50 1   
    35   19   51 1   
    36   20   52 1   
    37   20   53 1   
    38   20   54 1   
    39   21   55 1   
    40   21   56 1   
    41   21   57 1   
    42   22   23 1   
    43   23   24 1   
    44   23   58 1   
    45   23   59 1   
    46   24   25 1   
    47   24   26 1   
    48   24   60 1   
    49   25   61 1   
    50   26   27 1   
    51   26   28 1   
    52   26   29 1   
    53   27   62 1   
    54   27   63 1   
    55   27   64 1   
    56   28   65 1   
    57   28   66 1   
    58   28   67 1   
    59   29   68 1   
    60   29   69 1   
    61   29   70 1   
    62   30   31 1   
    63   31   32 1   
    64   31   71 1   
    65   31   72 1   
    66   32   33 1   
    67   32   73 1   
    68   32   74 1   
    69   33   34 1   
    70   33   75 1   
    71   33   76 1   
    72   34   35 1   
    73   34   77 1   
    74   34   78 1   
@<TRIPOS>SUBSTRUCTURE
     1 DS3         1 TEMP              0 ****  ****    0 ROOT
