@<TRIPOS>MOLECULE
DS4
   72    74     1     0     0
SMALL
bcc


@<TRIPOS>ATOM
      1 C1          0.0790    0.0710   -0.0640 cp        1 DS4     -0.005000
      2 C2          1.2980   -0.6150   -0.2080 ca        1 DS4     -0.065300
      3 C3          2.1570   -0.7310    0.8900 ca        1 DS4     -0.137000
      4 C4          1.8460   -0.1720    2.1350 ca        1 DS4     -0.085300
      5 C5          0.6240    0.4990    2.2700 ca        1 DS4     -0.137000
      6 C6         -0.2380    0.6230    1.1860 ca        1 DS4     -0.126000
      7 C10         2.7750   -0.3630    3.3100 c3        1 DS4      0.046600
      8 C11         4.2280   -0.3580    2.8950 ca        1 DS4     -0.038300
      9 C12         2.6170    0.7430    4.3760 c3        1 DS4     -0.067900
     10 C13         2.3640   -1.6810    4.0000 c3        1 DS4     -0.067900
     11 C14         2.5730   -2.9170    3.1670 c3        1 DS4     -0.099600
     12 C20         2.8540    2.1400    3.8690 c3        1 DS4     -0.099600
     13 C26         4.6580    0.4710    1.8500 ca        1 DS4     -0.122000
     14 C27         5.9990    0.5260    1.4660 ca        1 DS4     -0.052300
     15 C28         6.9490   -0.2540    2.1530 ca        1 DS4     -0.115800
     16 C29         6.5290   -1.0650    3.2120 ca        1 DS4     -0.108000
     17 C30         5.1870   -1.1150    3.5800 ca        1 DS4     -0.133000
     18 C34         1.7070   -1.2200   -1.4990 c3        1 DS4     -0.058800
     19 C9          6.4220    1.4050    0.3500 c3        1 DS4     -0.060800
     20 C8          8.3260   -0.2900    1.6830 ce        1 DS4     -0.015200
     21 C43         9.4640    0.1320    2.2370 c2        1 DS4     -0.213200
     22 C44         9.7430    0.8310    3.5240 c3        1 DS4      0.162000
     23 O47        11.1240    1.1460    3.4890 oh        1 DS4     -0.563800
     24 C7          8.9630    2.2070    3.6920 c3        1 DS4      0.605400
     25 F5          7.7120    2.1280    4.2300 f         1 DS4     -0.222467
     26 C15         9.5180   -0.0900    4.8030 c3        1 DS4      0.605400
     27 F2          9.6650   -1.4290    4.5630 f         1 DS4     -0.222467
     28 F3         10.4400    0.1880    5.7850 f         1 DS4     -0.222467
     29 F1          8.3080    0.0330    5.4240 f         1 DS4     -0.222467
     30 F6          9.6480    3.0630    4.5240 f         1 DS4     -0.222467
     31 F4          8.8220    2.9050    2.5250 f         1 DS4     -0.222467
     32 C50        -1.3050   -0.8650   -1.9200 ca        1 DS4     -0.136000
     33 C51        -0.8670    0.2350   -1.1690 cp        1 DS4     -0.069000
     34 C52        -1.3620    1.5070   -1.4700 ca        1 DS4     -0.166000
     35 C53        -2.2790    1.6740   -2.5220 ca        1 DS4      0.087900
     36 C54        -2.7210    0.5690   -3.2870 ca        1 DS4     -0.026300
     37 C55        -2.2150   -0.6960   -2.9560 ca        1 DS4     -0.112000
     38 C56        -3.6960    0.7270   -4.3880 c3        1 DS4     -0.182100
     39 C57        -3.3660   -0.1270   -5.6390 c         1 DS4      0.918600
     40 O58        -3.0960    0.4880   -6.7050 o         1 DS4     -0.836300
     41 O59        -3.4210   -1.3860   -5.5340 o         1 DS4     -0.836300
     42 F60        -2.7360    2.9260   -2.7850 f         1 DS4     -0.155900
     43 H1          3.1040   -1.2820    0.7670 ha        1 DS4      0.132000
     44 H2          0.3270    0.9350    3.2350 ha        1 DS4      0.125000
     45 H3         -1.1930    1.1590    1.3060 ha        1 DS4      0.137000
     46 H4          3.3460    0.5240    5.2020 hc        1 DS4      0.039700
     47 H5          1.5890    0.6720    4.8210 hc        1 DS4      0.039700
     48 H6          1.2730   -1.5970    4.2590 hc        1 DS4      0.039700
     49 H7          2.9220   -1.7770    4.9690 hc        1 DS4      0.039700
     50 H8          2.2860   -3.8230    3.7530 hc        1 DS4      0.039033
     51 H9          3.6430   -3.0180    2.8590 hc        1 DS4      0.039033
     52 H10         1.9460   -2.8800    2.2420 hc        1 DS4      0.039033
     53 H11         2.6610    2.8780    4.6850 hc        1 DS4      0.039033
     54 H12         3.9110    2.2630    3.5250 hc        1 DS4      0.039033
     55 H13         2.1790    2.3750    3.0100 hc        1 DS4      0.039033
     56 H14         3.9190    1.0930    1.3160 ha        1 DS4      0.155000
     57 H15         7.2690   -1.6660    3.7640 ha        1 DS4      0.132000
     58 H16         4.8940   -1.7600    4.4220 ha        1 DS4      0.138000
     59 H17         2.8180   -1.1880   -1.6190 hc        1 DS4      0.049700
     60 H18         1.2380   -0.6830   -2.3610 hc        1 DS4      0.049700
     61 H19         1.3820   -2.2910   -1.5380 hc        1 DS4      0.049700
     62 H20         6.9160    0.8010   -0.4520 hc        1 DS4      0.049367
     63 H21         7.1570    2.1660    0.7170 hc        1 DS4      0.049367
     64 H22         5.5500    1.9410   -0.0990 hc        1 DS4      0.049367
     65 H23         8.4090   -0.7550    0.6750 ha        1 DS4      0.142000
     66 H24        10.4070   -0.0260    1.6700 ha        1 DS4      0.161000
     67 H25        11.3550    1.6150    4.3070 ho        1 DS4      0.436000
     68 H27        -1.0330    2.3840   -0.8950 ha        1 DS4      0.129000
     69 H28        -2.5490   -1.5570   -3.5730 ha        1 DS4      0.202000
     70 H29        -3.7630    1.8010   -4.6980 hc        1 DS4      0.049200
     71 H30        -4.7050    0.4000   -4.0240 hc        1 DS4      0.049200
     72 H26        -0.9240   -1.8690   -1.6850 ha        1 DS4      0.124000
@<TRIPOS>BOND
     1    1    2 ar  
     2    1    6 ar  
     3    1   33 1   
     4    2    3 ar  
     5    2   18 1   
     6    3    4 ar  
     7    3   43 1   
     8    4    5 ar  
     9    4    7 1   
    10    5    6 ar  
    11    5   44 1   
    12    6   45 1   
    13    7    8 1   
    14    7    9 1   
    15    7   10 1   
    16    8   13 ar  
    17    8   17 ar  
    18    9   12 1   
    19    9   46 1   
    20    9   47 1   
    21   10   11 1   
    22   10   48 1   
    23   10   49 1   
    24   11   50 1   
    25   11   51 1   
    26   11   52 1   
    27   12   53 1   
    28   12   54 1   
    29   12   55 1   
    30   13   14 ar  
    31   13   56 1   
    32   14   15 ar  
    33   14   19 1   
    34   15   16 ar  
    35   15   20 1   
    36   16   17 ar  
    37   16   57 1   
    38   17   58 1   
    39   18   59 1   
    40   18   60 1   
    41   18   61 1   
    42   19   62 1   
    43   19   63 1   
    44   19   64 1   
    45   20   21 2   
    46   20   65 1   
    47   21   22 1   
    48   21   66 1   
    49   22   23 1   
    50   22   24 1   
    51   22   26 1   
    52   23   67 1   
    53   24   25 1   
    54   24   30 1   
    55   24   31 1   
    56   26   27 1   
    57   26   28 1   
    58   26   29 1   
    59   32   33 ar  
    60   32   37 ar  
    61   32   72 1   
    62   33   34 ar  
    63   34   35 ar  
    64   34   68 1   
    65   35   36 ar  
    66   35   42 1   
    67   36   37 ar  
    68   36   38 1   
    69   37   69 1   
    70   38   39 1   
    71   38   70 1   
    72   38   71 1   
    73   39   40 1   
    74   39   41 1   
@<TRIPOS>SUBSTRUCTURE
     1 DS4         1 TEMP              0 ****  ****    0 ROOT
