@<TRIPOS>MOLECULE
DS4
   72    74     1     0     0
SMALL
bcc


@<TRIPOS>ATOM
      1 C1         -4.1490   -1.0690   -0.0670 cp        1 DS4     -0.003000
      2 C2         -3.0000   -0.4180   -0.5510 ca        1 DS4     -0.064300
      3 C3         -1.7880   -1.1150   -0.6110 ca        1 DS4     -0.138000
      4 C4         -1.6780   -2.4460   -0.1910 ca        1 DS4     -0.087300
      5 C5         -2.8320   -3.0880    0.2760 ca        1 DS4     -0.138000
      6 C6         -4.0420   -2.4060    0.3420 ca        1 DS4     -0.126000
      7 C10        -0.3650   -3.1800   -0.3160 c3        1 DS4      0.045600
      8 C11         0.8240   -2.2850   -0.0480 ca        1 DS4     -0.028300
      9 C12        -0.2510   -4.3630    0.6700 c3        1 DS4     -0.068400
     10 C13        -0.3260   -3.7970   -1.7300 c3        1 DS4     -0.068400
     11 C14        -0.2640   -2.7940   -2.8510 c3        1 DS4     -0.099600
     12 C20        -0.3860   -3.9830    2.1200 c3        1 DS4     -0.099600
     13 C26         0.7330   -1.2460    0.8880 ca        1 DS4     -0.129000
     14 C27         1.8310   -0.4390    1.1980 ca        1 DS4     -0.045300
     15 C28         3.0680   -0.6770    0.5670 ca        1 DS4     -0.103800
     16 C29         3.1640   -1.7250   -0.3590 ca        1 DS4     -0.103000
     17 C30         2.0620   -2.5200   -0.6600 ca        1 DS4     -0.143000
     18 C34        -3.0320    0.9950   -0.9990 c3        1 DS4     -0.059800
     19 C9          1.6710    0.6590    2.1820 c3        1 DS4     -0.063800
     20 C8          4.2270    0.1350    0.8910 ce        1 DS4     -0.008200
     21 C43         5.2740    0.3220    0.0750 c2        1 DS4     -0.275200
     22 C44         6.4660    1.1390    0.4390 c3        1 DS4      0.144000
     23 O47         6.5400    1.5200    1.7920 oh        1 DS4     -0.556800
     24 C7          7.7870    0.3180    0.1010 c3        1 DS4      0.627400
     25 F5          7.7840   -0.2950   -1.1220 f         1 DS4     -0.221800
     26 C15         6.4590    2.5100   -0.3580 c3        1 DS4      0.627400
     27 F2          5.3780    3.2950   -0.0680 f         1 DS4     -0.221800
     28 F3          7.5500    3.2970   -0.1110 f         1 DS4     -0.221800
     29 F1          6.4360    2.3420   -1.7170 f         1 DS4     -0.221800
     30 F6          8.9340    1.0620    0.1250 f         1 DS4     -0.221800
     31 F4          8.0010   -0.6860    1.0110 f         1 DS4     -0.221800
     32 C50        -6.0080    0.2700   -1.0620 ca        1 DS4     -0.135000
     33 C51        -5.4490   -0.4040    0.0320 cp        1 DS4     -0.071000
     34 C52        -6.1610   -0.4620    1.2330 ca        1 DS4     -0.166000
     35 C53        -7.4180    0.1600    1.3370 ca        1 DS4      0.087900
     36 C54        -7.9860    0.8440    0.2370 ca        1 DS4     -0.025300
     37 C55        -7.2530    0.8790   -0.9580 ca        1 DS4     -0.112000
     38 C56        -9.3140    1.4900    0.3260 c3        1 DS4     -0.183100
     39 C57        -9.3810    2.8730   -0.3710 c         1 DS4      0.919600
     40 O58        -9.2460    2.9140   -1.6280 o         1 DS4     -0.835800
     41 O59        -9.6060    3.8760    0.3560 o         1 DS4     -0.835800
     42 F60        -8.0790    0.0820    2.5220 f         1 DS4     -0.154900
     43 H1         -0.8980   -0.5960   -1.0040 ha        1 DS4      0.132000
     44 H2         -2.8000   -4.1400    0.5930 ha        1 DS4      0.125000
     45 H3         -4.9400   -2.9220    0.7170 ha        1 DS4      0.138000
     46 H4         -1.0270   -5.1290    0.4060 hc        1 DS4      0.039700
     47 H5          0.7510   -4.8440    0.5080 hc        1 DS4      0.039700
     48 H6          0.5470   -4.4980   -1.8010 hc        1 DS4      0.039700
     49 H7         -1.2550   -4.4200   -1.8480 hc        1 DS4      0.039700
     50 H8         -0.2010   -3.3240   -3.8320 hc        1 DS4      0.039200
     51 H9         -1.1780   -2.1500   -2.8550 hc        1 DS4      0.039200
     52 H10         0.6290   -2.1310   -2.7480 hc        1 DS4      0.039200
     53 H11        -1.3610   -3.4720    2.3120 hc        1 DS4      0.039200
     54 H12        -0.3320   -4.8970    2.7590 hc        1 DS4      0.039200
     55 H13         0.4350   -3.2890    2.4260 hc        1 DS4      0.039200
     56 H14        -0.2310   -1.0600    1.3930 ha        1 DS4      0.157000
     57 H15         4.1270   -1.9330   -0.8510 ha        1 DS4      0.131000
     58 H16         2.1800   -3.3380   -1.3860 ha        1 DS4      0.138000
     59 H17        -3.8440    1.5630   -0.4790 hc        1 DS4      0.050700
     60 H18        -2.0560    1.5000   -0.7940 hc        1 DS4      0.050700
     61 H19        -3.2260    1.0420   -2.1000 hc        1 DS4      0.050700
     62 H20         2.2760    0.4500    3.1000 hc        1 DS4      0.050367
     63 H21         2.0140    1.6300    1.7460 hc        1 DS4      0.050367
     64 H22         0.6020    0.7740    2.4890 hc        1 DS4      0.050367
     65 H23         4.2030    0.6210    1.8860 ha        1 DS4      0.135000
     66 H24         5.3170   -0.1010   -0.9430 ha        1 DS4      0.164000
     67 H25         6.4360    0.7170    2.3250 ho        1 DS4      0.436000
     68 H27        -5.7430   -0.9840    2.1050 ha        1 DS4      0.128000
     69 H28        -7.6920    1.4370   -1.8110 ha        1 DS4      0.202000
     70 H29       -10.0680    0.8300   -0.1790 hc        1 DS4      0.049200
     71 H30        -9.6150    1.6160    1.3970 hc        1 DS4      0.049200
     72 H26        -5.4560    0.3160   -2.0120 ha        1 DS4      0.124000
@<TRIPOS>BOND
     1    1    2 ar  
     2    1    6 ar  
     3    1   33 1   
     4    2    3 ar  
     5    2   18 1   
     6    3    4 ar  
     7    3   43 1   
     8    4    5 ar  
     9    4    7 1   
    10    5    6 ar  
    11    5   44 1   
    12    6   45 1   
    13    7    8 1   
    14    7    9 1   
    15    7   10 1   
    16    8   13 ar  
    17    8   17 ar  
    18    9   12 1   
    19    9   46 1   
    20    9   47 1   
    21   10   11 1   
    22   10   48 1   
    23   10   49 1   
    24   11   50 1   
    25   11   51 1   
    26   11   52 1   
    27   12   53 1   
    28   12   54 1   
    29   12   55 1   
    30   13   14 ar  
    31   13   56 1   
    32   14   15 ar  
    33   14   19 1   
    34   15   16 ar  
    35   15   20 1   
    36   16   17 ar  
    37   16   57 1   
    38   17   58 1   
    39   18   59 1   
    40   18   60 1   
    41   18   61 1   
    42   19   62 1   
    43   19   63 1   
    44   19   64 1   
    45   20   21 2   
    46   20   65 1   
    47   21   22 1   
    48   21   66 1   
    49   22   23 1   
    50   22   24 1   
    51   22   26 1   
    52   23   67 1   
    53   24   25 1   
    54   24   30 1   
    55   24   31 1   
    56   26   27 1   
    57   26   28 1   
    58   26   29 1   
    59   32   33 ar  
    60   32   37 ar  
    61   32   72 1   
    62   33   34 ar  
    63   34   35 ar  
    64   34   68 1   
    65   35   36 ar  
    66   35   42 1   
    67   36   37 ar  
    68   36   38 1   
    69   37   69 1   
    70   38   39 1   
    71   38   70 1   
    72   38   71 1   
    73   39   40 1   
    74   39   41 1   
@<TRIPOS>SUBSTRUCTURE
     1 DS4         1 TEMP              0 ****  ****    0 ROOT
