@<TRIPOS>MOLECULE
DS4
   72    74     1     0     0
SMALL
bcc


@<TRIPOS>ATOM
      1 C1          0.0760    0.0410   -0.0550 cp        1 DS4     -0.005000
      2 C2          1.3060   -0.6210   -0.2160 ca        1 DS4     -0.065300
      3 C3          2.1710   -0.7430    0.8780 ca        1 DS4     -0.137000
      4 C4          1.8540   -0.2120    2.1340 ca        1 DS4     -0.085300
      5 C5          0.6210    0.4350    2.2850 ca        1 DS4     -0.137000
      6 C6         -0.2470    0.5630    1.2060 ca        1 DS4     -0.126000
      7 C10         2.7900   -0.4090    3.3030 c3        1 DS4      0.046600
      8 C11         4.2420   -0.3720    2.8830 ca        1 DS4     -0.038300
      9 C12         2.6170    0.6740    4.3890 c3        1 DS4     -0.067900
     10 C13         2.4040   -1.7460    3.9690 c3        1 DS4     -0.067900
     11 C14         2.6320   -2.9630    3.1130 c3        1 DS4     -0.099600
     12 C20         2.8290    2.0850    3.9070 c3        1 DS4     -0.099600
     13 C26         4.6540    0.4850    1.8520 ca        1 DS4     -0.122000
     14 C27         5.9930    0.5690    1.4640 ca        1 DS4     -0.052300
     15 C28         6.9580   -0.2070    2.1350 ca        1 DS4     -0.115800
     16 C29         6.5560   -1.0440    3.1790 ca        1 DS4     -0.108000
     17 C30         5.2160   -1.1240    3.5510 ca        1 DS4     -0.133000
     18 C34         1.7210   -1.1960   -1.5180 c3        1 DS4     -0.058800
     19 C9          6.3960    1.4760    0.3640 c3        1 DS4     -0.060800
     20 C8          8.3340   -0.2110    1.6590 ce        1 DS4     -0.015200
     21 C43         9.4670    0.2210    2.2170 c2        1 DS4     -0.213200
     22 C44         9.7380    0.9000    3.5160 c3        1 DS4      0.162000
     23 O47        11.1130    1.2390    3.4820 oh        1 DS4     -0.563800
     24 C7          8.9350    2.2590    3.7130 c3        1 DS4      0.605400
     25 F5          7.6880    2.1490    4.2530 f         1 DS4     -0.222467
     26 C15         9.5330   -0.0490    4.7780 c3        1 DS4      0.605400
     27 F2          9.7030   -1.3790    4.5120 f         1 DS4     -0.222467
     28 F3         10.4540    0.2270    5.7620 f         1 DS4     -0.222467
     29 F1          8.3230    0.0420    5.4060 f         1 DS4     -0.222467
     30 F6          9.6080    3.1110    4.5590 f         1 DS4     -0.222467
     31 F4          8.7770    2.9770    2.5600 f         1 DS4     -0.222467
     32 C50        -1.2980   -0.8840   -1.9230 ca        1 DS4     -0.136000
     33 C51        -0.8760    0.2080   -1.1530 cp        1 DS4     -0.069000
     34 C52        -1.3940    1.4770   -1.4290 ca        1 DS4     -0.166000
     35 C53        -2.3180    1.6480   -2.4750 ca        1 DS4      0.087900
     36 C54        -2.7430    0.5490   -3.2590 ca        1 DS4     -0.026300
     37 C55        -2.2150   -0.7130   -2.9540 ca        1 DS4     -0.112000
     38 C56        -3.7240    0.7110   -4.3540 c3        1 DS4     -0.182100
     39 C57        -3.3840   -0.1140   -5.6220 c         1 DS4      0.918600
     40 O58        -3.4170   -1.3760   -5.5400 o         1 DS4     -0.836300
     41 O59        -3.1290    0.5260   -6.6770 o         1 DS4     -0.836300
     42 F60        -2.7970    2.8970   -2.7130 f         1 DS4     -0.155900
     43 H1          3.1270   -1.2740    0.7410 ha        1 DS4      0.132000
     44 H2          0.3210    0.8480    3.2590 ha        1 DS4      0.125000
     45 H3         -1.2100    1.0800    1.3390 ha        1 DS4      0.137000
     46 H4          3.3530    0.4530    5.2090 hc        1 DS4      0.039700
     47 H5          1.5930    0.5770    4.8360 hc        1 DS4      0.039700
     48 H6          1.3140   -1.6860    4.2330 hc        1 DS4      0.039700
     49 H7          2.9680   -1.8510    4.9340 hc        1 DS4      0.039700
     50 H8          2.3630   -3.8850    3.6830 hc        1 DS4      0.039033
     51 H9          3.7020   -3.0400    2.8000 hc        1 DS4      0.039033
     52 H10         2.0020   -2.9200    2.1910 hc        1 DS4      0.039033
     53 H11         2.6260    2.8040    4.7370 hc        1 DS4      0.039033
     54 H12         3.8810    2.2320    3.5620 hc        1 DS4      0.039033
     55 H13         2.1460    2.3230    3.0550 hc        1 DS4      0.039033
     56 H14         3.9020    1.1030    1.3320 ha        1 DS4      0.155000
     57 H15         7.3080   -1.6420    3.7170 ha        1 DS4      0.132000
     58 H16         4.9370   -1.7900    4.3810 ha        1 DS4      0.138000
     59 H17         2.8300   -1.1420   -1.6410 hc        1 DS4      0.049700
     60 H18         1.2400   -0.6500   -2.3690 hc        1 DS4      0.049700
     61 H19         1.4140   -2.2710   -1.5770 hc        1 DS4      0.049700
     62 H20         6.8980    0.8960   -0.4510 hc        1 DS4      0.049367
     63 H21         7.1190    2.2430    0.7430 hc        1 DS4      0.049367
     64 H22         5.5140    2.0050   -0.0720 hc        1 DS4      0.049367
     65 H23         8.4210   -0.6540    0.6420 ha        1 DS4      0.142000
     66 H24        10.4100    0.0890    1.6440 ha        1 DS4      0.161000
     67 H25        11.3390    1.6970    4.3090 ho        1 DS4      0.436000
     68 H27        -1.0790    2.3480   -0.8390 ha        1 DS4      0.129000
     69 H28        -2.5350   -1.5670   -3.5850 ha        1 DS4      0.202000
     70 H29        -3.8110    1.7890   -4.6440 hc        1 DS4      0.049200
     71 H30        -4.7270    0.3600   -3.9930 hc        1 DS4      0.049200
     72 H26        -0.8990   -1.8870   -1.7080 ha        1 DS4      0.124000
@<TRIPOS>BOND
     1    1    2 ar  
     2    1    6 ar  
     3    1   33 1   
     4    2    3 ar  
     5    2   18 1   
     6    3    4 ar  
     7    3   43 1   
     8    4    5 ar  
     9    4    7 1   
    10    5    6 ar  
    11    5   44 1   
    12    6   45 1   
    13    7    8 1   
    14    7    9 1   
    15    7   10 1   
    16    8   13 ar  
    17    8   17 ar  
    18    9   12 1   
    19    9   46 1   
    20    9   47 1   
    21   10   11 1   
    22   10   48 1   
    23   10   49 1   
    24   11   50 1   
    25   11   51 1   
    26   11   52 1   
    27   12   53 1   
    28   12   54 1   
    29   12   55 1   
    30   13   14 ar  
    31   13   56 1   
    32   14   15 ar  
    33   14   19 1   
    34   15   16 ar  
    35   15   20 1   
    36   16   17 ar  
    37   16   57 1   
    38   17   58 1   
    39   18   59 1   
    40   18   60 1   
    41   18   61 1   
    42   19   62 1   
    43   19   63 1   
    44   19   64 1   
    45   20   21 2   
    46   20   65 1   
    47   21   22 1   
    48   21   66 1   
    49   22   23 1   
    50   22   24 1   
    51   22   26 1   
    52   23   67 1   
    53   24   25 1   
    54   24   30 1   
    55   24   31 1   
    56   26   27 1   
    57   26   28 1   
    58   26   29 1   
    59   32   33 ar  
    60   32   37 ar  
    61   32   72 1   
    62   33   34 ar  
    63   34   35 ar  
    64   34   68 1   
    65   35   36 ar  
    66   35   42 1   
    67   36   37 ar  
    68   36   38 1   
    69   37   69 1   
    70   38   39 1   
    71   38   70 1   
    72   38   71 1   
    73   39   40 1   
    74   39   41 1   
@<TRIPOS>SUBSTRUCTURE
     1 DS4         1 TEMP              0 ****  ****    0 ROOT
