@<TRIPOS>MOLECULE
DS4
   72    62     1     0     0
SMALL
bcc


@<TRIPOS>ATOM
      1 C1         -2.5010   -0.1850   -2.0330 c1        1 DS4     -0.031000
      2 C2         -3.1980    0.0700   -0.8550 c1        1 DS4     -0.060000
      3 C3         -2.5500    0.0230    0.3480 c1        1 DS4     -0.135000
      4 C4         -1.1710   -0.2850    0.3940 c1        1 DS4     -0.058000
      5 C5         -0.4970   -0.5310   -0.7460 c1        1 DS4     -0.131000
      6 C6         -1.1630   -0.4830   -1.9830 c1        1 DS4     -0.146000
      7 C10        -0.4200   -0.2230    1.7170 c3        1 DS4      0.037000
      8 C11         1.1440   -0.1020    1.4350 c1        1 DS4     -0.058000
      9 C12        -0.9170    1.0780    2.5610 c3        1 DS4     -0.146000
     10 C13        -0.6900   -1.5120    2.5230 c3        1 DS4     -0.146000
     11 C14        -2.1230   -1.5440    2.9630 c3        1 DS4     -0.214000
     12 C20        -1.9290    0.6490    3.6430 c3        1 DS4     -0.214000
     13 C26         1.6970    1.1590    1.2670 c1        1 DS4     -0.131000
     14 C27         2.9510    1.4730    1.8740 c1        1 DS4     -0.041000
     15 C28         3.6170    0.5220    2.6300 c1        1 DS4     -0.122000
     16 C29         3.0580   -0.7530    2.8000 c1        1 DS4     -0.125000
     17 C30         1.8150   -1.0660    2.1990 c1        1 DS4     -0.125000
     18 C34        -4.7450    0.3530   -0.9010 c2        1 DS4     -0.185000
     19 C9          3.5000    2.9020    1.8000 c3        1 DS4     -0.188000
     20 C8          4.8710    0.9430    3.4620 c2        1 DS4     -0.020000
     21 C43         6.0890    0.4540    3.1460 c1        1 DS4     -0.264000
     22 C44         6.2440   -0.5260    1.9640 c2        1 DS4      0.079000
     23 O47         5.0640   -0.4670    1.1270 oh        1 DS4     -0.285000
     24 C7          7.4910   -0.1400    1.1260 c3        1 DS4      0.410000
     25 F5          7.1600    0.8330    0.2450 f         1 DS4     -0.152000
     26 C15         6.4170   -1.9670    2.5170 c3        1 DS4      0.410000
     27 F2          5.5020   -2.1930    3.4430 f         1 DS4     -0.152000
     28 F3          6.2740   -2.8540    1.5180 f         1 DS4     -0.152000
     29 F1          7.6870   -2.1000    3.0800 f         1 DS4     -0.152000
     30 F6          8.4160    0.2870    1.9070 f         1 DS4     -0.152000
     31 F4          7.9170   -1.1840    0.4780 f         1 DS4     -0.152000
     32 C50        -3.7770   -1.3370   -3.9740 c1        1 DS4     -0.135000
     33 C51        -3.2310   -0.1310   -3.3980 c1        1 DS4     -0.031000
     34 C52        -3.3880    1.0770   -4.0480 c1        1 DS4     -0.146000
     35 C53        -4.0910    1.1370   -5.2910 c1        1 DS4      0.054000
     36 C54        -4.6260   -0.0480   -5.8540 c1        1 DS4     -0.031000
     37 C55        -4.4630   -1.2850   -5.1840 c2        1 DS4     -0.112000
     38 C56        -5.1990   -0.0270   -7.3450 c2        1 DS4     -0.219000
     39 C57        -6.6600    0.3000   -7.3220 c2        1 DS4      0.339000
     40 O58        -7.0240    1.4760   -7.2100 o         1 DS4     -0.570000
     41 O59        -7.4790   -0.5990   -7.2380 o         1 DS4     -0.570000
     42 F60        -4.0300    2.3330   -6.0830 f         1 DS4     -0.120000
     43 H1         -3.0400    0.2030    1.1760 ha        1 DS4      0.129000
     44 H2          0.3790   -0.7250   -0.7150 ha        1 DS4      0.144000
     45 H3         -0.6650   -0.6010   -2.8040 ha        1 DS4      0.133500
     46 H4         -0.1520    1.5000    2.9830 hc        1 DS4      0.078750
     47 H5         -1.3160    1.6700    1.9950 hc        1 DS4      0.078750
     48 H6         -0.0760   -1.5350    3.3480 hc        1 DS4      0.078750
     49 H7         -0.5070   -2.2830    1.9630 hc        1 DS4      0.078750
     50 H8         -2.2150   -1.0640    3.7810 hc        1 DS4      0.077833
     51 H9         -2.6950   -1.1220    2.2640 hc        1 DS4      0.077833
     52 H10        -2.4020   -2.4700    3.0970 hc        1 DS4      0.077833
     53 H11        -2.6190    0.0820    3.2400 hc        1 DS4      0.077833
     54 H12        -1.4920    0.1790    4.3020 hc        1 DS4      0.077833
     55 H13        -2.3810    1.5130    4.0660 hc        1 DS4      0.077833
     56 H14         1.2710    1.8140    0.6190 ha        1 DS4      0.144000
     57 H15         3.4620   -1.3830    3.4470 ha        1 DS4      0.143500
     58 H16         1.9660   -2.0700    1.9620 ha        1 DS4      0.143500
     59 H17        -4.9470    0.9110   -1.6470 ha        1 DS4      0.089333
     60 H18        -5.0400    0.8310   -0.0260 ha        1 DS4      0.089333
     61 H19        -5.2010   -0.4510   -0.9830 ha        1 DS4      0.089333
     62 H20         3.3930    3.2330    0.9300 hc        1 DS4      0.090000
     63 H21         4.4610    2.9000    2.0360 hc        1 DS4      0.090000
     64 H22         3.0270    3.4540    2.4080 hc        1 DS4      0.090000
     65 H23         4.7680    1.6010    4.2560 ha        1 DS4      0.141000
     66 H24         6.9490    0.7450    3.7170 ha        1 DS4      0.157000
     67 H25         5.2000    0.1980    0.4190 ho        1 DS4      0.251000
     68 H26        -3.6440   -2.1360   -3.5610 ha        1 DS4      0.124000
     69 H27        -3.0330    1.8590   -3.6730 ha        1 DS4      0.133500
     70 H28        -4.7450   -2.1020   -5.6090 ha        1 DS4      0.202000
     71 H29        -5.0580   -0.9770   -7.7860 ha        1 DS4      0.089500
     72 H30        -4.6890    0.6990   -7.9070 ha        1 DS4      0.089500
@<TRIPOS>BOND
     1    1    6 1   
     2    1   33 1   
     3    2    3 1   
     4    3   43 1   
     5    4    5 1   
     6    4    7 1   
     7    5   44 1   
     8    6   45 1   
     9    7    8 1   
    10    7    9 1   
    11    7   10 1   
    12    8   13 1   
    13    9   12 1   
    14    9   46 1   
    15    9   47 1   
    16   10   11 1   
    17   10   48 1   
    18   10   49 1   
    19   11   50 1   
    20   11   51 1   
    21   11   52 1   
    22   12   53 1   
    23   12   54 1   
    24   12   55 1   
    25   13   56 1   
    26   14   15 1   
    27   14   19 1   
    28   15   20 1   
    29   16   17 1   
    30   16   57 1   
    31   17   58 1   
    32   18   59 1   
    33   18   60 1   
    34   18   61 1   
    35   19   62 1   
    36   19   63 1   
    37   19   64 1   
    38   20   21 1   
    39   20   65 1   
    40   21   66 1   
    41   22   23 1   
    42   22   24 1   
    43   22   26 1   
    44   23   67 1   
    45   24   25 1   
    46   24   30 1   
    47   24   31 1   
    48   26   27 1   
    49   26   28 1   
    50   26   29 1   
    51   32   37 1   
    52   32   68 1   
    53   33   34 1   
    54   34   69 1   
    55   35   36 1   
    56   36   37 1   
    57   37   70 1   
    58   38   39 1   
    59   38   71 1   
    60   38   72 1   
    61   39   40 1   
    62   39   41 1   
@<TRIPOS>SUBSTRUCTURE
     1 DS4         1 TEMP              0 ****  ****    0 ROOT
