@<TRIPOS>MOLECULE
DS5
   71    72     1     0     0
SMALL
bcc


@<TRIPOS>ATOM
      1 C1         -0.2720   -0.0350   -0.0650 ca        1 DS5      0.149100
      2 O1         -1.4930   -5.7060    9.8100 oh        1 DS5     -0.554800
      3 C2          1.1280    0.1580   -0.1490 ca        1 DS5     -0.110300
      4 O2         -0.9550    0.0990   -1.2490 os        1 DS5     -0.318900
      5 C3          1.8940    0.0400    1.0080 ca        1 DS5     -0.101000
      6 C4          1.3160   -0.2750    2.2460 ca        1 DS5     -0.125300
      7 C5         -0.0720   -0.4430    2.3070 ca        1 DS5     -0.099000
      8 C6         -0.8660   -0.3320    1.1680 ca        1 DS5     -0.208000
      9 C7          2.1470   -0.3470    3.5030 c3        1 DS5      0.049600
     10 C8          1.6200   -1.3770    4.4760 ca        1 DS5     -0.020300
     11 C9          1.0440   -2.5630    4.0030 ca        1 DS5     -0.137000
     12 C10         0.5920   -3.5600    4.8730 ca        1 DS5     -0.026300
     13 C11        -0.0290   -4.7850    4.3190 c3        1 DS5     -0.066800
     14 C12         0.7280   -3.3690    6.2630 ca        1 DS5     -0.043000
     15 C13         0.2880   -4.3460    7.1750 cg        1 DS5      0.065000
     16 C14        -0.0880   -5.1750    7.9560 c1        1 DS5     -0.275100
     17 C15        -0.5310   -6.1700    8.8870 c3        1 DS5      0.215900
     18 C16         0.6660   -6.6790    9.8030 c3        1 DS5      0.631400
     19 C17        -1.1850   -7.3970    8.1020 c3        1 DS5      0.631400
     20 C18         1.3180   -2.1890    6.7440 ca        1 DS5     -0.088000
     21 C20         3.6190   -0.7230    3.2250 c3        1 DS5     -0.068900
     22 C26        -2.8850    0.0170   -2.6280 c3        1 DS5      0.135100
     23 C27        -4.3110    0.5560   -2.6220 c3        1 DS5     -0.103400
     24 C28        -4.8190    0.8610   -4.0090 c3        1 DS5     -0.207400
     25 C29        -6.1280    1.6760   -3.9500 c         1 DS5      0.912600
     26 C22         2.1770    1.0730    4.1090 c3        1 DS5     -0.068900
     27 C21         3.8060   -2.0360    2.5120 c3        1 DS5     -0.100100
     28 C23         0.8430    1.5790    4.5880 c3        1 DS5     -0.100100
     29 C19         1.7610   -1.2110    5.8620 ca        1 DS5     -0.147000
     30 C24         1.7460    0.4860   -1.4530 c3        1 DS5     -0.041800
     31 C25        -2.3730   -0.1320   -1.1900 c3        1 DS5      0.120400
     32 F1          0.2650   -7.5360   10.7890 f         1 DS5     -0.219467
     33 F2          1.6360   -7.3520    9.1100 f         1 DS5     -0.219467
     34 F3          1.3170   -5.6660   10.4500 f         1 DS5     -0.219467
     35 F4         -0.5180   -7.7810    6.9730 f         1 DS5     -0.219467
     36 F5         -1.3020   -8.5330    8.8550 f         1 DS5     -0.219467
     37 F6         -2.4620   -7.1060    7.6950 f         1 DS5     -0.219467
     38 O3         -2.7930   -1.2790   -3.2150 oh        1 DS5     -0.625800
     39 O5         -6.2460    2.5550   -3.0500 o         1 DS5     -0.843800
     40 O4         -7.0060    1.4260   -4.8230 o         1 DS5     -0.843800
     41 H1         -2.1490   -5.1890    9.3190 ho        1 DS5      0.444000
     42 H2          2.9800    0.2050    0.9300 ha        1 DS5      0.128000
     43 H3         -0.5550   -0.6610    3.2730 ha        1 DS5      0.132000
     44 H4         -1.9530   -0.4710    1.2500 ha        1 DS5      0.145000
     45 H5          0.9450   -2.7180    2.9150 ha        1 DS5      0.159000
     46 H6         -1.1200   -4.6070    4.1380 hc        1 DS5      0.055367
     47 H7          0.0730   -5.6490    5.0230 hc        1 DS5      0.055367
     48 H8          0.4440   -5.0640    3.3450 hc        1 DS5      0.055367
     49 H9          1.4330   -2.0420    7.8290 ha        1 DS5      0.139000
     50 H10         4.0950    0.1010    2.6310 hc        1 DS5      0.040200
     51 H11         4.1520   -0.7630    4.2130 hc        1 DS5      0.040200
     52 H12        -2.2050    0.7080   -3.2020 h1        1 DS5      0.053700
     53 H13        -4.3530    1.5040   -2.0200 hc        1 DS5      0.062200
     54 H14        -4.9850   -0.1900   -2.1280 hc        1 DS5      0.062200
     55 H15        -5.0040   -0.0800   -4.5850 hc        1 DS5      0.023200
     56 H16        -4.0660    1.4690   -4.5720 hc        1 DS5      0.023200
     57 H17         2.5650    1.7660    3.3130 hc        1 DS5      0.040200
     58 H18         2.9170    1.0970    4.9510 hc        1 DS5      0.040200
     59 H19         3.4380   -2.8840    3.1390 hc        1 DS5      0.039367
     60 H20         4.8900   -2.2000    2.2970 hc        1 DS5      0.039367
     61 H21         3.2450   -2.0500    1.5450 hc        1 DS5      0.039367
     62 H22         0.1220    1.6560    3.7370 hc        1 DS5      0.039367
     63 H23         0.9630    2.5930    5.0420 hc        1 DS5      0.039367
     64 H24         0.4050    0.8960    5.3560 hc        1 DS5      0.039367
     65 H25         2.2270   -0.3010    6.2700 ha        1 DS5      0.142000
     66 H26         1.3660    1.4750   -1.8150 hc        1 DS5      0.046367
     67 H27         1.4630   -0.2840   -2.2140 hc        1 DS5      0.046367
     68 H28         2.8590    0.5320   -1.3780 hc        1 DS5      0.046367
     69 H29        -2.8410    0.6370   -0.5220 h1        1 DS5      0.051200
     70 H30        -2.5690   -1.1650   -0.8050 h1        1 DS5      0.051200
     71 H31        -3.4470   -1.3100   -3.9240 ho        1 DS5      0.414000
@<TRIPOS>BOND
     1    1    3 ar  
     2    1    4 1   
     3    1    8 ar  
     4    2   17 1   
     5    2   41 1   
     6    3    5 ar  
     7    3   30 1   
     8    4   31 1   
     9    5    6 ar  
    10    5   42 1   
    11    6    7 ar  
    12    6    9 1   
    13    7    8 ar  
    14    7   43 1   
    15    8   44 1   
    16    9   10 1   
    17    9   21 1   
    18    9   26 1   
    19   10   11 ar  
    20   10   29 ar  
    21   11   12 ar  
    22   11   45 1   
    23   12   13 1   
    24   12   14 ar  
    25   13   46 1   
    26   13   47 1   
    27   13   48 1   
    28   14   15 1   
    29   14   20 ar  
    30   15   16 3   
    31   16   17 1   
    32   17   18 1   
    33   17   19 1   
    34   18   32 1   
    35   18   33 1   
    36   18   34 1   
    37   19   35 1   
    38   19   36 1   
    39   19   37 1   
    40   20   29 ar  
    41   20   49 1   
    42   21   27 1   
    43   21   50 1   
    44   21   51 1   
    45   22   23 1   
    46   22   31 1   
    47   22   38 1   
    48   22   52 1   
    49   23   24 1   
    50   23   53 1   
    51   23   54 1   
    52   24   25 1   
    53   24   55 1   
    54   24   56 1   
    55   25   39 1   
    56   25   40 1   
    57   26   28 1   
    58   26   57 1   
    59   26   58 1   
    60   27   59 1   
    61   27   60 1   
    62   27   61 1   
    63   28   62 1   
    64   28   63 1   
    65   28   64 1   
    66   29   65 1   
    67   30   66 1   
    68   30   67 1   
    69   30   68 1   
    70   31   69 1   
    71   31   70 1   
    72   38   71 1   
@<TRIPOS>SUBSTRUCTURE
     1 DS5         1 TEMP              0 ****  ****    0 ROOT
