@<TRIPOS>MOLECULE
DS5
   71    72     1     0     0
SMALL
bcc


@<TRIPOS>ATOM
      1 C1         -0.2960    0.0370   -0.0940 ca        1 DS5      0.149100
      2 O1         -1.9210   -5.8180    9.6140 oh        1 DS5     -0.554800
      3 C2          1.1090    0.2050   -0.1320 ca        1 DS5     -0.110300
      4 O2         -0.9410    0.2100   -1.2950 os        1 DS5     -0.318900
      5 C3          1.8370    0.0480    1.0450 ca        1 DS5     -0.101000
      6 C4          1.2160   -0.2820    2.2570 ca        1 DS5     -0.125300
      7 C5         -0.1770   -0.4240    2.2730 ca        1 DS5     -0.099000
      8 C6         -0.9330   -0.2740    1.1130 ca        1 DS5     -0.208000
      9 C7          2.0060   -0.3960    3.5380 c3        1 DS5      0.049600
     10 C8          1.4310   -1.4360    4.4720 ca        1 DS5     -0.020300
     11 C9          0.8480   -2.6010    3.9550 ca        1 DS5     -0.137000
     12 C10         0.3510   -3.6070    4.7890 ca        1 DS5     -0.026300
     13 C11        -0.2750   -4.8090    4.1900 c3        1 DS5     -0.066800
     14 C12         0.4480   -3.4490    6.1860 ca        1 DS5     -0.043000
     15 C13        -0.0370   -4.4360    7.0630 cg        1 DS5      0.065000
     16 C14        -0.4520   -5.2740    7.8140 c1        1 DS5     -0.275100
     17 C15        -0.9420   -6.2810    8.7100 c3        1 DS5      0.215900
     18 C16         0.2180   -6.8330    9.6480 c3        1 DS5      0.631400
     19 C17        -1.5960   -7.4770    7.8790 c3        1 DS5      0.631400
     20 C18         1.0460   -2.2910    6.7110 ca        1 DS5     -0.088000
     21 C20         3.4790   -0.7950    3.2950 c3        1 DS5     -0.068900
     22 C26        -2.8290    0.1930   -2.7330 c3        1 DS5      0.135100
     23 C27        -4.2430    0.7590   -2.7590 c3        1 DS5     -0.103400
     24 C28        -4.7030    1.1030   -4.1530 c3        1 DS5     -0.207400
     25 C29        -5.9990    1.9410   -4.1160 c         1 DS5      0.912600
     26 C22         2.0450    1.0090    4.1740 c3        1 DS5     -0.068900
     27 C21         3.6630   -2.0950    2.5590 c3        1 DS5     -0.100100
     28 C23         0.7060    1.5310    4.6240 c3        1 DS5     -0.100100
     29 C19         1.5330   -1.3030    5.8640 ca        1 DS5     -0.147000
     30 C24         1.7730    0.5490   -1.4090 c3        1 DS5     -0.041800
     31 C25        -2.3640    0.0040   -1.2840 c3        1 DS5      0.120400
     32 F1         -0.2290   -7.7040   10.6030 f         1 DS5     -0.219467
     33 F2          1.1940   -7.5110    8.9690 f         1 DS5     -0.219467
     34 F3          0.8690   -5.8480   10.3370 f         1 DS5     -0.219467
     35 F4         -0.9040   -7.8490    6.7610 f         1 DS5     -0.219467
     36 F5         -1.7580   -8.6270    8.6010 f         1 DS5     -0.219467
     37 F6         -2.8540   -7.1510    7.4410 f         1 DS5     -0.219467
     38 O3         -2.7420   -1.0910   -3.3450 oh        1 DS5     -0.625800
     39 O5         -6.1280    2.8030   -3.2000 o         1 DS5     -0.843800
     40 O4         -6.8540    1.7260   -5.0200 o         1 DS5     -0.843800
     41 H1         -2.5530   -5.2770    9.1160 ho        1 DS5      0.444000
     42 H2          2.9280    0.1940    1.0030 ha        1 DS5      0.128000
     43 H3         -0.6920   -0.6540    3.2190 ha        1 DS5      0.132000
     44 H4         -2.0240   -0.3940    1.1600 ha        1 DS5      0.145000
     45 H5          0.7790   -2.7310    2.8610 ha        1 DS5      0.159000
     46 H6         -1.3560   -4.6060    3.9780 hc        1 DS5      0.055367
     47 H7         -0.2120   -5.6890    4.8780 hc        1 DS5      0.055367
     48 H8          0.2240   -5.0770    3.2260 hc        1 DS5      0.055367
     49 H9          1.1300   -2.1700    7.8020 ha        1 DS5      0.139000
     50 H10         3.9880    0.0330    2.7340 hc        1 DS5      0.040200
     51 H11         3.9810   -0.8660    4.2980 hc        1 DS5      0.040200
     52 H12        -2.1190    0.8830   -3.2710 h1        1 DS5      0.053700
     53 H13        -4.2870    1.6940   -2.1370 hc        1 DS5      0.062200
     54 H14        -4.9460    0.0150   -2.3020 hc        1 DS5      0.062200
     55 H15        -4.8880    0.1780   -4.7550 hc        1 DS5      0.023200
     56 H16        -3.9230    1.7080   -4.6800 hc        1 DS5      0.023200
     57 H17         2.4690    1.7110    3.4060 hc        1 DS5      0.040200
     58 H18         2.7590    1.0020    5.0390 hc        1 DS5      0.040200
     59 H19         3.2610   -2.9500    3.1570 hc        1 DS5      0.039367
     60 H20         4.7500   -2.2750    2.3740 hc        1 DS5      0.039367
     61 H21         3.1320   -2.0780    1.5760 hc        1 DS5      0.039367
     62 H22         0.0130    1.6400    3.7540 hc        1 DS5      0.039367
     63 H23         0.8310    2.5320    5.1030 hc        1 DS5      0.039367
     64 H24         0.2320    0.8400    5.3630 hc        1 DS5      0.039367
     65 H25         2.0030   -0.4110    6.3060 ha        1 DS5      0.142000
     66 H26         1.4220    1.5530   -1.7610 hc        1 DS5      0.046367
     67 H27         1.4980   -0.1990   -2.1950 hc        1 DS5      0.046367
     68 H28         2.8840    0.5720   -1.3000 hc        1 DS5      0.046367
     69 H29        -2.8380    0.7670   -0.6140 h1        1 DS5      0.051200
     70 H30        -2.5900   -1.0330   -0.9280 h1        1 DS5      0.051200
     71 H31        -3.3750   -1.0950   -4.0740 ho        1 DS5      0.414000
@<TRIPOS>BOND
     1    1    3 ar  
     2    1    4 1   
     3    1    8 ar  
     4    2   17 1   
     5    2   41 1   
     6    3    5 ar  
     7    3   30 1   
     8    4   31 1   
     9    5    6 ar  
    10    5   42 1   
    11    6    7 ar  
    12    6    9 1   
    13    7    8 ar  
    14    7   43 1   
    15    8   44 1   
    16    9   10 1   
    17    9   21 1   
    18    9   26 1   
    19   10   11 ar  
    20   10   29 ar  
    21   11   12 ar  
    22   11   45 1   
    23   12   13 1   
    24   12   14 ar  
    25   13   46 1   
    26   13   47 1   
    27   13   48 1   
    28   14   15 1   
    29   14   20 ar  
    30   15   16 3   
    31   16   17 1   
    32   17   18 1   
    33   17   19 1   
    34   18   32 1   
    35   18   33 1   
    36   18   34 1   
    37   19   35 1   
    38   19   36 1   
    39   19   37 1   
    40   20   29 ar  
    41   20   49 1   
    42   21   27 1   
    43   21   50 1   
    44   21   51 1   
    45   22   23 1   
    46   22   31 1   
    47   22   38 1   
    48   22   52 1   
    49   23   24 1   
    50   23   53 1   
    51   23   54 1   
    52   24   25 1   
    53   24   55 1   
    54   24   56 1   
    55   25   39 1   
    56   25   40 1   
    57   26   28 1   
    58   26   57 1   
    59   26   58 1   
    60   27   59 1   
    61   27   60 1   
    62   27   61 1   
    63   28   62 1   
    64   28   63 1   
    65   28   64 1   
    66   29   65 1   
    67   30   66 1   
    68   30   67 1   
    69   30   68 1   
    70   31   69 1   
    71   31   70 1   
    72   38   71 1   
@<TRIPOS>SUBSTRUCTURE
     1 DS5         1 TEMP              0 ****  ****    0 ROOT
