@<TRIPOS>MOLECULE
DS5
   71    72     1     0     0
SMALL
bcc


@<TRIPOS>ATOM
      1 C1         -4.1040    1.0080   -0.3930 ca        1 DS5      0.150100
      2 O1          7.7480    0.0560    0.0430 oh        1 DS5     -0.555800
      3 C2         -4.0520    2.3790   -0.7400 ca        1 DS5     -0.113300
      4 O2         -5.2520    0.3530   -0.7650 os        1 DS5     -0.322900
      5 C3         -2.9160    3.1150   -0.4080 ca        1 DS5     -0.101000
      6 C4         -1.8250    2.5290    0.2480 ca        1 DS5     -0.128300
      7 C5         -1.9090    1.1760    0.6000 ca        1 DS5     -0.099000
      8 C6         -3.0300    0.4140    0.2820 ca        1 DS5     -0.208000
      9 C7         -0.6230    3.3470    0.6520 c3        1 DS5      0.049600
     10 C8          0.6600    2.5500    0.5930 ca        1 DS5     -0.019300
     11 C9          0.8330    1.5560   -0.3780 ca        1 DS5     -0.137000
     12 C10         2.0300    0.8430   -0.4970 ca        1 DS5     -0.025300
     13 C11         2.1520   -0.1990   -1.5440 c3        1 DS5     -0.067800
     14 C12         3.0960    1.1430    0.3740 ca        1 DS5     -0.043000
     15 C13         4.3220    0.4600    0.2850 cg        1 DS5      0.066000
     16 C14         5.3740   -0.1110    0.2040 c1        1 DS5     -0.276100
     17 C15         6.6270   -0.8000    0.1060 c3        1 DS5      0.214900
     18 C16         6.6490   -1.7010   -1.2120 c3        1 DS5      0.631900
     19 C17         6.8990   -1.6960    1.3910 c3        1 DS5      0.631900
     20 C18         2.9330    2.1450    1.3450 ca        1 DS5     -0.089000
     21 C20        -0.4100    4.5790   -0.2550 c3        1 DS5     -0.068400
     22 C26        -6.7100   -1.5240   -0.9010 c3        1 DS5      0.165100
     23 C27        -7.7960   -1.2840    0.1400 c3        1 DS5     -0.091400
     24 C28        -9.1390   -1.8360   -0.2790 c3        1 DS5     -0.206400
     25 C29        -9.4450   -3.1910    0.3830 c         1 DS5      0.908600
     26 C22        -0.9050    3.9020    2.0640 c3        1 DS5     -0.068400
     27 C21        -0.2370    4.2580   -1.7160 c3        1 DS5     -0.099600
     28 C23        -0.9870    2.8550    3.1430 c3        1 DS5     -0.099600
     29 C19         1.7340    2.8400    1.4490 ca        1 DS5     -0.147000
     30 C24        -5.1960    3.0030   -1.4400 c3        1 DS5     -0.040800
     31 C25        -5.3470   -1.0280   -0.3780 c3        1 DS5      0.095400
     32 F1          7.6260   -2.6580   -1.2110 f         1 DS5     -0.218967
     33 F2          5.4880   -2.3710   -1.4730 f         1 DS5     -0.218967
     34 F3          6.8950   -0.9430   -2.3290 f         1 DS5     -0.218967
     35 F4          6.0180   -2.7330    1.5310 f         1 DS5     -0.218967
     36 F5          8.1400   -2.2710    1.3940 f         1 DS5     -0.218967
     37 F6          6.8280   -0.9930    2.5610 f         1 DS5     -0.218967
     38 O3         -6.5380   -2.8770   -1.2630 oh        1 DS5     -0.646800
     39 O5         -8.4860   -4.0040    0.5630 o         1 DS5     -0.846800
     40 O4        -10.6390   -3.4360    0.7080 o         1 DS5     -0.846800
     41 H1          7.5450    0.7630   -0.5870 ho        1 DS5      0.441000
     42 H2         -2.8960    4.1830   -0.6720 ha        1 DS5      0.127000
     43 H3         -1.0780    0.7000    1.1440 ha        1 DS5      0.132000
     44 H4         -3.0640   -0.6470    0.5690 ha        1 DS5      0.148000
     45 H5          0.0050    1.3260   -1.0710 ha        1 DS5      0.159000
     46 H6          2.3260    0.2830   -2.5400 hc        1 DS5      0.055700
     47 H7          3.0020   -0.8950   -1.3370 hc        1 DS5      0.055700
     48 H8          1.2110   -0.8000   -1.6080 hc        1 DS5      0.055700
     49 H9          3.7630    2.3790    2.0290 ha        1 DS5      0.138000
     50 H10        -1.2750    5.2800   -0.1220 hc        1 DS5      0.039700
     51 H11         0.5050    5.1180    0.1120 hc        1 DS5      0.039700
     52 H12        -6.9540   -0.9700   -1.8530 h1        1 DS5      0.046700
     53 H13        -7.4880   -1.7710    1.1050 hc        1 DS5      0.041200
     54 H14        -7.8610   -0.1780    0.3150 hc        1 DS5      0.041200
     55 H15        -9.9500   -1.1150   -0.0040 hc        1 DS5      0.033700
     56 H16        -9.1730   -1.9860   -1.3880 hc        1 DS5      0.033700
     57 H17        -0.1180    4.6560    2.3280 hc        1 DS5      0.039700
     58 H18        -1.8830    4.4540    2.0160 hc        1 DS5      0.039700
     59 H19        -1.1150    3.6890   -2.1080 hc        1 DS5      0.039033
     60 H20        -0.1350    5.2020   -2.3040 hc        1 DS5      0.039033
     61 H21         0.6790    3.6390   -1.8810 hc        1 DS5      0.039033
     62 H22        -1.1550    3.3440    4.1340 hc        1 DS5      0.039033
     63 H23        -1.8350    2.1530    2.9480 hc        1 DS5      0.039033
     64 H24        -0.0450    2.2580    3.1980 hc        1 DS5      0.039033
     65 H25         1.6400    3.6230    2.2160 ha        1 DS5      0.141000
     66 H26        -6.1330    2.8580   -0.8440 hc        1 DS5      0.045367
     67 H27        -5.0330    4.0970   -1.5990 hc        1 DS5      0.045367
     68 H28        -5.3490    2.5110   -2.4340 hc        1 DS5      0.045367
     69 H29        -4.5170   -1.6090   -0.8570 h1        1 DS5      0.045700
     70 H30        -5.2810   -1.1090    0.7370 h1        1 DS5      0.045700
     71 H31        -7.0750   -3.4310   -0.6600 ho        1 DS5      0.475000
@<TRIPOS>BOND
     1    1    3 ar  
     2    1    4 1   
     3    1    8 ar  
     4    2   17 1   
     5    2   41 1   
     6    3    5 ar  
     7    3   30 1   
     8    4   31 1   
     9    5    6 ar  
    10    5   42 1   
    11    6    7 ar  
    12    6    9 1   
    13    7    8 ar  
    14    7   43 1   
    15    8   44 1   
    16    9   10 1   
    17    9   21 1   
    18    9   26 1   
    19   10   11 ar  
    20   10   29 ar  
    21   11   12 ar  
    22   11   45 1   
    23   12   13 1   
    24   12   14 ar  
    25   13   46 1   
    26   13   47 1   
    27   13   48 1   
    28   14   15 1   
    29   14   20 ar  
    30   15   16 3   
    31   16   17 1   
    32   17   18 1   
    33   17   19 1   
    34   18   32 1   
    35   18   33 1   
    36   18   34 1   
    37   19   35 1   
    38   19   36 1   
    39   19   37 1   
    40   20   29 ar  
    41   20   49 1   
    42   21   27 1   
    43   21   50 1   
    44   21   51 1   
    45   22   23 1   
    46   22   31 1   
    47   22   38 1   
    48   22   52 1   
    49   23   24 1   
    50   23   53 1   
    51   23   54 1   
    52   24   25 1   
    53   24   55 1   
    54   24   56 1   
    55   25   39 1   
    56   25   40 1   
    57   26   28 1   
    58   26   57 1   
    59   26   58 1   
    60   27   59 1   
    61   27   60 1   
    62   27   61 1   
    63   28   62 1   
    64   28   63 1   
    65   28   64 1   
    66   29   65 1   
    67   30   66 1   
    68   30   67 1   
    69   30   68 1   
    70   31   69 1   
    71   31   70 1   
    72   38   71 1   
@<TRIPOS>SUBSTRUCTURE
     1 DS5         1 TEMP              0 ****  ****    0 ROOT
