@<TRIPOS>MOLECULE
DS6
   81    82     1     0     0
SMALL
bcc


@<TRIPOS>ATOM
      1 C1          0.1490    0.1130   -0.2330 ca        1 DS6      0.144100
      2 O1         -0.8180    1.9250   -3.8770 oh        1 DS6     -0.624800
      3 C2          1.4680   -0.3570   -0.2490 ca        1 DS6     -0.208000
      4 O2         -1.3590   -2.2280   -6.9040 o         1 DS6     -0.844800
      5 C3          2.1580   -0.5140    0.9500 ca        1 DS6     -0.097000
      6 C4          1.5650   -0.2000    2.1790 ca        1 DS6     -0.118300
      7 C5          0.2360    0.2460    2.1800 ca        1 DS6     -0.103000
      8 C6         -0.4820    0.4140    0.9970 ca        1 DS6     -0.112300
      9 C7          8.0050    0.7610    2.9980 c3        1 DS6     -0.035100
     10 C8          9.8740    3.3090    6.1020 c3        1 DS6     -0.088767
     11 C9          6.0140    2.2650    1.4110 c3        1 DS6     -0.051800
     12 C10         2.3200   -0.4220    3.4680 c3        1 DS6      0.054600
     13 C11         3.7970   -0.1410    3.3220 ca        1 DS6     -0.059300
     14 C12         1.8120    0.4790    4.6140 c3        1 DS6     -0.067400
     15 C13         2.0380   -1.8730    3.9110 c3        1 DS6     -0.067400
     16 C14         2.5900   -2.9270    2.9880 c3        1 DS6     -0.098100
     17 C15         9.9180    4.5340    3.9340 c3        1 DS6     -0.088767
     18 C16        -1.6660   -1.0320   -7.1770 c         1 DS6      0.912600
     19 C17        -1.7940   -0.0260   -6.0140 c3        1 DS6     -0.206400
     20 C18        11.9340    3.3450    4.7230 c3        1 DS6     -0.088767
     21 C20         1.8770    1.9550    4.3260 c3        1 DS6     -0.098100
     22 C26         4.2420    0.8770    2.4690 ca        1 DS6     -0.123000
     23 C27         5.6000    1.1910    2.3460 ca        1 DS6     -0.077300
     24 C28         6.5470    0.4790    3.1010 ca        1 DS6     -0.085300
     25 C29         6.1040   -0.5250    3.9670 ca        1 DS6     -0.130000
     26 C30         4.7510   -0.8300    4.0820 ca        1 DS6     -0.135000
     27 C34        -1.8830    0.8900    1.0080 c3        1 DS6     -0.040800
     28 C43         8.4500    1.7850    4.0260 c3        1 DS6     -0.070400
     29 C44         9.9550    2.0270    3.9370 c3        1 DS6      0.149100
     30 O47        10.5650    0.8640    4.4890 oh        1 DS6     -0.600800
     31 C48        10.4110    3.3030    4.6810 c3        1 DS6     -0.085000
     32 O62        -0.6260    0.3020   -1.3530 os        1 DS6     -0.320900
     33 C63         0.0350    0.1160   -2.6160 c3        1 DS6      0.121400
     34 C64        -0.9810    0.5210   -3.6910 c3        1 DS6      0.135100
     35 C67        -0.7340   -0.2710   -4.9690 c3        1 DS6     -0.103400
     36 O71        -1.8920   -0.6020   -8.3430 o         1 DS6     -0.844800
     37 HO1        -1.1240    2.1230   -4.7710 ho        1 DS6      0.413000
     38 H2          1.9640   -0.6100   -1.1960 ha        1 DS6      0.143000
     39 H3          3.1910   -0.8970    0.9250 ha        1 DS6      0.136000
     40 H5         -0.2710    0.4740    3.1300 ha        1 DS6      0.127000
     41 H7          8.5890   -0.1860    3.1600 hc        1 DS6      0.051700
     42 H7A         8.2540    1.1290    1.9660 hc        1 DS6      0.051700
     43 H8         10.1100    2.3360    6.5980 hc        1 DS6      0.036700
     44 H8A         8.7670    3.4500    6.1010 hc        1 DS6      0.036700
     45 H8B        10.3390    4.1380    6.6870 hc        1 DS6      0.036700
     46 H9          5.1300    2.8260    1.0200 hc        1 DS6      0.042367
     47 H9A         6.6940    2.9910    1.9240 hc        1 DS6      0.042367
     48 H9B         6.5640    1.8270    0.5400 hc        1 DS6      0.042367
     49 H12         2.4350    0.2550    5.5220 hc        1 DS6      0.036950
     50 H12A        0.7570    0.1890    4.8650 hc        1 DS6      0.036950
     51 H13         2.4440   -2.0260    4.9450 hc        1 DS6      0.036950
     52 H13A        0.9230   -1.9940    3.9760 hc        1 DS6      0.036950
     53 H14         2.1210   -2.8500    1.9760 hc        1 DS6      0.038033
     54 H14A        3.6950   -2.8180    2.8690 hc        1 DS6      0.038033
     55 H14B        2.3760   -3.9430    3.4000 hc        1 DS6      0.038033
     56 H15         8.8030    4.5790    3.9260 hc        1 DS6      0.036700
     57 H15A       10.2820    4.5210    2.8790 hc        1 DS6      0.036700
     58 H15B       10.2990    5.4580    4.4310 hc        1 DS6      0.036700
     59 H17        -2.8120   -0.1510   -5.5680 hc        1 DS6      0.022700
     60 H17A       -1.7210    1.0120   -6.4240 hc        1 DS6      0.022700
     61 H18        12.3290    2.5580    5.4110 hc        1 DS6      0.036700
     62 H18A       12.2810    4.3380    5.0950 hc        1 DS6      0.036700
     63 H18B       12.3570    3.1800    3.7030 hc        1 DS6      0.036700
     64 H20         1.4520    2.5300    5.1840 hc        1 DS6      0.038033
     65 H20A        2.9350    2.2810    4.1710 hc        1 DS6      0.038033
     66 H20B        1.2970    2.2090    3.4050 hc        1 DS6      0.038033
     67 H26         3.5040    1.4470    1.8800 ha        1 DS6      0.148000
     68 H29         6.8390   -1.0820    4.5680 ha        1 DS6      0.129000
     69 H30         4.4420   -1.6230    4.7790 ha        1 DS6      0.131000
     70 H34        -1.9970    1.7560    0.3080 hc        1 DS6      0.044367
     71 H34A       -2.5640    0.0760    0.6540 hc        1 DS6      0.044367
     72 H34B       -2.2000    1.2050    2.0320 hc        1 DS6      0.044367
     73 H43         8.1980    1.4160    5.0550 hc        1 DS6      0.056700
     74 H43A        7.9080    2.7500    3.8600 hc        1 DS6      0.056700
     75 H44        10.2610    2.1260    2.8560 h1        1 DS6      0.029700
     76 HO47       11.5080    0.9240    4.3010 ho        1 DS6      0.396000
     77 H63         0.9440    0.7690   -2.6670 h1        1 DS6      0.050700
     78 H63A        0.3150   -0.9640   -2.7240 h1        1 DS6      0.050700
     79 H64        -2.0260    0.3390   -3.3100 h1        1 DS6      0.052700
     80 H67         0.2730   -0.0000   -5.3810 hc        1 DS6      0.061200
     81 H67A       -0.7210   -1.3700   -4.7360 hc        1 DS6      0.061200
@<TRIPOS>BOND
     1    1    3 ar  
     2    1    8 ar  
     3    1   32 1   
     4    2   34 1   
     5    2   37 1   
     6    3    5 ar  
     7    3   38 1   
     8    4   18 1   
     9    5    6 ar  
    10    5   39 1   
    11    6    7 ar  
    12    6   12 1   
    13    7    8 ar  
    14    7   40 1   
    15    8   27 1   
    16    9   24 1   
    17    9   28 1   
    18    9   41 1   
    19    9   42 1   
    20   10   31 1   
    21   10   43 1   
    22   10   44 1   
    23   10   45 1   
    24   11   23 1   
    25   11   46 1   
    26   11   47 1   
    27   11   48 1   
    28   12   13 1   
    29   12   14 1   
    30   12   15 1   
    31   13   22 ar  
    32   13   26 ar  
    33   14   21 1   
    34   14   49 1   
    35   14   50 1   
    36   15   16 1   
    37   15   51 1   
    38   15   52 1   
    39   16   53 1   
    40   16   54 1   
    41   16   55 1   
    42   17   31 1   
    43   17   56 1   
    44   17   57 1   
    45   17   58 1   
    46   18   19 1   
    47   18   36 1   
    48   19   35 1   
    49   19   59 1   
    50   19   60 1   
    51   20   31 1   
    52   20   61 1   
    53   20   62 1   
    54   20   63 1   
    55   21   64 1   
    56   21   65 1   
    57   21   66 1   
    58   22   23 ar  
    59   22   67 1   
    60   23   24 ar  
    61   24   25 ar  
    62   25   26 ar  
    63   25   68 1   
    64   26   69 1   
    65   27   70 1   
    66   27   71 1   
    67   27   72 1   
    68   28   29 1   
    69   28   73 1   
    70   28   74 1   
    71   29   30 1   
    72   29   31 1   
    73   29   75 1   
    74   30   76 1   
    75   32   33 1   
    76   33   34 1   
    77   33   77 1   
    78   33   78 1   
    79   34   35 1   
    80   34   79 1   
    81   35   80 1   
    82   35   81 1   
@<TRIPOS>SUBSTRUCTURE
     1 DS6         1 TEMP              0 ****  ****    0 ROOT
