@<TRIPOS>MOLECULE
DS6
   81    82     1     0     0
SMALL
bcc


@<TRIPOS>ATOM
      1 C1          0.1460    0.1230   -0.2310 ca        1 DS6      0.144100
      2 O1         -0.8080    1.9170   -3.8870 oh        1 DS6     -0.624800
      3 C2          1.4620   -0.3540   -0.2420 ca        1 DS6     -0.208000
      4 O2         -1.3700   -2.2520   -6.8880 o         1 DS6     -0.844800
      5 C3          2.1510   -0.5070    0.9580 ca        1 DS6     -0.097000
      6 C4          1.5590   -0.1820    2.1840 ca        1 DS6     -0.118300
      7 C5          0.2330    0.2710    2.1810 ca        1 DS6     -0.103000
      8 C6         -0.4840    0.4350    0.9970 ca        1 DS6     -0.112300
      9 C7          8.0040    0.7470    3.0010 c3        1 DS6     -0.035100
     10 C8          9.8870    3.3010    6.0910 c3        1 DS6     -0.088767
     11 C9          6.0230    2.2530    1.4040 c3        1 DS6     -0.051800
     12 C10         2.3110   -0.4000    3.4750 c3        1 DS6      0.054600
     13 C11         3.7910   -0.1290    3.3280 ca        1 DS6     -0.059300
     14 C12         1.8070    0.5110    4.6150 c3        1 DS6     -0.067400
     15 C13         2.0210   -1.8470    3.9270 c3        1 DS6     -0.067400
     16 C14         2.5670   -2.9100    3.0110 c3        1 DS6     -0.098100
     17 C15         9.9380    4.5140    3.9170 c3        1 DS6     -0.088767
     18 C16        -1.6690   -1.0560   -7.1690 c         1 DS6      0.912600
     19 C17        -1.7930   -0.0420   -6.0120 c3        1 DS6     -0.206400
     20 C18        11.9470    3.3170    4.7130 c3        1 DS6     -0.088767
     21 C20         1.8810    1.9850    4.3170 c3        1 DS6     -0.098100
     22 C26         4.2420    0.8820    2.4690 ca        1 DS6     -0.123000
     23 C27         5.6010    1.1870    2.3450 ca        1 DS6     -0.077300
     24 C28         6.5440    0.4740    3.1050 ca        1 DS6     -0.085300
     25 C29         6.0950   -0.5220    3.9780 ca        1 DS6     -0.130000
     26 C30         4.7390   -0.8190    4.0930 ca        1 DS6     -0.135000
     27 C34        -1.8820    0.9190    1.0040 c3        1 DS6     -0.040800
     28 C43         8.4540    1.7750    4.0230 c3        1 DS6     -0.070400
     29 C44         9.9610    2.0070    3.9340 c3        1 DS6      0.149100
     30 O47        10.5640    0.8430    4.4920 oh        1 DS6     -0.600800
     31 C48        10.4240    3.2840    4.6700 c3        1 DS6     -0.085000
     32 O62        -0.6270    0.3090   -1.3530 os        1 DS6     -0.320900
     33 C63         0.0340    0.1120   -2.6130 c3        1 DS6      0.121400
     34 C64        -0.9790    0.5150   -3.6920 c3        1 DS6      0.135100
     35 C67        -0.7350   -0.2860   -4.9650 c3        1 DS6     -0.103400
     36 O71        -1.8920   -0.6320   -8.3380 o         1 DS6     -0.844800
     37 HO1        -1.1120    2.1110   -4.7830 ho        1 DS6      0.413000
     38 H2          1.9580   -0.6160   -1.1880 ha        1 DS6      0.143000
     39 H3          3.1820   -0.8960    0.9360 ha        1 DS6      0.136000
     40 H5         -0.2740    0.5080    3.1300 ha        1 DS6      0.127000
     41 H7          8.5820   -0.2030    3.1700 hc        1 DS6      0.051700
     42 H7A         8.2550    1.1080    1.9680 hc        1 DS6      0.051700
     43 H8         10.1170    2.3300    6.5930 hc        1 DS6      0.036700
     44 H8A         8.7800    3.4490    6.0900 hc        1 DS6      0.036700
     45 H8B        10.3560    4.1310    6.6720 hc        1 DS6      0.036700
     46 H9          6.5700    1.8060    0.5360 hc        1 DS6      0.042367
     47 H9A         5.1420    2.8160    1.0090 hc        1 DS6      0.042367
     48 H9B         6.7060    2.9780    1.9130 hc        1 DS6      0.042367
     49 H12         0.7510    0.2290    4.8670 hc        1 DS6      0.036950
     50 H12A        2.4290    0.2900    5.5250 hc        1 DS6      0.036950
     51 H13         0.9050   -1.9600    3.9930 hc        1 DS6      0.036950
     52 H13A        2.4260   -1.9960    4.9630 hc        1 DS6      0.036950
     53 H14         2.1000   -2.8360    1.9990 hc        1 DS6      0.038033
     54 H14A        2.3470   -3.9220    3.4300 hc        1 DS6      0.038033
     55 H14B        3.6740   -2.8080    2.8930 hc        1 DS6      0.038033
     56 H15        10.3250    5.4390    4.4090 hc        1 DS6      0.036700
     57 H15A        8.8230    4.5650    3.9090 hc        1 DS6      0.036700
     58 H15B       10.3030    4.4930    2.8620 hc        1 DS6      0.036700
     59 H17        -2.8120   -0.1580   -5.5660 hc        1 DS6      0.022700
     60 H17A       -1.7140    0.9930   -6.4290 hc        1 DS6      0.022700
     61 H18        12.3370    2.5330    5.4050 hc        1 DS6      0.036700
     62 H18A       12.3000    4.3110    5.0800 hc        1 DS6      0.036700
     63 H18B       12.3690    3.1450    3.6940 hc        1 DS6      0.036700
     64 H20         1.3030    2.2360    3.3950 hc        1 DS6      0.038033
     65 H20A        1.4590    2.5670    5.1720 hc        1 DS6      0.038033
     66 H20B        2.9410    2.3040    4.1600 hc        1 DS6      0.038033
     67 H26         3.5070    1.4520    1.8770 ha        1 DS6      0.148000
     68 H29         6.8260   -1.0790    4.5820 ha        1 DS6      0.129000
     69 H30         4.4260   -1.6050    4.7960 ha        1 DS6      0.131000
     70 H34        -2.1980    1.2420    2.0250 hc        1 DS6      0.044367
     71 H34A       -1.9910    1.7820    0.2990 hc        1 DS6      0.044367
     72 H34B       -2.5670    0.1070    0.6530 hc        1 DS6      0.044367
     73 H43         7.9180    2.7420    3.8510 hc        1 DS6      0.056700
     74 H43A        8.2000    1.4130    5.0540 hc        1 DS6      0.056700
     75 H44        10.2680    2.0980    2.8520 h1        1 DS6      0.029700
     76 HO47       11.5070    0.8970    4.3040 ho        1 DS6      0.396000
     77 H63         0.3080   -0.9700   -2.7140 h1        1 DS6      0.050700
     78 H63A        0.9470    0.7590   -2.6680 h1        1 DS6      0.050700
     79 H64        -2.0250    0.3420   -3.3110 h1        1 DS6      0.052700
     80 H67        -0.7290   -1.3840   -4.7250 hc        1 DS6      0.061200
     81 H67A        0.2730   -0.0240   -5.3780 hc        1 DS6      0.061200
@<TRIPOS>BOND
     1    1    3 ar  
     2    1    8 ar  
     3    1   32 1   
     4    2   34 1   
     5    2   37 1   
     6    3    5 ar  
     7    3   38 1   
     8    4   18 1   
     9    5    6 ar  
    10    5   39 1   
    11    6    7 ar  
    12    6   12 1   
    13    7    8 ar  
    14    7   40 1   
    15    8   27 1   
    16    9   24 1   
    17    9   28 1   
    18    9   41 1   
    19    9   42 1   
    20   10   31 1   
    21   10   43 1   
    22   10   44 1   
    23   10   45 1   
    24   11   23 1   
    25   11   46 1   
    26   11   47 1   
    27   11   48 1   
    28   12   13 1   
    29   12   14 1   
    30   12   15 1   
    31   13   22 ar  
    32   13   26 ar  
    33   14   21 1   
    34   14   49 1   
    35   14   50 1   
    36   15   16 1   
    37   15   51 1   
    38   15   52 1   
    39   16   53 1   
    40   16   54 1   
    41   16   55 1   
    42   17   31 1   
    43   17   56 1   
    44   17   57 1   
    45   17   58 1   
    46   18   19 1   
    47   18   36 1   
    48   19   35 1   
    49   19   59 1   
    50   19   60 1   
    51   20   31 1   
    52   20   61 1   
    53   20   62 1   
    54   20   63 1   
    55   21   64 1   
    56   21   65 1   
    57   21   66 1   
    58   22   23 ar  
    59   22   67 1   
    60   23   24 ar  
    61   24   25 ar  
    62   25   26 ar  
    63   25   68 1   
    64   26   69 1   
    65   27   70 1   
    66   27   71 1   
    67   27   72 1   
    68   28   29 1   
    69   28   73 1   
    70   28   74 1   
    71   29   30 1   
    72   29   31 1   
    73   29   75 1   
    74   30   76 1   
    75   32   33 1   
    76   33   34 1   
    77   33   77 1   
    78   33   78 1   
    79   34   35 1   
    80   34   79 1   
    81   35   80 1   
    82   35   81 1   
@<TRIPOS>SUBSTRUCTURE
     1 DS6         1 TEMP              0 ****  ****    0 ROOT
