@<TRIPOS>MOLECULE
DS6
   81    77     1     0     0
SMALL
bcc


@<TRIPOS>ATOM
      1 C1         -3.7400    0.7210   -2.0320 c1        1 DS6      0.100000
      2 O1         -4.7140    0.4420   -6.1230 oh        1 DS6     -0.352000
      3 C2         -2.3790    0.5260   -2.0230 c1        1 DS6     -0.149000
      4 O2         -6.2620   -3.5890   -8.4550 o         1 DS6     -0.579500
      5 C3         -1.6790    0.4910   -0.7980 c1        1 DS6     -0.149000
      6 C4         -2.3680    0.6550    0.3980 c1        1 DS6     -0.122000
      7 C5         -3.7530    0.8530    0.3860 c1        1 DS6     -0.105000
      8 C6         -4.4370    0.8870   -0.8170 c1        1 DS6     -0.103000
      9 C7          4.3160    0.5380    0.4840 c3        1 DS6     -0.121000
     10 C8          6.4070   -1.8290    3.3580 c3        1 DS6     -0.203667
     11 C9          2.6030    2.9140   -0.2300 c3        1 DS6     -0.177000
     12 C10        -1.6090    0.5360    1.7500 c3        1 DS6      0.043000
     13 C11        -0.0460    0.7260    1.4940 c2        1 DS6     -0.045000
     14 C12        -2.1170    1.6450    2.7460 c3        1 DS6     -0.149500
     15 C13        -1.8750   -0.8640    2.3690 c3        1 DS6     -0.149500
     16 C14        -2.3610   -0.6920    3.8410 c3        1 DS6     -0.213500
     17 C15         7.4270    0.4250    3.5150 c3        1 DS6     -0.203667
     18 C16        -6.9430   -3.0690   -7.4840 c1        1 DS6      0.332000
     19 C17        -6.6050   -1.7060   -6.9880 c2        1 DS6     -0.235000
     20 C18         8.6300   -1.3400    2.2310 c3        1 DS6     -0.203667
     21 C20        -1.1940    1.6780    4.0090 c3        1 DS6     -0.213500
     22 C26         0.5720    1.8200    0.8890 c2        1 DS6     -0.121000
     23 C27         1.9540    1.7790    0.6070 c2        1 DS6     -0.067000
     24 C28         2.7040    0.6400    0.9340 c2        1 DS6     -0.081000
     25 C29         2.0720   -0.4740    1.5510 c1        1 DS6     -0.129000
     26 C30         0.7250   -0.4380    1.8270 c1        1 DS6     -0.133000
     27 C34        -5.9540    1.0000   -0.6510 c3        1 DS6     -0.166000
     28 C43         5.1800    0.3210    1.7340 c3        1 DS6     -0.195000
     29 C44         6.4880   -0.3070    1.3410 c3        1 DS6      0.037000
     30 O47         6.2530   -1.4140    0.5180 oh        1 DS6     -0.332000
     31 C48         7.2400   -0.7550    2.6180 c3        1 DS6     -0.047000
     32 O62        -4.4140    0.7650   -3.3240 os        1 DS6     -0.204000
     33 C63        -4.4890   -0.5100   -3.9850 c3        1 DS6     -0.030000
     34 C64        -5.3430   -0.3800   -5.2240 c3        1 DS6      0.024000
     35 C67        -5.5620   -1.8080   -5.8680 c3        1 DS6     -0.182000
     36 O71        -7.8820   -3.7270   -6.9440 o         1 DS6     -0.579500
     37 HO1        -5.2740    1.0810   -6.3840 ho        1 DS6      0.212000
     38 H2         -1.9170    0.5210   -2.8080 ha        1 DS6      0.139000
     39 H3         -0.7020    0.3500   -0.7890 ha        1 DS6      0.139000
     40 H5         -4.2070    1.0820    1.1960 ha        1 DS6      0.126000
     41 H7          4.5810    1.3560    0.0470 hc        1 DS6      0.083500
     42 H7A         4.4370   -0.2090   -0.1270 hc        1 DS6      0.083500
     43 H8          6.8810   -2.1300    4.1100 hc        1 DS6      0.076000
     44 H8A         5.5300   -1.4280    3.6530 hc        1 DS6      0.076000
     45 H8B         6.2390   -2.5740    2.7640 hc        1 DS6      0.076000
     46 H9          3.0090    2.5230   -1.0690 hc        1 DS6      0.082000
     47 H9A         1.8910    3.5970   -0.4840 hc        1 DS6      0.082000
     48 H9B         3.3150    3.3600    0.3090 hc        1 DS6      0.082000
     49 H12        -3.0600    1.4360    3.0280 hc        1 DS6      0.084250
     50 H12A       -2.0930    2.5100    2.3070 hc        1 DS6      0.084250
     51 H13        -2.5650   -1.3240    1.8530 hc        1 DS6      0.084250
     52 H13A       -1.0560   -1.3880    2.3540 hc        1 DS6      0.084250
     53 H14        -1.6160   -0.3620    4.3970 hc        1 DS6      0.072500
     54 H14A       -2.6790   -1.5790    4.1960 hc        1 DS6      0.072500
     55 H14B       -3.1110   -0.0340    3.8680 hc        1 DS6      0.072500
     56 H15         7.7520    1.2060    2.9770 hc        1 DS6      0.076000
     57 H15A        8.0810    0.2100    4.2080 hc        1 DS6      0.076000
     58 H15B        6.5990    0.6450    3.9200 hc        1 DS6      0.076000
     59 H17        -6.2510   -1.1880   -7.7060 ha        1 DS6      0.062000
     60 H17A       -7.4340   -1.2630   -6.6310 ha        1 DS6      0.062000
     61 H18         8.5020   -2.1510    1.6270 hc        1 DS6      0.076000
     62 H18A        9.1300   -1.6200    3.0800 hc        1 DS6      0.076000
     63 H18B        9.1380   -0.6730    1.7660 hc        1 DS6      0.076000
     64 H20        -0.5610    0.9750    3.9590 hc        1 DS6      0.072500
     65 H20A       -1.7320    1.5720    4.8050 hc        1 DS6      0.072500
     66 H20B       -0.7280    2.5330    4.0440 hc        1 DS6      0.072500
     67 H26         0.0820    2.5670    0.6820 ha        1 DS6      0.141000
     68 H29         2.5860   -1.2730    1.7470 ha        1 DS6      0.125000
     69 H30         0.7470   -1.2880    2.2730 ha        1 DS6      0.136000
     70 H34        -6.1700    1.2380    0.2990 hc        1 DS6      0.084000
     71 H34A       -6.2890    1.6790   -1.2330 hc        1 DS6      0.084000
     72 H34B       -6.3800    0.1230   -0.8810 hc        1 DS6      0.084000
     73 H43         5.3440    1.1410    2.1440 hc        1 DS6      0.098500
     74 H43A        4.7310   -0.2360    2.3280 hc        1 DS6      0.098500
     75 H44         7.0460    0.3700    0.8420 h1        1 DS6      0.071000
     76 HO47        6.5940   -1.2630   -0.2890 ho        1 DS6      0.199000
     77 H63        -4.8910   -1.1770   -3.3750 h1        1 DS6      0.090000
     78 H63A       -3.5950   -0.7980   -4.2360 h1        1 DS6      0.090000
     79 H64        -6.1650   -0.0160   -4.9960 h1        1 DS6      0.092000
     80 H67        -5.8740   -2.4180   -5.1930 hc        1 DS6      0.101000
     81 H67A       -4.7070   -2.1390   -6.2410 hc        1 DS6      0.101000
@<TRIPOS>BOND
     1    1    8 1   
     2    1   32 1   
     3    2   34 1   
     4    2   37 1   
     5    3    5 1   
     6    3   38 1   
     7    4   18 1   
     8    5   39 1   
     9    6    7 1   
    10    6   12 1   
    11    7   40 1   
    12    8   27 1   
    13    9   24 1   
    14    9   28 1   
    15    9   41 1   
    16    9   42 1   
    17   10   31 1   
    18   10   43 1   
    19   10   44 1   
    20   10   45 1   
    21   11   23 1   
    22   11   46 1   
    23   11   47 1   
    24   11   48 1   
    25   12   13 1   
    26   12   14 1   
    27   12   15 1   
    28   13   22 1   
    29   13   26 1   
    30   14   21 1   
    31   14   49 1   
    32   14   50 1   
    33   15   16 1   
    34   15   51 1   
    35   15   52 1   
    36   16   53 1   
    37   16   54 1   
    38   16   55 1   
    39   17   31 1   
    40   17   56 1   
    41   17   57 1   
    42   17   58 1   
    43   18   36 1   
    44   19   35 1   
    45   19   59 1   
    46   19   60 1   
    47   20   31 1   
    48   20   61 1   
    49   20   62 1   
    50   20   63 1   
    51   21   64 1   
    52   21   65 1   
    53   21   66 1   
    54   22   23 1   
    55   22   67 1   
    56   23   24 1   
    57   24   25 1   
    58   25   68 1   
    59   26   69 1   
    60   27   70 1   
    61   27   71 1   
    62   27   72 1   
    63   28   29 1   
    64   28   73 1   
    65   28   74 1   
    66   29   30 1   
    67   29   31 1   
    68   29   75 1   
    69   30   76 1   
    70   32   33 1   
    71   33   34 1   
    72   33   77 1   
    73   33   78 1   
    74   34   35 1   
    75   34   79 1   
    76   35   80 1   
    77   35   81 1   
@<TRIPOS>SUBSTRUCTURE
     1 DS6         1 TEMP              0 ****  ****    0 ROOT
