@<TRIPOS>MOLECULE
DS6
   81    82     1     0     0
SMALL
bcc


@<TRIPOS>ATOM
      1 C1          3.2400    1.2970    0.2510 ca        1 DS6      0.147100
      2 O1          6.2180   -1.5500    1.7620 oh        1 DS6     -0.641800
      3 C2          2.3570    0.5450   -0.5340 ca        1 DS6     -0.209000
      4 O2          7.6950   -3.7140    0.5020 o         1 DS6     -0.847300
      5 C3          1.0770    1.0300   -0.7890 ca        1 DS6     -0.097000
      6 C4          0.6440    2.2550   -0.2680 ca        1 DS6     -0.122300
      7 C5          1.5470    3.0070    0.4960 ca        1 DS6     -0.103000
      8 C6          2.8350    2.5500    0.7690 ca        1 DS6     -0.116300
      9 C7         -4.7680   -1.4140   -0.8850 c3        1 DS6     -0.035100
     10 C8         -8.6160   -0.7070    1.2200 c3        1 DS6     -0.086433
     11 C9         -2.4600   -1.6650    0.9470 c3        1 DS6     -0.052800
     12 C10        -0.7330    2.7800   -0.5950 c3        1 DS6      0.055600
     13 C11        -1.7590    1.6740   -0.7010 ca        1 DS6     -0.058300
     14 C12        -1.2600    3.7670    0.4690 c3        1 DS6     -0.067400
     15 C13        -0.6080    3.5910   -1.9020 c3        1 DS6     -0.067400
     16 C14        -0.2440    2.7730   -3.1130 c3        1 DS6     -0.098600
     17 C15        -7.4890   -2.6470    2.2830 c3        1 DS6     -0.086433
     18 C16         8.7260   -3.0530    0.1670 c         1 DS6      0.908600
     19 C17         8.6220   -1.5180    0.1160 c3        1 DS6     -0.206400
     20 C18        -9.2600   -3.0190    0.5940 c3        1 DS6     -0.086433
     21 C20        -1.3350    3.2010    1.8620 c3        1 DS6     -0.098600
     22 C26        -1.6650    0.5410    0.1170 ca        1 DS6     -0.122000
     23 C27        -2.6250   -0.4760    0.0760 ca        1 DS6     -0.074300
     24 C28        -3.7200   -0.3600   -0.7950 ca        1 DS6     -0.086300
     25 C29        -3.8250    0.7780   -1.6020 ca        1 DS6     -0.132000
     26 C30        -2.8630    1.7830   -1.5560 ca        1 DS6     -0.135000
     27 C34         3.7780    3.3480    1.5830 c3        1 DS6     -0.039800
     28 C43        -5.9110   -1.1500    0.0780 c3        1 DS6     -0.105400
     29 C44        -7.0420   -2.1520   -0.1340 c3        1 DS6      0.143100
     30 O47        -7.6430   -1.9630   -1.4070 oh        1 DS6     -0.597800
     31 C48        -8.0980   -2.1170    0.9930 c3        1 DS6     -0.086000
     32 O62         4.5220    0.9180    0.5640 os        1 DS6     -0.323900
     33 C63         4.9240   -0.3900    0.1190 c3        1 DS6      0.094400
     34 C64         6.3310   -0.6230    0.7050 c3        1 DS6      0.162100
     35 C67         7.2810   -1.0560   -0.4070 c3        1 DS6     -0.090400
     36 O71         9.8340   -3.5820   -0.1200 o         1 DS6     -0.847300
     37 HO1         6.5700   -2.4120    1.4580 ho        1 DS6      0.470000
     38 H2          2.6620   -0.4240   -0.9520 ha        1 DS6      0.145000
     39 H3          0.3960    0.4340   -1.4180 ha        1 DS6      0.135000
     40 H5          1.2490    3.9880    0.8990 ha        1 DS6      0.126000
     41 H7         -5.1800   -1.4560   -1.9310 hc        1 DS6      0.053700
     42 H7A        -4.3200   -2.4210   -0.6680 hc        1 DS6      0.053700
     43 H8         -7.7980   -0.0400    1.5850 hc        1 DS6      0.036144
     44 H8A        -9.0280   -0.2840    0.2720 hc        1 DS6      0.036144
     45 H8B        -9.4300   -0.7160    1.9850 hc        1 DS6      0.036144
     46 H9         -3.3990   -1.8660    1.5200 hc        1 DS6      0.044367
     47 H9A        -2.2280   -2.5670    0.3260 hc        1 DS6      0.044367
     48 H9B        -1.6250   -1.5200    1.6760 hc        1 DS6      0.044367
     49 H12        -0.6140    4.6830    0.4670 hc        1 DS6      0.036200
     50 H12A       -2.2870    4.0920    0.1500 hc        1 DS6      0.036200
     51 H13        -1.5700    4.1370   -2.0900 hc        1 DS6      0.036200
     52 H13A        0.1840    4.3710   -1.7380 hc        1 DS6      0.036200
     53 H14        -0.9930    1.9640   -3.2900 hc        1 DS6      0.038033
     54 H14A       -0.2070    3.4280   -4.0170 hc        1 DS6      0.038033
     55 H14B        0.7590    2.2980   -2.9800 hc        1 DS6      0.038033
     56 H15        -8.2850   -2.7600    3.0590 hc        1 DS6      0.036144
     57 H15A       -7.0180   -3.6440    2.1110 hc        1 DS6      0.036144
     58 H15B       -6.7150   -1.9480    2.6780 hc        1 DS6      0.036144
     59 H17         8.7920   -1.1330    1.1530 hc        1 DS6      0.035200
     60 H17A        9.4410   -1.1260   -0.5370 hc        1 DS6      0.035200
     61 H18        -9.7060   -2.6680   -0.3670 hc        1 DS6      0.036144
     62 H18A       -8.9020   -4.0670    0.4560 hc        1 DS6      0.036144
     63 H18B      -10.0470   -3.0090    1.3850 hc        1 DS6      0.036144
     64 H20        -2.0500    2.3440    1.9030 hc        1 DS6      0.038033
     65 H20A       -0.3340    2.8360    2.2000 hc        1 DS6      0.038033
     66 H20B       -1.6850    3.9880    2.5740 hc        1 DS6      0.038033
     67 H26        -0.8140    0.4490    0.8130 ha        1 DS6      0.150000
     68 H29        -4.6810    0.8780   -2.2870 ha        1 DS6      0.124000
     69 H30        -2.9850    2.6650   -2.2020 ha        1 DS6      0.130000
     70 H34         4.6440    3.6740    0.9530 hc        1 DS6      0.043367
     71 H34A        3.2840    4.2530    2.0130 hc        1 DS6      0.043367
     72 H34B        4.1840    2.7230    2.4190 hc        1 DS6      0.043367
     73 H43        -5.5390   -1.2180    1.1320 hc        1 DS6      0.049700
     74 H43A       -6.2970   -0.1090   -0.0810 hc        1 DS6      0.049700
     75 H44        -6.6220   -3.1980   -0.1970 h1        1 DS6      0.074700
     76 HO47       -7.9840   -1.0620   -1.4330 ho        1 DS6      0.395000
     77 H63         4.2090   -1.1590    0.5120 h1        1 DS6      0.044700
     78 H63A        4.9320   -0.4010   -1.0010 h1        1 DS6      0.044700
     79 H64         6.6940    0.3350    1.1790 h1        1 DS6      0.054700
     80 H67         7.4110   -0.1920   -1.1080 hc        1 DS6      0.038200
     81 H67A        6.8060   -1.8990   -0.9800 hc        1 DS6      0.038200
@<TRIPOS>BOND
     1    1    3 ar  
     2    1    8 ar  
     3    1   32 1   
     4    2   34 1   
     5    2   37 1   
     6    3    5 ar  
     7    3   38 1   
     8    4   18 1   
     9    5    6 ar  
    10    5   39 1   
    11    6    7 ar  
    12    6   12 1   
    13    7    8 ar  
    14    7   40 1   
    15    8   27 1   
    16    9   24 1   
    17    9   28 1   
    18    9   41 1   
    19    9   42 1   
    20   10   31 1   
    21   10   43 1   
    22   10   44 1   
    23   10   45 1   
    24   11   23 1   
    25   11   46 1   
    26   11   47 1   
    27   11   48 1   
    28   12   13 1   
    29   12   14 1   
    30   12   15 1   
    31   13   22 ar  
    32   13   26 ar  
    33   14   21 1   
    34   14   49 1   
    35   14   50 1   
    36   15   16 1   
    37   15   51 1   
    38   15   52 1   
    39   16   53 1   
    40   16   54 1   
    41   16   55 1   
    42   17   31 1   
    43   17   56 1   
    44   17   57 1   
    45   17   58 1   
    46   18   19 1   
    47   18   36 1   
    48   19   35 1   
    49   19   59 1   
    50   19   60 1   
    51   20   31 1   
    52   20   61 1   
    53   20   62 1   
    54   20   63 1   
    55   21   64 1   
    56   21   65 1   
    57   21   66 1   
    58   22   23 ar  
    59   22   67 1   
    60   23   24 ar  
    61   24   25 ar  
    62   25   26 ar  
    63   25   68 1   
    64   26   69 1   
    65   27   70 1   
    66   27   71 1   
    67   27   72 1   
    68   28   29 1   
    69   28   73 1   
    70   28   74 1   
    71   29   30 1   
    72   29   31 1   
    73   29   75 1   
    74   30   76 1   
    75   32   33 1   
    76   33   34 1   
    77   33   77 1   
    78   33   78 1   
    79   34   35 1   
    80   34   79 1   
    81   35   80 1   
    82   35   81 1   
@<TRIPOS>SUBSTRUCTURE
     1 DS6         1 TEMP              0 ****  ****    0 ROOT
