@<TRIPOS>MOLECULE
DSA
   60    64     1     0     0
SMALL
bcc


@<TRIPOS>ATOM
      1 C20         1.1250    0.1790   -3.9720 ca        1 DSA     -0.064800
      2 C21        -0.0730   -0.5850   -3.7370 ca        1 DSA     -0.074200
      3 C22        -0.9960   -0.8360   -4.7840 ca        1 DSA      0.131100
      4 C23        -0.7060   -0.3210   -6.0460 ca        1 DSA      0.033100
      5 C24         0.4900    0.4350   -6.2650 ca        1 DSA      0.110100
      6 C25         1.3970    0.6890   -5.2470 ca        1 DSA     -0.176000
      7 C18         1.0500   -0.4670   -1.7830 cc        1 DSA     -0.131300
      8 C19         1.8260    0.2330   -2.7150 cd        1 DSA     -0.122200
      9 C16         1.4130   -0.7010   -0.3640 c         1 DSA      0.693300
     10 C6          1.7890   -1.2700    4.0360 ca        1 DSA      0.126100
     11 C7          1.7290   -1.2990    2.6470 ca        1 DSA     -0.184000
     12 C8          0.6530   -0.6610    1.9950 ca        1 DSA      0.052600
     13 C11        -0.8470    0.1100    0.3670 c3        1 DSA      0.078000
     14 C10        -1.3770    0.5800    1.7580 c3        1 DSA     -0.016400
     15 C13        -1.4980    2.0810    1.8350 c3        1 DSA     -0.090100
     16 C9         -0.3650    0.0150    2.7070 ca        1 DSA     -0.110300
     17 C26        -2.7610   -2.3010   -5.4500 c3        1 DSA      0.125700
     18 C27        -2.2800    0.4640   -7.6190 c3        1 DSA      0.114700
     19 C5          0.7780   -0.6090    4.7730 ca        1 DSA     -0.059200
     20 C4         -0.3230    0.0470    4.0950 ca        1 DSA     -0.051800
     21 C3         -1.1530    0.6110    5.1270 cc        1 DSA     -0.110200
     22 C2         -0.5550    0.2920    6.3550 cd        1 DSA     -0.111300
     23 C14        -1.0630    0.6680    7.6710 c         1 DSA      0.662300
     24 C15        -0.7550    0.5810   10.0290 c3        1 DSA      0.129700
     25 N17        -0.1210   -0.9420   -2.3900 na        1 DSA     -0.152400
     26 N12         0.4000   -0.6320    0.5940 n         1 DSA     -0.360000
     27 N1          0.6160   -0.4490    6.1440 na        1 DSA     -0.141400
     28 O24         0.6320    0.9010   -7.5600 os        1 DSA     -0.323900
     29 O16         2.5830   -0.9990   -0.0620 o         1 DSA     -0.571100
     30 O22        -2.1220   -1.5450   -4.4220 os        1 DSA     -0.339900
     31 O23        -1.5220   -0.6410   -7.1200 os        1 DSA     -0.333900
     32 O15        -0.2950    0.2350    8.7220 os        1 DSA     -0.446900
     33 O14        -2.0820    1.3160    7.9230 o         1 DSA     -0.528000
     34 H25         2.3140    1.2680   -5.4160 ha        1 DSA      0.148000
     35 H19         2.7790    0.7170   -2.5230 ha        1 DSA      0.171000
     36 H7          2.5160   -1.8000    2.0610 ha        1 DSA      0.174000
     37 H111       -0.6760    0.9840   -0.3160 h1        1 DSA      0.058700
     38 H112       -1.5960   -0.5840   -0.1020 h1        1 DSA      0.058700
     39 H10        -2.3810    0.1130    1.9450 hc        1 DSA      0.071700
     40 H131       -2.2450    2.4460    1.0890 hc        1 DSA      0.043700
     41 H132       -1.8340    2.3840    2.8570 hc        1 DSA      0.043700
     42 H133       -0.5180    2.5730    1.6270 hc        1 DSA      0.043700
     43 H261       -3.4000   -3.0240   -4.8820 h1        1 DSA      0.049700
     44 H262       -3.3870   -1.6200   -6.0770 h1        1 DSA      0.049700
     45 H263       -2.0140   -2.8320   -6.0850 h1        1 DSA      0.049700
     46 H271       -2.8330    0.0290   -8.4880 h1        1 DSA      0.044367
     47 H272       -2.9880    0.8280   -6.8360 h1        1 DSA      0.044367
     48 H273       -1.6020    1.2870   -7.9500 h1        1 DSA      0.044367
     49 H3         -2.0710    1.1780    4.9900 ha        1 DSA      0.174000
     50 H281        1.8100    1.6960   -8.9730 h1        1 DSA      0.045700
     51 H282        2.0210    2.4480   -7.3070 h1        1 DSA      0.045700
     52 H283        2.7260    0.7900   -7.6590 h1        1 DSA      0.045700
     53 H151        0.0130    0.1310   10.7050 h1        1 DSA      0.053700
     54 H152       -0.7970    1.6920   10.1360 h1        1 DSA      0.053700
     55 H153       -1.7660    0.1400   10.2050 h1        1 DSA      0.053700
     56 H17        -0.7580   -1.5860   -1.9990 hn        1 DSA      0.314700
     57 H1          1.2190   -0.7890    6.8480 hn        1 DSA      0.325700
     58 H6          3.4300   -2.2420    4.1320 ho        1 DSA      0.431000
     59 O6          2.7980   -1.8630    4.7610 oh        1 DSA     -0.505100
     60 C28         1.8870    1.4940   -7.8740 c3        1 DSA      0.112700
@<TRIPOS>BOND
     1    1    2 ar  
     2    1    6 ar  
     3    1    8 1   
     4    2    3 ar  
     5    2   25 1   
     6    3    4 ar  
     7    3   30 1   
     8    4    5 ar  
     9    4   31 1   
    10    5    6 ar  
    11    5   28 1   
    12    6   34 1   
    13    7    8 2   
    14    7    9 1   
    15    7   25 1   
    16    8   35 1   
    17    9   26 1   
    18    9   29 2   
    19   10   11 ar  
    20   10   19 ar  
    21   10   59 1   
    22   11   12 ar  
    23   11   36 1   
    24   12   16 ar  
    25   12   26 1   
    26   13   14 1   
    27   13   26 1   
    28   13   37 1   
    29   13   38 1   
    30   14   15 1   
    31   14   16 1   
    32   14   39 1   
    33   15   40 1   
    34   15   41 1   
    35   15   42 1   
    36   16   20 ar  
    37   17   30 1   
    38   17   43 1   
    39   17   44 1   
    40   17   45 1   
    41   18   31 1   
    42   18   46 1   
    43   18   47 1   
    44   18   48 1   
    45   19   20 ar  
    46   19   27 1   
    47   20   21 1   
    48   21   22 2   
    49   21   49 1   
    50   22   23 1   
    51   22   27 1   
    52   23   32 1   
    53   23   33 2   
    54   24   32 1   
    55   24   53 1   
    56   24   54 1   
    57   24   55 1   
    58   25   56 1   
    59   27   57 1   
    60   28   60 1   
    61   50   60 1   
    62   51   60 1   
    63   52   60 1   
    64   58   59 1   
@<TRIPOS>SUBSTRUCTURE
     1 DSA         1 TEMP              0 ****  ****    0 ROOT
