@<TRIPOS>MOLECULE
DSA
   60    62     1     0     0
SMALL
bcc


@<TRIPOS>ATOM
      1 C20        -0.1410    0.0710    0.1340 ca        1 DSA     -0.077000
      2 C21         1.2960   -0.0840    0.0840 ca        1 DSA     -0.005000
      3 C22         2.0430   -0.0830    1.2790 ca        1 DSA      0.021000
      4 C23         1.3850    0.0490    2.5020 ca        1 DSA      0.070000
      5 C24        -0.0350    0.2110    2.5270 ca        1 DSA      0.035000
      6 C25        -0.7900    0.2240    1.3630 ca        1 DSA     -0.138000
      7 C18         0.5370   -0.1590   -2.0380 c2        1 DSA     -0.094000
      8 C19        -0.5960    0.0170   -1.2300 c2        1 DSA     -0.118000
      9 C16         0.4940   -0.2860   -3.5160 c2        1 DSA      0.380000
     10 C6          1.0340   -0.4840   -7.8650 ca        1 DSA      0.093000
     11 C7          0.8120   -0.3200   -6.5080 ca        1 DSA     -0.211000
     12 C8          1.8970   -0.2130   -5.5890 ca        1 DSA      0.099000
     13 C11         4.6640   -1.0570   -4.2270 c2        1 DSA     -0.225000
     14 C10         4.3710   -0.1180   -5.1360 c2        1 DSA     -0.066000
     15 C13         5.1730    1.1230   -5.2800 c3        1 DSA     -0.186000
     16 C9          3.2300   -0.2510   -6.0510 ca        1 DSA     -0.080000
     17 C26         4.0770   -0.3090    0.1780 c1        1 DSA     -0.093000
     18 C27         2.1960    1.0900    4.4600 c3        1 DSA     -0.074000
     19 C5          2.3600   -0.5340   -8.3500 ca        1 DSA     -0.017000
     20 C4          3.4620   -0.4120   -7.4270 ca        1 DSA     -0.048000
     21 C3          4.6600   -0.5100   -8.2220 c2        1 DSA     -0.117000
     22 C2          4.2580   -0.6790   -9.5530 c2        1 DSA     -0.072000
     23 C14         5.0870   -0.8280  -10.7460 c2        1 DSA      0.364000
     24 C15         7.2930   -0.9310  -11.6200 c3        1 DSA     -0.063000
     25 N17         1.6890   -0.2100   -1.2410 na        1 DSA     -0.174000
     26 N12         1.6700   -0.0410   -4.2100 n         1 DSA     -0.323000
     27 N1          2.8580   -0.6920   -9.6360 na        1 DSA     -0.162000
     28 O24        -0.5660    0.3770    3.7950 os        1 DSA     -0.208000
     29 O16        -0.5810   -0.5820   -4.0710 o         1 DSA     -0.348000
     30 O22         3.4420   -0.2400    1.3270 os        1 DSA     -0.087000
     31 O23         2.1180   -0.0940    3.6630 os        1 DSA     -0.200000
     32 O15         4.7130   -0.9810  -11.9130 o         1 DSA     -0.358000
     33 O14         6.4310   -0.7860  -10.4890 os        1 DSA     -0.263000
     34 H25        -1.8830    0.3450    1.3850 ha        1 DSA      0.150000
     35 H19        -1.6230    0.0900   -1.5820 ha        1 DSA      0.176000
     36 H7         -0.2270   -0.2790   -6.1410 ha        1 DSA      0.178000
     37 H111        4.0770   -1.9790   -4.1220 ha        1 DSA      0.120000
     38 H112        2.4800    0.2180   -3.6890 hn        1 DSA      0.239000
     39 H10         5.5190   -0.9640   -3.5450 ha        1 DSA      0.120000
     40 H131        6.0670    1.1100   -4.6100 hc        1 DSA      0.086667
     41 H132        5.5200    1.2360   -6.3380 hc        1 DSA      0.086667
     42 H133        4.5490    2.0150   -5.0230 hc        1 DSA      0.086667
     43 H261        4.2960   -2.0690   -1.7340 ha        1 DSA      0.002500
     44 H262        4.1420   -2.3750   -1.1490 ha        1 DSA      0.002500
     45 H263        5.1640   -0.4300    0.4100 ha        1 DSA      0.061000
     46 H271        2.7070    1.9040    3.8920 h1        1 DSA      0.086667
     47 H272        2.8120    0.7690    5.3370 h1        1 DSA      0.086667
     48 H273        1.1790    1.4150    4.7840 h1        1 DSA      0.086667
     49 H3          5.6860   -0.4710   -7.8650 ha        1 DSA      0.174000
     50 H281       -2.4710    1.1450    3.3910 h1        1 DSA      0.086000
     51 H282       -2.3460   -0.6860    3.4540 h1        1 DSA      0.086000
     52 H283       -2.1680    0.3010    4.9970 h1        1 DSA      0.086000
     53 H151        8.3160   -0.8680  -11.1760 h1        1 DSA      0.093333
     54 H152        7.1080   -0.1040  -12.3470 h1        1 DSA      0.093333
     55 H153        7.1160   -1.9190  -12.1090 h1        1 DSA      0.093333
     56 H17         2.6310   -0.3870   -1.5160 hn        1 DSA      0.289000
     57 H1          2.3270   -0.8030  -10.4620 hn        1 DSA      0.278000
     58 H6         -0.8210   -0.5780   -8.3170 ho        1 DSA      0.231000
     59 O6          0.0240   -0.5970   -8.7930 oh        1 DSA     -0.257000
     60 C28        -1.9830    0.2740    3.8930 c3        1 DSA     -0.077000
@<TRIPOS>BOND
     1    1    2 1   
     2    1    6 1   
     3    1    8 1   
     4    2    3 1   
     5    2   25 1   
     6    3    4 1   
     7    3   30 1   
     8    4    5 1   
     9    4   31 1   
    10    5    6 1   
    11    5   28 1   
    12    6   34 1   
    13    7    8 1   
    14    7    9 1   
    15    7   25 1   
    16    8   35 1   
    17    9   26 1   
    18    9   29 1   
    19   10   11 1   
    20   10   19 1   
    21   10   59 1   
    22   11   12 1   
    23   11   36 1   
    24   12   16 1   
    25   12   26 1   
    26   13   14 1   
    27   13   37 1   
    28   13   39 1   
    29   14   15 1   
    30   14   16 1   
    31   15   40 1   
    32   15   41 1   
    33   15   42 1   
    34   16   20 1   
    35   17   30 1   
    36   17   45 1   
    37   18   31 1   
    38   18   46 1   
    39   18   47 1   
    40   18   48 1   
    41   19   20 1   
    42   19   27 1   
    43   20   21 1   
    44   21   22 1   
    45   21   49 1   
    46   22   23 1   
    47   22   27 1   
    48   23   32 1   
    49   23   33 1   
    50   24   33 1   
    51   24   53 1   
    52   24   54 1   
    53   24   55 1   
    54   25   56 1   
    55   26   38 1   
    56   27   57 1   
    57   28   60 1   
    58   43   44 1   
    59   50   60 1   
    60   51   60 1   
    61   52   60 1   
    62   58   59 1   
@<TRIPOS>SUBSTRUCTURE
     1 DSA         1 TEMP              0 ****  ****    0 ROOT
