@<TRIPOS>MOLECULE
DSA
   60    48     1     0     0
SMALL
bcc


@<TRIPOS>ATOM
      1 C20        -2.0250    0.0110    3.6410 c1        1 DSA     -0.066000
      2 C21        -0.6470   -0.0740    3.6980 c1        1 DSA     -0.017000
      3 C22         0.0060   -0.0940    4.9450 c1        1 DSA      0.056000
      4 C23        -0.7510   -0.0250    6.1500 c1        1 DSA      0.038500
      5 C24        -2.1210    0.0600    6.0980 c1        1 DSA      0.038500
      6 C25        -2.7820    0.0790    4.8430 c1        1 DSA     -0.157000
      7 C18        -1.2370   -0.0390    1.5470 c1        1 DSA     -0.075000
      8 C19        -2.3930    0.0330    2.3150 c1        1 DSA     -0.126500
      9 C16        -1.5930    0.0200    0.0430 c1        1 DSA      0.368000
     10 C6         -1.8000    0.0900   -4.6720 c1        1 DSA      0.081000
     11 C7         -1.9050    0.0820   -3.2760 c1        1 DSA     -0.184000
     12 C8         -0.7340    0.0160   -2.4810 c1        1 DSA      0.059000
     13 C11         0.8950   -0.0600   -0.7130 c3        1 DSA     -0.039000
     14 C10         1.5840   -0.1150   -2.0060 c3        1 DSA     -0.063000
     15 C13         2.5330    1.0570   -2.1270 c3        1 DSA     -0.208000
     16 C9          0.5330   -0.0410   -3.0990 c1        1 DSA     -0.102000
     17 C26         2.1470   -1.1740    5.2540 c3        1 DSA     -0.077000
     18 C27         0.2700    1.3770    7.7650 c3        1 DSA     -0.074500
     19 C5         -0.5120    0.0330   -5.2940 c1        1 DSA     -0.014000
     20 C4          0.6330   -0.0310   -4.5180 c1        1 DSA     -0.040000
     21 C3          1.7200    0.0250   -5.3630 c1        1 DSA     -0.126500
     22 C2          1.2440    0.1240   -6.6640 c1        1 DSA     -0.075000
     23 C14         2.2270    0.1830   -7.7780 c1        1 DSA      0.364000
     24 C28        -3.8060   -0.7450    7.6310 c3        1 DSA     -0.074500
     25 C15         3.1540   -0.6970   -9.7390 c3        1 DSA     -0.060000
     26 N17        -0.1650   -0.1050    2.4000 n1        1 DSA     -0.172000
     27 N12        -0.5290   -0.0390   -0.9700 n3        1 DSA     -0.263000
     28 N1         -0.1280    0.1280   -6.6150 n1        1 DSA     -0.172000
     29 O24        -2.6420    0.0990    7.4280 os        1 DSA     -0.212000
     30 O16        -2.7470    0.0310   -0.3020 o         1 DSA     -0.331000
     31 O6         -2.7580    0.3120   -5.7170 oh        1 DSA     -0.259000
     32 O22         1.4270    0.0610    4.9860 os        1 DSA     -0.224000
     33 O23        -0.2460    0.0860    7.4540 os        1 DSA     -0.212000
     34 O15         2.4560   -0.9620   -8.5820 os        1 DSA     -0.286000
     35 O14         2.9180    1.1910   -7.9340 o         1 DSA     -0.339000
     36 H25        -3.7500    0.1400    4.8050 ha        1 DSA      0.148000
     37 H19        -3.3200    0.1570    1.9670 DU        1 DSA      0.221500
     38 H7         -2.8110    0.0170   -2.8430 ha        1 DSA      0.173000
     39 H111        1.1300   -0.8680   -0.1700 h1        1 DSA      0.097500
     40 H112        1.1770    0.8100   -0.1950 h1        1 DSA      0.097500
     41 H10         2.0690   -0.9330   -2.0800 hc        1 DSA      0.111000
     42 H131        2.0130    1.8830   -2.3430 hc        1 DSA      0.083000
     43 H132        3.1990    0.8770   -2.8610 hc        1 DSA      0.083000
     44 H133        3.0030    1.1800   -1.2880 hc        1 DSA      0.083000
     45 H261        1.5670   -1.7910    5.7600 h1        1 DSA      0.088000
     46 H262        2.4130   -1.6030    4.3840 h1        1 DSA      0.088000
     47 H263        2.9480   -0.9760    5.7790 h1        1 DSA      0.088000
     48 H271        1.1360    1.2820    8.2340 h1        1 DSA      0.084833
     49 H272        0.4000    1.8830    6.9420 h1        1 DSA      0.084833
     50 H273       -0.3490    1.8390    8.3290 h1        1 DSA      0.084833
     51 H3          2.6510    0.0600   -5.0940 DU        1 DSA      0.221500
     52 H281       -3.8940   -0.9610    8.5920 h1        1 DSA      0.084833
     53 H282       -3.7070   -1.5330    7.1430 h1        1 DSA      0.084833
     54 H283       -4.6040   -0.2750    7.3310 h1        1 DSA      0.084833
     55 H151        3.0660   -1.4290  -10.3360 h1        1 DSA      0.093000
     56 H152        4.1040   -0.5600   -9.5250 h1        1 DSA      0.093000
     57 H153        2.7990    0.1010  -10.1540 h1        1 DSA      0.093000
     58 H17         0.6840   -0.1570    2.1630 DU        1 DSA      0.221500
     59 H1         -0.6650    0.1840   -7.3010 DU        1 DSA      0.221500
     60 H6         -3.4820   -0.2240   -5.5830 ho        1 DSA      0.230000
@<TRIPOS>BOND
     1    1    6 1   
     2    2    3 1   
     3    3   32 1   
     4    4    5 1   
     5    4   33 1   
     6    5   29 1   
     7    6   36 1   
     8    7    8 1   
     9    7   26 1   
    10    9   27 1   
    11    9   30 1   
    12   10   19 1   
    13   10   31 1   
    14   11   12 1   
    15   11   38 1   
    16   12   27 1   
    17   13   14 1   
    18   13   27 1   
    19   13   39 1   
    20   13   40 1   
    21   14   15 1   
    22   14   16 1   
    23   14   41 1   
    24   15   42 1   
    25   15   43 1   
    26   15   44 1   
    27   16   20 1   
    28   17   32 1   
    29   17   45 1   
    30   17   46 1   
    31   17   47 1   
    32   18   33 1   
    33   18   48 1   
    34   18   49 1   
    35   18   50 1   
    36   21   22 1   
    37   22   28 1   
    38   23   34 1   
    39   23   35 1   
    40   24   29 1   
    41   24   52 1   
    42   24   53 1   
    43   24   54 1   
    44   25   34 1   
    45   25   55 1   
    46   25   56 1   
    47   25   57 1   
    48   31   60 1   
@<TRIPOS>SUBSTRUCTURE
     1 DSA         1 TEMP              0 ****  ****    0 ROOT
