@<TRIPOS>MOLECULE
DSB
   28    27     1     0     0
SMALL
bcc


@<TRIPOS>ATOM
      1 C1          1.6720   -4.0150   -2.7200 c         1 DSB      0.907600
      2 O2          2.7030   -4.1290   -1.9930 o         1 DSB     -0.857300
      3 C2          1.0840   -2.6150   -2.9650 c3        1 DSB     -0.187400
      4 C3          1.3060   -1.7050   -1.7820 c3        1 DSB     -0.166400
      5 C5          0.4440    0.5030   -0.8950 c3        1 DSB     -0.181400
      6 O1          1.1000   -4.9970   -3.2780 o         1 DSB     -0.857300
      7 C6          0.3430    1.9890   -1.1460 c3        1 DSB     -0.181400
      8 C8         -0.5190    4.1960   -0.2600 c3        1 DSB     -0.166400
      9 C9         -0.2970    5.1060    0.9230 c3        1 DSB     -0.187400
     10 C10        -0.8840    6.5060    0.6780 c         1 DSB      0.907600
     11 O11        -0.3130    7.4880    1.2370 o         1 DSB     -0.857300
     12 O12        -1.9140    6.6210   -0.0490 o         1 DSB     -0.857300
     13 C7         -0.2280    2.7530    0.0200 c         1 DSB      0.566100
     14 C4          1.0150   -0.2620   -2.0620 c         1 DSB      0.566100
     15 O4          1.2340    0.2850   -3.1510 o         1 DSB     -0.572100
     16 O7         -0.4490    2.2060    1.1090 o         1 DSB     -0.572100
     17 H21         1.5800   -2.1860   -3.8720 hc        1 DSB      0.033200
     18 H22        -0.0090   -2.7090   -3.1840 hc        1 DSB      0.033200
     19 H31         2.3860   -1.7940   -1.4700 hc        1 DSB      0.071200
     20 H32         0.6860   -2.0540   -0.9150 hc        1 DSB      0.071200
     21 H51         1.0820    0.3130    0.0090 hc        1 DSB      0.069200
     22 H52        -0.5740    0.0880   -0.6660 hc        1 DSB      0.069200
     23 H61        -0.2940    2.1780   -2.0510 hc        1 DSB      0.069200
     24 H62         1.3610    2.4030   -1.3750 hc        1 DSB      0.069200
     25 H81         0.1030    4.5450   -1.1260 hc        1 DSB      0.071200
     26 H82        -1.5980    4.2860   -0.5730 hc        1 DSB      0.071200
     27 H91        -0.7950    4.6770    1.8300 hc        1 DSB      0.033200
     28 H92         0.7950    5.1990    1.1450 hc        1 DSB      0.033200
@<TRIPOS>BOND
     1    1    2 1   
     2    1    3 1   
     3    1    6 1   
     4    3    4 1   
     5    3   17 1   
     6    3   18 1   
     7    4   14 1   
     8    4   19 1   
     9    4   20 1   
    10    5    7 1   
    11    5   14 1   
    12    5   21 1   
    13    5   22 1   
    14    7   13 1   
    15    7   23 1   
    16    7   24 1   
    17    8    9 1   
    18    8   13 1   
    19    8   25 1   
    20    8   26 1   
    21    9   10 1   
    22    9   27 1   
    23    9   28 1   
    24   10   11 1   
    25   10   12 1   
    26   13   16 2   
    27   14   15 2   
@<TRIPOS>SUBSTRUCTURE
     1 DSB         1 TEMP              0 ****  ****    0 ROOT
