@<TRIPOS>MOLECULE
DSB
   28    27     1     0     0
SMALL
bcc


@<TRIPOS>ATOM
      1 C1          0.0710    0.0640    0.0930 c         1 DSB      0.907600
      2 O2          1.1100    0.7730    0.2410 o         1 DSB     -0.857300
      3 C2         -0.9080   -0.0770    1.2700 c3        1 DSB     -0.187400
      4 C3         -0.1940   -0.0120    2.5980 c3        1 DSB     -0.166400
      5 C5         -0.6440   -0.5510    5.0290 c3        1 DSB     -0.181400
      6 O1         -0.2200   -0.5290   -0.9870 o         1 DSB     -0.857300
      7 C6         -1.4770   -0.2140    6.2430 c3        1 DSB     -0.181400
      8 C8         -1.9280   -0.7490    8.6740 c3        1 DSB     -0.166400
      9 C9         -1.2060   -0.6850    9.9980 c3        1 DSB     -0.187400
     10 C10        -2.1820   -0.8130   11.1810 c         1 DSB      0.907600
     11 O11        -1.8800   -0.2190   12.2570 o         1 DSB     -0.857300
     12 O12        -3.2280   -1.5120   11.0400 o         1 DSB     -0.857300
     13 C7         -1.0180   -0.9160    7.4950 c         1 DSB      0.566100
     14 C4         -1.1100    0.1420    3.7740 c         1 DSB      0.566100
     15 O4         -2.1600    0.7970    3.7460 o         1 DSB     -0.572100
     16 O7          0.0230   -1.5860    7.5190 o         1 DSB     -0.572100
     17 H21        -1.6540    0.7550    1.2000 hc        1 DSB      0.033200
     18 H22        -1.4630   -1.0430    1.1730 hc        1 DSB      0.033200
     19 H31         0.5060    0.8710    2.5760 hc        1 DSB      0.071200
     20 H32         0.4400   -0.9280    2.7310 hc        1 DSB      0.071200
     21 H51         0.4280   -0.2780    5.2170 hc        1 DSB      0.069450
     22 H52        -0.6690   -1.6590    4.8490 hc        1 DSB      0.069450
     23 H61        -1.4460    0.8930    6.4270 hc        1 DSB      0.069450
     24 H62        -2.5510   -0.4800    6.0510 hc        1 DSB      0.069450
     25 H81        -2.5550    0.1710    8.5410 hc        1 DSB      0.071200
     26 H82        -2.6340   -1.6270    8.7030 hc        1 DSB      0.071200
     27 H91        -0.6430    0.2760   10.0900 hc        1 DSB      0.033200
     28 H92        -0.4670   -1.5230   10.0690 hc        1 DSB      0.033200
@<TRIPOS>BOND
     1    1    2 1   
     2    1    3 1   
     3    1    6 1   
     4    3    4 1   
     5    3   17 1   
     6    3   18 1   
     7    4   14 1   
     8    4   19 1   
     9    4   20 1   
    10    5    7 1   
    11    5   14 1   
    12    5   21 1   
    13    5   22 1   
    14    7   13 1   
    15    7   23 1   
    16    7   24 1   
    17    8    9 1   
    18    8   13 1   
    19    8   25 1   
    20    8   26 1   
    21    9   10 1   
    22    9   27 1   
    23    9   28 1   
    24   10   11 1   
    25   10   12 1   
    26   13   16 2   
    27   14   15 2   
@<TRIPOS>SUBSTRUCTURE
     1 DSB         1 TEMP              0 ****  ****    0 ROOT
