@<TRIPOS>MOLECULE
DSB
   28    27     1     0     0
SMALL
bcc


@<TRIPOS>ATOM
      1 C1          0.0880    0.0260    0.0940 c         1 DSB      0.907600
      2 O2          1.1210    0.7440    0.2370 o         1 DSB     -0.857300
      3 C2         -0.8930   -0.1100    1.2700 c3        1 DSB     -0.187400
      4 C3         -0.1820   -0.0260    2.5990 c3        1 DSB     -0.166400
      5 C5         -0.6380   -0.5490    5.0320 c3        1 DSB     -0.181400
      6 O1         -0.1970   -0.5790   -0.9810 o         1 DSB     -0.857300
      7 C6         -1.4810   -0.2120    6.2390 c3        1 DSB     -0.181400
      8 C8         -1.9360   -0.7350    8.6720 c3        1 DSB     -0.166400
      9 C9         -1.2260   -0.6510   10.0010 c3        1 DSB     -0.187400
     10 C10        -2.2070   -0.7880   11.1770 c         1 DSB      0.907600
     11 O11        -1.9230   -0.1830   12.2520 o         1 DSB     -0.857300
     12 O12        -3.2400   -1.5060   11.0340 o         1 DSB     -0.857300
     13 C7         -1.0160   -0.8940    7.5000 c         1 DSB      0.566100
     14 C4         -1.1030    0.1330    3.7710 c         1 DSB      0.566100
     15 O4         -2.1560    0.7830    3.7350 o         1 DSB     -0.572100
     16 O7          0.0380   -1.5430    7.5370 o         1 DSB     -0.572100
     17 H21        -1.6450    0.7150    1.1900 hc        1 DSB      0.033200
     18 H22        -1.4400   -1.0820    1.1810 hc        1 DSB      0.033200
     19 H31         0.5100    0.8630    2.5700 hc        1 DSB      0.071200
     20 H32         0.4580   -0.9350    2.7420 hc        1 DSB      0.071200
     21 H51         0.4310   -0.2650    5.2250 hc        1 DSB      0.069200
     22 H52        -0.6520   -1.6580    4.8590 hc        1 DSB      0.069200
     23 H61        -1.4670    0.8970    6.4120 hc        1 DSB      0.069200
     24 H62        -2.5500   -0.4960    6.0460 hc        1 DSB      0.069200
     25 H81        -2.5770    0.1740    8.5290 hc        1 DSB      0.071200
     26 H82        -2.6290   -1.6240    8.7010 hc        1 DSB      0.071200
     27 H91        -0.6790    0.3200   10.0910 hc        1 DSB      0.033200
     28 H92        -0.4730   -1.4770   10.0820 hc        1 DSB      0.033200
@<TRIPOS>BOND
     1    1    2 1   
     2    1    3 1   
     3    1    6 1   
     4    3    4 1   
     5    3   17 1   
     6    3   18 1   
     7    4   14 1   
     8    4   19 1   
     9    4   20 1   
    10    5    7 1   
    11    5   14 1   
    12    5   21 1   
    13    5   22 1   
    14    7   13 1   
    15    7   23 1   
    16    7   24 1   
    17    8    9 1   
    18    8   13 1   
    19    8   25 1   
    20    8   26 1   
    21    9   10 1   
    22    9   27 1   
    23    9   28 1   
    24   10   11 1   
    25   10   12 1   
    26   13   16 2   
    27   14   15 2   
@<TRIPOS>SUBSTRUCTURE
     1 DSB         1 TEMP              0 ****  ****    0 ROOT
