@<TRIPOS>MOLECULE
DSB
   28    26     1     0     0
SMALL
bcc


@<TRIPOS>ATOM
      1 C1          2.5230   -2.6890   -4.2690 c1        1 DSB      0.327000
      2 O2          3.7820   -2.6890   -4.2690 o         1 DSB     -0.592000
      3 C2          1.7660   -2.6890   -2.9590 c2        1 DSB     -0.216000
      4 C3          1.5320   -1.2620   -2.5120 c3        1 DSB     -0.194000
      5 C5          0.0150   -0.0290   -0.7680 c3        1 DSB     -0.212000
      6 O1          1.8930   -2.6890   -5.3600 o         1 DSB     -0.592000
      7 C6         -0.2480   -0.0970    0.7210 c3        1 DSB     -0.212000
      8 C8         -1.0190    1.5450    2.6120 c3        1 DSB     -0.194000
      9 C9         -2.2010    2.4520    2.8730 c3        1 DSB     -0.216000
     10 C10        -2.2200    2.8480    4.3330 c2        1 DSB      0.327000
     11 O11        -2.8480    2.1460    5.1680 o         1 DSB     -0.592000
     12 O12        -1.6090    3.8820    4.7120 o         1 DSB     -0.592000
     13 C7         -1.0080    1.1370    1.1550 c2        1 DSB      0.227000
     14 C4          0.7760   -1.2620   -1.2020 c2        1 DSB      0.227000
     15 O4          0.7770   -2.2540   -0.5000 o         1 DSB     -0.333000
     16 O7         -1.6090    1.8010    0.3340 o         1 DSB     -0.333000
     17 H21         2.2880   -3.1600   -2.2820 ha        1 DSB      0.073000
     18 H22         0.9080   -3.1370   -3.0790 ha        1 DSB      0.073000
     19 H31         1.0100   -0.7910   -3.1890 hc        1 DSB      0.111000
     20 H32         2.3910   -0.8140   -2.3920 hc        1 DSB      0.111000
     21 H51         0.5440    0.7670   -0.9680 hc        1 DSB      0.109000
     22 H52        -0.8340    0.0150   -1.2470 hc        1 DSB      0.109000
     23 H61        -0.7780   -0.8920    0.9210 hc        1 DSB      0.109000
     24 H62         0.6010   -0.1420    1.2000 hc        1 DSB      0.109000
     25 H81        -0.1920    2.0190    2.8230 hc        1 DSB      0.111000
     26 H82        -1.0890    0.7490    3.1720 hc        1 DSB      0.111000
     27 H91        -3.0270    1.9810    2.6530 hc        1 DSB      0.073000
     28 H92        -2.1260    3.2520    2.3200 hc        1 DSB      0.073000
@<TRIPOS>BOND
     1    1    2 1   
     2    1    6 1   
     3    3    4 1   
     4    3   17 1   
     5    3   18 1   
     6    4   14 1   
     7    4   19 1   
     8    4   20 1   
     9    5    7 1   
    10    5   14 1   
    11    5   21 1   
    12    5   22 1   
    13    7   13 1   
    14    7   23 1   
    15    7   24 1   
    16    8    9 1   
    17    8   13 1   
    18    8   25 1   
    19    8   26 1   
    20    9   10 1   
    21    9   27 1   
    22    9   28 1   
    23   10   11 1   
    24   10   12 1   
    25   13   16 1   
    26   14   15 1   
@<TRIPOS>SUBSTRUCTURE
     1 DSB         1 TEMP              0 ****  ****    0 ROOT
