@<TRIPOS>MOLECULE
DSC
   41    38     1     0     0
SMALL
bcc


@<TRIPOS>ATOM
      1 S           6.0110    4.3450    1.6880 ss        1 DSC      2.856000
      2 O1S         7.5210    4.3450    1.6880 o         1 DSC     -1.076500
      3 O2S         5.7180    4.3450    3.1690 o         1 DSC     -1.076500
      4 O3S         5.4630    5.5840    1.0210 os        1 DSC     -1.076000
      5 C1          5.3680    2.8900    0.9050 c2        1 DSC     -0.830000
      6 C2          3.8700    2.8280    1.1090 c3        1 DSC     -0.117000
      7 C3          3.3220    1.5840    0.4450 c3        1 DSC     -0.152000
      8 C4          1.8210    1.5340    0.6290 c3        1 DSC     -0.158000
      9 C5          1.2750    0.2790   -0.0150 c3        1 DSC     -0.157000
     10 C6         -0.2270    0.2350    0.1590 c3        1 DSC     -0.158000
     11 C7         -0.7730   -1.0180   -0.4910 c3        1 DSC     -0.157000
     12 C8         -2.2750   -1.0650   -0.3120 c3        1 DSC     -0.158000
     13 C9         -2.8200   -2.3200   -0.9570 c3        1 DSC     -0.158000
     14 C10        -4.3220   -2.3680   -0.7770 c3        1 DSC     -0.158000
     15 C11        -4.8670   -3.6230   -1.4210 c3        1 DSC     -0.159000
     16 C12        -6.3680   -3.6720   -1.2390 c3        1 DSC     -0.210000
     17 H11         5.7830    2.0990    1.2970 ha        1 DSC      0.100000
     18 H12         5.5650    2.9210   -0.0510 ha        1 DSC      0.100000
     19 H21         3.4550    3.6180    0.7140 hc        1 DSC      0.086000
     20 H22         3.6730    2.8000    2.0650 hc        1 DSC      0.086000
     21 H31         3.7260    0.7940    0.8500 hc        1 DSC      0.068000
     22 H32         3.5320    1.6050   -0.5080 hc        1 DSC      0.068000
     23 H41         1.6100    1.5290    1.5820 hc        1 DSC      0.077000
     24 H42         1.4150    2.3170    0.2100 hc        1 DSC      0.077000
     25 H51         1.4930    0.2800   -0.9660 hc        1 DSC      0.074000
     26 H52         1.6750   -0.5050    0.4090 hc        1 DSC      0.074000
     27 H61        -0.6260    1.0200   -0.2620 hc        1 DSC      0.077000
     28 H62        -0.4440    0.2290    1.1100 hc        1 DSC      0.077000
     29 H71        -0.3710   -1.8030   -0.0730 hc        1 DSC      0.076000
     30 H72        -0.5590   -1.0110   -1.4430 hc        1 DSC      0.076000
     31 H81        -2.4890   -1.0690    0.6400 hc        1 DSC      0.078000
     32 H82        -2.6770   -0.2810   -0.7320 hc        1 DSC      0.078000
     33 H91        -2.6070   -2.3150   -1.9100 hc        1 DSC      0.077000
     34 H92        -2.4170   -3.1030   -0.5380 hc        1 DSC      0.077000
     35 H101       -4.7250   -1.5840   -1.1970 hc        1 DSC      0.078000
     36 H102       -4.5350   -2.3720    0.1760 hc        1 DSC      0.078000
     37 H111       -4.4630   -4.4060   -1.0020 hc        1 DSC      0.077000
     38 H112       -4.6550   -3.6180   -2.3740 hc        1 DSC      0.077000
     39 H121       -6.5800   -3.6770   -0.2860 hc        1 DSC      0.069667
     40 H122       -6.7200   -4.4820   -1.6550 hc        1 DSC      0.069667
     41 H123       -6.7730   -2.8880   -1.6580 hc        1 DSC      0.069667
@<TRIPOS>BOND
     1    1    2 1   
     2    1    3 1   
     3    5    6 1   
     4    5   17 1   
     5    5   18 1   
     6    6    7 1   
     7    6   19 1   
     8    6   20 1   
     9    7    8 1   
    10    7   21 1   
    11    7   22 1   
    12    8    9 1   
    13    8   23 1   
    14    8   24 1   
    15    9   10 1   
    16    9   25 1   
    17    9   26 1   
    18   10   11 1   
    19   10   27 1   
    20   10   28 1   
    21   11   12 1   
    22   11   29 1   
    23   11   30 1   
    24   12   13 1   
    25   12   31 1   
    26   12   32 1   
    27   13   14 1   
    28   13   33 1   
    29   13   34 1   
    30   14   15 1   
    31   14   35 1   
    32   14   36 1   
    33   15   16 1   
    34   15   37 1   
    35   15   38 1   
    36   16   39 1   
    37   16   40 1   
    38   16   41 1   
@<TRIPOS>SUBSTRUCTURE
     1 DSC         1 TEMP              0 ****  ****    0 ROOT
