@<TRIPOS>MOLECULE
DSC
   41    40     1     0     0
SMALL
bcc


@<TRIPOS>ATOM
      1 S          -5.6490   -0.1330   -0.0020 s6        1 DSC      1.426800
      2 O1S        -6.6570    0.8630    0.0100 o         1 DSC     -0.753533
      3 O2S        -5.6110   -0.9190    1.1760 o         1 DSC     -0.753533
      4 O3S        -5.6110   -0.8920   -1.1970 o         1 DSC     -0.753533
      5 C1         -4.1320    0.8000    0.0090 c3        1 DSC     -0.290600
      6 C2         -2.9140   -0.0770   -0.0010 c3        1 DSC     -0.038400
      7 C3         -1.6310    0.7280    0.0080 c3        1 DSC     -0.073400
      8 C4         -0.4140   -0.1720   -0.0020 c3        1 DSC     -0.079400
      9 C5          0.8700    0.6310    0.0070 c3        1 DSC     -0.078400
     10 C6          2.0860   -0.2710   -0.0030 c3        1 DSC     -0.079400
     11 C7          3.3680    0.5330    0.0060 c3        1 DSC     -0.078400
     12 C8          4.5840   -0.3690   -0.0040 c3        1 DSC     -0.079400
     13 C9          5.8670    0.4350    0.0050 c3        1 DSC     -0.079400
     14 C10         7.0820   -0.4680   -0.0050 c3        1 DSC     -0.079400
     15 C11         8.3660    0.3350    0.0040 c3        1 DSC     -0.080400
     16 C12         9.5780   -0.5590   -0.0060 c3        1 DSC     -0.092100
     17 H11        -4.1230    1.4550    0.9120 h1        1 DSC      0.060700
     18 H12        -4.1230    1.4740   -0.8800 h1        1 DSC      0.060700
     19 H21        -2.9390   -0.7330   -0.9130 hc        1 DSC      0.046700
     20 H22        -2.9390   -0.7520    0.8970 hc        1 DSC      0.046700
     21 H31        -1.6060    1.3840    0.9170 hc        1 DSC      0.028700
     22 H32        -1.6060    1.4030   -0.8870 hc        1 DSC      0.028700
     23 H41        -0.4410   -0.8290   -0.9110 hc        1 DSC      0.037700
     24 H42        -0.4410   -0.8480    0.8930 hc        1 DSC      0.037700
     25 H51         0.8950    1.2870    0.9160 hc        1 DSC      0.034700
     26 H52         0.8950    1.3070   -0.8880 hc        1 DSC      0.034700
     27 H61         2.0590   -0.9270   -0.9130 hc        1 DSC      0.037700
     28 H62         2.0590   -0.9460    0.8920 hc        1 DSC      0.037700
     29 H71         3.3940    1.1890    0.9150 hc        1 DSC      0.036700
     30 H72         3.3940    1.2090   -0.8890 hc        1 DSC      0.036700
     31 H81         4.5570   -1.0250   -0.9140 hc        1 DSC      0.038700
     32 H82         4.5570   -1.0450    0.8910 hc        1 DSC      0.038700
     33 H91         5.8930    1.0910    0.9140 hc        1 DSC      0.037700
     34 H92         5.8930    1.1110   -0.8900 hc        1 DSC      0.037700
     35 H101        7.0560   -1.1240   -0.9150 hc        1 DSC      0.038700
     36 H102        7.0560   -1.1430    0.8900 hc        1 DSC      0.038700
     37 H111        8.3890    0.9920    0.9130 hc        1 DSC      0.037700
     38 H112        8.3890    1.0120   -0.8910 hc        1 DSC      0.037700
     39 H121       10.5130    0.0520    0.0010 hc        1 DSC      0.030367
     40 H122        9.5850   -1.2240    0.8920 hc        1 DSC      0.030367
     41 H123        9.5850   -1.2040   -0.9180 hc        1 DSC      0.030367
@<TRIPOS>BOND
     1    1    2 1   
     2    1    3 1   
     3    1    4 1   
     4    1    5 1   
     5    5    6 1   
     6    5   17 1   
     7    5   18 1   
     8    6    7 1   
     9    6   19 1   
    10    6   20 1   
    11    7    8 1   
    12    7   21 1   
    13    7   22 1   
    14    8    9 1   
    15    8   23 1   
    16    8   24 1   
    17    9   10 1   
    18    9   25 1   
    19    9   26 1   
    20   10   11 1   
    21   10   27 1   
    22   10   28 1   
    23   11   12 1   
    24   11   29 1   
    25   11   30 1   
    26   12   13 1   
    27   12   31 1   
    28   12   32 1   
    29   13   14 1   
    30   13   33 1   
    31   13   34 1   
    32   14   15 1   
    33   14   35 1   
    34   14   36 1   
    35   15   16 1   
    36   15   37 1   
    37   15   38 1   
    38   16   39 1   
    39   16   40 1   
    40   16   41 1   
@<TRIPOS>SUBSTRUCTURE
     1 DSC         1 TEMP              0 ****  ****    0 ROOT
