@<TRIPOS>MOLECULE
DSD
   34    32     1     0     0
SMALL
bcc


@<TRIPOS>ATOM
      1 C1          2.8460   -3.2780    3.6940 c1        1 DSD      0.325000
      2 O1          3.7460   -3.9610    3.1380 o         1 DSD     -0.602000
      3 O2          3.0240   -2.8270    4.8550 os        1 DSD     -0.593000
      4 C2          1.5490   -3.0000    2.9650 c3        1 DSD     -0.215000
      5 C3          1.7140   -1.7760    2.0910 c3        1 DSD     -0.143000
      6 C4          0.4140   -1.4910    1.3720 c3        1 DSD     -0.157000
      7 C5          0.6130   -0.3440    0.4050 c3        1 DSD     -0.155000
      8 C6         -0.7260    0.0850   -0.1520 c3        1 DSD     -0.150000
      9 C7         -0.5130    1.0970   -1.2550 c3        1 DSD     -0.013000
     10 C8         -1.3740    2.3120   -0.9970 c3        1 DSD     -0.073000
     11 C9         -2.7320    2.1110   -1.6290 c3        1 DSD     -0.206000
     12 N7         -0.8700    0.5200   -2.5030 n         1 DSD     -0.390000
     13 C          -0.1160    0.8230   -3.6660 c2        1 DSD      0.384000
     14 O          -0.4230    0.2990   -4.7690 o         1 DSD     -0.589500
     15 OXT         0.8550    1.6210   -3.5970 o         1 DSD     -0.589500
     16 N8         -0.7540    3.4610   -1.5620 n3        1 DSD     -0.344000
     17 H21         1.3170   -3.7690    2.4080 hc        1 DSD      0.054500
     18 H22         0.8370   -2.8420    3.6160 hc        1 DSD      0.054500
     19 H31         1.9540   -1.0080    2.6470 hc        1 DSD      0.081500
     20 H32         2.4210   -1.9370    1.4350 hc        1 DSD      0.081500
     21 H41         0.1330   -2.2880    0.8790 hc        1 DSD      0.057500
     22 H42        -0.2740   -1.2520    2.0240 hc        1 DSD      0.057500
     23 H51         1.0280    0.4080    0.8730 hc        1 DSD      0.085500
     24 H52         1.1940   -0.6320   -0.3270 hc        1 DSD      0.085500
     25 H61        -1.1950   -0.6950   -0.5110 hc        1 DSD      0.059500
     26 H62        -1.2620    0.4870    0.5610 hc        1 DSD      0.059500
     27 H7          0.4280    1.3630   -1.2760 h1        1 DSD      0.112000
     28 H8         -1.4780    2.4390   -0.0330 h1        1 DSD      0.068000
     29 H91        -2.6570    2.2060   -2.6010 hc        1 DSD      0.063333
     30 H92        -3.0630    1.2140   -1.4130 hc        1 DSD      0.063333
     31 H93        -3.3570    2.7820   -1.2810 hc        1 DSD      0.063333
     32 HN7        -1.5780   -0.0530   -2.5540 hn        1 DSD      0.155000
     33 HN81       -0.3080    3.9210   -0.9070 hn        1 DSD      0.155000
     34 HN82       -1.3930    4.0020   -1.9330 hn        1 DSD      0.155000
@<TRIPOS>BOND
     1    1    2 1   
     2    1    4 1   
     3    4    5 1   
     4    4   17 1   
     5    4   18 1   
     6    5    6 1   
     7    5   19 1   
     8    5   20 1   
     9    6    7 1   
    10    6   21 1   
    11    6   22 1   
    12    7    8 1   
    13    7   23 1   
    14    7   24 1   
    15    8    9 1   
    16    8   25 1   
    17    8   26 1   
    18    9   10 1   
    19    9   12 1   
    20    9   27 1   
    21   10   11 1   
    22   10   16 1   
    23   10   28 1   
    24   11   29 1   
    25   11   30 1   
    26   11   31 1   
    27   12   13 1   
    28   12   32 1   
    29   13   14 1   
    30   13   15 1   
    31   16   33 1   
    32   16   34 1   
@<TRIPOS>SUBSTRUCTURE
     1 DSD         1 TEMP              0 ****  ****    0 ROOT
