@<TRIPOS>MOLECULE
DSD
   36    34     1     0     0
SMALL
bcc


@<TRIPOS>ATOM
      1 C1         -3.0440   -1.5870   -1.7140 c         1 DSD      0.634100
      2 O1         -2.5990   -2.2600   -2.6480 o         1 DSD     -0.552000
      3 O2         -4.2790   -1.9220   -1.2470 oh        1 DSD     -0.618100
      4 C2         -2.4020   -0.4330   -1.0080 c3        1 DSD     -0.126400
      5 C3         -3.1300    0.8660   -1.2960 c3        1 DSD     -0.081400
      6 C4         -3.0500    1.2500   -2.7620 c3        1 DSD     -0.089400
      7 C5         -4.2120    2.1170   -3.2110 c3        1 DSD     -0.077400
      8 C6         -5.2640    1.3520   -3.9890 c3        1 DSD     -0.114400
      9 C7         -6.0090    0.3230   -3.1240 c3        1 DSD      0.149500
     10 C8         -6.6700   -0.7530   -4.0400 c3        1 DSD      0.173500
     11 C9         -7.8680   -0.1760   -4.7940 c3        1 DSD     -0.135100
     12 N7         -6.9510    0.8820   -2.1740 n8        1 DSD     -0.923800
     13 C          -6.8430   -0.6190    0.1800 c1        1 DSD      0.914000
     14 O          -6.1410    0.2570    0.5800 o         1 DSD     -0.457000
     15 OXT        -7.5510   -1.5010   -0.1870 o         1 DSD     -0.457000
     16 N8         -6.9420   -1.9700   -3.2960 n8        1 DSD     -0.916800
     17 H21        -1.3350   -0.3680   -1.3470 hc        1 DSD      0.077700
     18 H22        -2.4170   -0.6360    0.0960 hc        1 DSD      0.077700
     19 H31        -4.2000    0.7610   -0.9670 hc        1 DSD      0.058700
     20 H32        -2.6730    1.6770   -0.6710 hc        1 DSD      0.058700
     21 H41        -3.0070    0.3210   -3.3940 hc        1 DSD      0.049700
     22 H42        -2.0880    1.8000   -2.9380 hc        1 DSD      0.049700
     23 H51        -3.8170    2.9320   -3.8760 hc        1 DSD      0.039700
     24 H52        -4.6780    2.6230   -2.3250 hc        1 DSD      0.039700
     25 H61        -4.7700    0.8190   -4.8430 hc        1 DSD      0.046700
     26 H62        -5.9920    2.0830   -4.4310 hc        1 DSD      0.046700
     27 H7         -5.2230   -0.2180   -2.5060 h1        1 DSD      0.079700
     28 H8         -5.8900   -1.0360   -4.8120 h1        1 DSD      0.058700
     29 H91        -8.1750   -0.8690   -5.6150 hc        1 DSD      0.038033
     30 H92        -8.7470   -0.0280   -4.1210 hc        1 DSD      0.038033
     31 H93        -7.5960    0.8060   -5.2480 hc        1 DSD      0.038033
     32 HN7        -6.4880    1.5510   -1.5870 hn        1 DSD      0.351800
     33 HN81       -4.6700   -2.6150   -1.8090 ho        1 DSD      0.462000
     34 HN82       -7.4340   -1.7740   -2.4450 hn        1 DSD      0.356800
     35 H72        -7.7100    1.3340   -2.6460 hn        1 DSD      0.351800
     36 H83        -7.4960   -2.5920   -3.8530 hn        1 DSD      0.356800
@<TRIPOS>BOND
     1    1    2 2   
     2    1    3 1   
     3    1    4 1   
     4    3   33 1   
     5    4    5 1   
     6    4   17 1   
     7    4   18 1   
     8    5    6 1   
     9    5   19 1   
    10    5   20 1   
    11    6    7 1   
    12    6   21 1   
    13    6   22 1   
    14    7    8 1   
    15    7   23 1   
    16    7   24 1   
    17    8    9 1   
    18    8   25 1   
    19    8   26 1   
    20    9   10 1   
    21    9   12 1   
    22    9   27 1   
    23   10   11 1   
    24   10   16 1   
    25   10   28 1   
    26   11   29 1   
    27   11   30 1   
    28   11   31 1   
    29   12   32 1   
    30   12   35 1   
    31   13   14 2   
    32   13   15 2   
    33   16   34 1   
    34   16   36 1   
@<TRIPOS>SUBSTRUCTURE
     1 DSD         1 TEMP              0 ****  ****    0 ROOT
