@<TRIPOS>MOLECULE
DSD
   36    34     1     0     0
SMALL
bcc


@<TRIPOS>ATOM
      1 C1         -2.9210   -1.4400   -1.7620 c         1 DSD      0.634100
      2 O1         -2.5020   -2.1470   -2.6840 o         1 DSD     -0.552000
      3 O2         -4.1090   -1.7990   -1.2010 oh        1 DSD     -0.618100
      4 C2         -2.2910   -0.2210   -1.1620 c3        1 DSD     -0.126400
      5 C3         -3.0930    1.0270   -1.4750 c3        1 DSD     -0.081400
      6 C4         -3.1200    1.3290   -2.9620 c3        1 DSD     -0.089400
      7 C5         -4.3450    2.1190   -3.3840 c3        1 DSD     -0.077400
      8 C6         -5.4060    1.2670   -4.0510 c3        1 DSD     -0.114400
      9 C7         -6.0500    0.2590   -3.0860 c3        1 DSD      0.149500
     10 C8         -6.7150   -0.8960   -3.8980 c3        1 DSD      0.173500
     11 C9         -7.9810   -0.4140   -4.6060 c3        1 DSD     -0.135100
     12 N7         -6.9570    0.8310   -2.1100 n3        1 DSD     -0.923800
     13 C          -6.6380   -0.5250    0.3110 c1        1 DSD      0.914000
     14 O          -5.9550    0.4010    0.6170 o         1 DSD     -0.457000
     15 OXT        -7.3260   -1.4570    0.0390 o         1 DSD     -0.457000
     16 N8         -6.8860   -2.0780   -3.0720 n3        1 DSD     -0.916800
     17 H21        -1.2500   -0.1310   -1.5710 hc        1 DSD      0.077700
     18 H22        -2.2300   -0.3600   -0.0500 hc        1 DSD      0.077700
     19 H31        -2.6370    1.8920   -0.9250 hc        1 DSD      0.058700
     20 H32        -4.1360    0.8970   -1.0740 hc        1 DSD      0.058700
     21 H41        -2.1960    1.9080   -3.2280 hc        1 DSD      0.049700
     22 H42        -3.0720    0.3680   -3.5430 hc        1 DSD      0.049700
     23 H51        -4.7790    2.6550   -2.4990 hc        1 DSD      0.039700
     24 H52        -4.0290    2.9100   -4.1160 hc        1 DSD      0.039700
     25 H61        -4.9410    0.7070   -4.9040 hc        1 DSD      0.046700
     26 H62        -6.1920    1.9390   -4.4860 hc        1 DSD      0.046700
     27 H7         -5.2040   -0.2120   -2.4900 h1        1 DSD      0.079700
     28 H8         -5.9700   -1.1890   -4.7010 h1        1 DSD      0.058700
     29 H91        -8.8240   -0.2650   -3.8890 hc        1 DSD      0.038033
     30 H92        -7.7820    0.5500   -5.1290 hc        1 DSD      0.038033
     31 H93        -8.3050   -1.1660   -5.3660 hc        1 DSD      0.038033
     32 HN7        -7.7630    1.2230   -2.5580 hn        1 DSD      0.351800
     33 HN81       -4.5010   -2.5400   -1.6970 ho        1 DSD      0.462000
     34 HN82       -7.3330   -1.8540   -2.2040 hn        1 DSD      0.356800
     35 H72        -6.4910    1.5520   -1.5920 hn        1 DSD      0.351800
     36 H83        -7.4430   -2.7540   -3.5580 hn        1 DSD      0.356800
@<TRIPOS>BOND
     1    1    2 2   
     2    1    3 1   
     3    1    4 1   
     4    3   33 1   
     5    4    5 1   
     6    4   17 1   
     7    4   18 1   
     8    5    6 1   
     9    5   19 1   
    10    5   20 1   
    11    6    7 1   
    12    6   21 1   
    13    6   22 1   
    14    7    8 1   
    15    7   23 1   
    16    7   24 1   
    17    8    9 1   
    18    8   25 1   
    19    8   26 1   
    20    9   10 1   
    21    9   12 1   
    22    9   27 1   
    23   10   11 1   
    24   10   16 1   
    25   10   28 1   
    26   11   29 1   
    27   11   30 1   
    28   11   31 1   
    29   12   32 1   
    30   12   35 1   
    31   13   14 2   
    32   13   15 2   
    33   16   34 1   
    34   16   36 1   
@<TRIPOS>SUBSTRUCTURE
     1 DSD         1 TEMP              0 ****  ****    0 ROOT
