@<TRIPOS>MOLECULE
DSD
   36    34     1     0     0
SMALL
bcc


@<TRIPOS>ATOM
      1 C1         -3.0070   -1.2100   -1.9430 c         1 DSD      0.636100
      2 O1         -3.4560   -1.2890   -0.7950 o         1 DSD     -0.556000
      3 O2         -3.5810   -2.0120   -2.8830 oh        1 DSD     -0.616100
      4 C2         -1.8980   -0.3560   -2.4720 c3        1 DSD     -0.126400
      5 C3         -1.9010    1.0300   -1.8600 c3        1 DSD     -0.078400
      6 C4         -2.8820    1.9940   -2.4990 c3        1 DSD     -0.078400
      7 C5         -4.3300    1.7060   -2.1510 c3        1 DSD     -0.092400
      8 C6         -5.0330    0.8990   -3.2260 c3        1 DSD     -0.123400
      9 C7         -6.1620    0.0380   -2.6350 c3        1 DSD      0.153500
     10 C8         -6.6250   -0.9940   -3.7110 c3        1 DSD      0.167500
     11 C9         -7.4710   -0.3270   -4.7930 c3        1 DSD     -0.132100
     12 N7         -7.2700    0.7770   -2.0650 n3        1 DSD     -0.923800
     13 C          -9.0820   -0.2580   -0.2490 c1        1 DSD      0.907000
     14 O          -8.7520    0.6270    0.4750 o         1 DSD     -0.455000
     15 OXT        -9.4440   -1.1490   -0.9500 o         1 DSD     -0.455000
     16 N8         -7.2320   -2.1590   -3.0910 n3        1 DSD     -0.914800
     17 H21        -0.9360   -0.8790   -2.2160 hc        1 DSD      0.078200
     18 H22        -1.9710   -0.2980   -3.5900 hc        1 DSD      0.078200
     19 H31        -0.8670    1.4560   -1.9720 hc        1 DSD      0.058200
     20 H32        -2.1140    0.9480   -0.7600 hc        1 DSD      0.058200
     21 H41        -2.6250    3.0270   -2.1400 hc        1 DSD      0.043200
     22 H42        -2.7440    1.9910   -3.6120 hc        1 DSD      0.043200
     23 H51        -4.8740    2.6760   -2.0040 hc        1 DSD      0.049200
     24 H52        -4.3730    1.1540   -1.1720 hc        1 DSD      0.049200
     25 H61        -5.4290    1.5840   -4.0180 hc        1 DSD      0.049700
     26 H62        -4.2950    0.2100   -3.7190 hc        1 DSD      0.049700
     27 H7         -5.6970   -0.5550   -1.7820 h1        1 DSD      0.079700
     28 H8         -5.6780   -1.3770   -4.2060 h1        1 DSD      0.060700
     29 H91        -6.9780    0.6100   -5.1440 hc        1 DSD      0.038033
     30 H92        -7.5830   -1.0120   -5.6680 hc        1 DSD      0.038033
     31 H93        -8.4930   -0.0740   -4.4200 hc        1 DSD      0.038033
     32 HN7        -7.7250    1.3290   -2.7660 hn        1 DSD      0.352300
     33 HN81       -7.6880   -2.7150   -3.7880 hn        1 DSD      0.356300
     34 HN82       -7.9070   -1.8910   -2.4010 hn        1 DSD      0.356300
     35 H72        -6.9380    1.3850   -1.3400 hn        1 DSD      0.352300
     36 H83        -4.3290   -2.5010   -2.4950 ho        1 DSD      0.459000
@<TRIPOS>BOND
     1    1    2 2   
     2    1    3 1   
     3    1    4 1   
     4    3   36 1   
     5    4    5 1   
     6    4   17 1   
     7    4   18 1   
     8    5    6 1   
     9    5   19 1   
    10    5   20 1   
    11    6    7 1   
    12    6   21 1   
    13    6   22 1   
    14    7    8 1   
    15    7   23 1   
    16    7   24 1   
    17    8    9 1   
    18    8   25 1   
    19    8   26 1   
    20    9   10 1   
    21    9   12 1   
    22    9   27 1   
    23   10   11 1   
    24   10   16 1   
    25   10   28 1   
    26   11   29 1   
    27   11   30 1   
    28   11   31 1   
    29   12   32 1   
    30   12   35 1   
    31   13   14 2   
    32   13   15 2   
    33   16   33 1   
    34   16   34 1   
@<TRIPOS>SUBSTRUCTURE
     1 DSD         1 TEMP              0 ****  ****    0 ROOT
