@<TRIPOS>MOLECULE
DSD
   34    33     1     0     0
SMALL
bcc


@<TRIPOS>ATOM
      1 C1          0.2570    0.3840   -5.3650 c         1 DSD      0.906600
      2 O1          0.4140    1.6400   -5.3660 o         1 DSD     -0.862800
      3 O2         -0.1860   -0.2580   -6.3640 o         1 DSD     -0.862800
      4 C2          0.6610   -0.4180   -4.1200 c3        1 DSD     -0.186400
      5 C3          0.0970    0.1570   -2.8420 c3        1 DSD     -0.065400
      6 C4          0.7380   -0.4780   -1.6250 c3        1 DSD     -0.078400
      7 C5          0.1430    0.0080   -0.3180 c3        1 DSD     -0.081400
      8 C6          0.9780   -0.4660    0.8540 c3        1 DSD     -0.094400
      9 C7          0.4260   -0.0150    2.2200 c3        1 DSD      0.079700
     10 C8          1.6270   -0.0840    3.2480 c3        1 DSD      0.153500
     11 C9          1.1250   -0.2330    4.6820 c3        1 DSD     -0.088100
     12 N7         -0.7210   -0.7680    2.6490 n         1 DSD     -0.601900
     13 C          -1.8290   -0.0770    3.2750 c         1 DSD      0.990600
     14 O          -1.6350    1.0650    3.7940 o         1 DSD     -0.853300
     15 OXT        -2.9350   -0.6990    3.2960 o         1 DSD     -0.853300
     16 N8          2.5400    1.0490    3.1290 n3        1 DSD     -0.913800
     17 H21         1.7810   -0.4170   -4.0710 hc        1 DSD      0.015700
     18 H22         0.3280   -1.4800   -4.2430 hc        1 DSD      0.015700
     19 H31        -1.0120   -0.0050   -2.8110 hc        1 DSD      0.043200
     20 H32         0.2710    1.2660   -2.8340 hc        1 DSD      0.043200
     21 H41         1.8390   -0.2570   -1.6370 hc        1 DSD      0.018700
     22 H42         0.6300   -1.5940   -1.6860 hc        1 DSD      0.018700
     23 H51        -0.9090   -0.3650   -0.2160 hc        1 DSD      0.044700
     24 H52         0.0960    1.1290   -0.3180 hc        1 DSD      0.044700
     25 H61         2.0210   -0.0750    0.7220 hc        1 DSD      0.024200
     26 H62         1.0550   -1.5860    0.8260 hc        1 DSD      0.024200
     27 H7          0.1290    1.0780    2.1470 h1        1 DSD      0.050700
     28 H8          2.2360   -1.0020    2.9930 h1        1 DSD      0.025700
     29 H91         1.9530   -0.0770    5.4170 hc        1 DSD      0.040700
     30 H92         0.3040    0.5030    4.8800 hc        1 DSD      0.040700
     31 H93         0.7180   -1.2610    4.8280 hc        1 DSD      0.040700
     32 HN7        -1.0020   -1.4820    2.0170 hn        1 DSD      0.255500
     33 HN81        2.6880    1.2620    2.1600 hn        1 DSD      0.331800
     34 HN82        2.1220    1.8570    3.5540 hn        1 DSD      0.331800
@<TRIPOS>BOND
     1    1    2 1   
     2    1    3 1   
     3    1    4 1   
     4    4    5 1   
     5    4   17 1   
     6    4   18 1   
     7    5    6 1   
     8    5   19 1   
     9    5   20 1   
    10    6    7 1   
    11    6   21 1   
    12    6   22 1   
    13    7    8 1   
    14    7   23 1   
    15    7   24 1   
    16    8    9 1   
    17    8   25 1   
    18    8   26 1   
    19    9   10 1   
    20    9   12 1   
    21    9   27 1   
    22   10   11 1   
    23   10   16 1   
    24   10   28 1   
    25   11   29 1   
    26   11   30 1   
    27   11   31 1   
    28   12   13 1   
    29   12   32 1   
    30   13   14 1   
    31   13   15 1   
    32   16   33 1   
    33   16   34 1   
@<TRIPOS>SUBSTRUCTURE
     1 DSD         1 TEMP              0 ****  ****    0 ROOT
