@<TRIPOS>MOLECULE
DSE
   16    15     1     0     0
SMALL
bcc


@<TRIPOS>ATOM
      1 N          -1.1830    0.0990    0.1070 n3        1 DSE     -0.800200
      2 CA          0.2380    0.0990    0.1070 c3        1 DSE     -0.012500
      3 C           0.7420    0.0990    1.5320 c         1 DSE      0.889600
      4 O           1.4990    1.0230    1.9330 o         1 DSE     -0.842800
      5 OXT         0.4060   -0.8240    2.3190 o         1 DSE     -0.842800
      6 CB          0.7420   -1.1350   -0.6060 c3        1 DSE      0.168400
      7 CN         -1.6580    1.2440   -0.5980 c3        1 DSE      0.153100
      8 OG          2.1250   -1.2840   -0.3680 oh        1 DSE     -0.655800
      9 H          -1.4870    0.1240    0.9660 hn        1 DSE      0.354800
     10 HA          0.5640    0.8960   -0.3530 h1        1 DSE      0.050700
     11 HB2         0.5850   -1.0440   -1.5650 h1        1 DSE      0.018200
     12 HB3         0.2680   -1.9200   -0.2720 h1        1 DSE      0.018200
     13 HN1        -2.6340    1.2430   -0.5990 h1        1 DSE      0.017367
     14 HN2        -1.3320    1.2180   -1.5180 h1        1 DSE      0.017367
     15 HN3        -1.3340    2.0540   -0.1610 h1        1 DSE      0.017367
     16 HG          2.4570   -1.8910   -0.9240 ho        1 DSE      0.447000
@<TRIPOS>BOND
     1    1    2 1   
     2    1    7 1   
     3    1    9 1   
     4    2    3 1   
     5    2    6 1   
     6    2   10 1   
     7    3    4 1   
     8    3    5 1   
     9    6    8 1   
    10    6   11 1   
    11    6   12 1   
    12    7   13 1   
    13    7   14 1   
    14    7   15 1   
    15    8   16 1   
@<TRIPOS>SUBSTRUCTURE
     1 DSE         1 TEMP              0 ****  ****    0 ROOT
