@<TRIPOS>MOLECULE
DSE
   16    15     1     0     0
SMALL
bcc


@<TRIPOS>ATOM
      1 N           1.0310    0.3450    1.3830 n3        1 DSE     -0.800200
      2 CA          0.6100   -0.1470    0.0730 c3        1 DSE     -0.012500
      3 C          -0.9210   -0.0290   -0.2120 c         1 DSE      0.889600
      4 O          -1.3330   -0.5060   -1.3110 o         1 DSE     -0.842800
      5 OXT        -1.6640    0.5240    0.6450 o         1 DSE     -0.842800
      6 CB          1.3630    0.5810   -1.0560 c3        1 DSE      0.168400
      7 CN          0.6930   -0.5650    2.4510 c3        1 DSE      0.153100
      8 OG          1.2960   -0.1390   -2.2700 oh        1 DSE     -0.655800
      9 H           0.5460    1.2160    1.5430 hn        1 DSE      0.354800
     10 HA          0.8710   -1.2420   -0.0000 h1        1 DSE      0.050700
     11 HB2         0.9320    1.6070   -1.2040 h1        1 DSE      0.018200
     12 HB3         2.4610    0.6680   -0.8350 h1        1 DSE      0.018200
     13 HN1         0.9900   -0.0980    3.4270 h1        1 DSE      0.017367
     14 HN2        -0.4020   -0.8190    2.4930 h1        1 DSE      0.017367
     15 HN3         1.2720   -1.5170    2.3210 h1        1 DSE      0.017367
     16 HG          0.3690   -0.4130   -2.3910 ho        1 DSE      0.447000
@<TRIPOS>BOND
     1    1    2 1   
     2    1    7 1   
     3    1    9 1   
     4    2    3 1   
     5    2    6 1   
     6    2   10 1   
     7    3    4 1   
     8    3    5 1   
     9    6    8 1   
    10    6   11 1   
    11    6   12 1   
    12    7   13 1   
    13    7   14 1   
    14    7   15 1   
    15    8   16 1   
@<TRIPOS>SUBSTRUCTURE
     1 DSE         1 TEMP              0 ****  ****    0 ROOT
