@<TRIPOS>MOLECULE
DSF
   12    11     1     0     0
SMALL
bcc


@<TRIPOS>ATOM
      1 FAA        -1.5300    1.8830    0.2360 f         1 DSF     -0.241800
      2 FAB         0.2580    1.8830    1.5000 f         1 DSF     -0.241800
      3 FAC        -1.2260   -0.5040    0.6790 f         1 DSF     -0.198300
      4 FAD         1.6030   -1.5870   -1.0500 f         1 DSF     -0.218967
      5 FAE        -0.4880   -1.5950   -1.6880 f         1 DSF     -0.218967
      6 FAF         0.1310   -2.7790    0.0430 f         1 DSF     -0.218967
      7 OAG         0.2800    0.7350   -0.4270 os        1 DSF     -0.472600
      8 CAH        -0.1890    1.8830    0.2360 c3        1 DSF      0.595700
      9 CAI         0.0510   -0.4610    0.2750 c3        1 DSF      0.348400
     10 CAJ         0.3320   -1.6390   -0.6310 c3        1 DSF      0.613900
     11 HAH         0.1370    2.6800   -0.2240 h3        1 DSF      0.144700
     12 HAI         0.6400   -0.5010    1.0520 h2        1 DSF      0.108700
@<TRIPOS>BOND
     1    1    8 1   
     2    2    8 1   
     3    3    9 1   
     4    4   10 1   
     5    5   10 1   
     6    6   10 1   
     7    7    8 1   
     8    7    9 1   
     9    8   11 1   
    10    9   10 1   
    11    9   12 1   
@<TRIPOS>SUBSTRUCTURE
     1 DSF         1 TEMP              0 ****  ****    0 ROOT
