@<TRIPOS>MOLECULE
DSF
   12    11     1     0     0
SMALL
bcc


@<TRIPOS>ATOM
      1 FAA        -2.7030   -0.5470    0.2490 f         1 DSF     -0.241800
      2 FAB        -2.0370    1.5020    0.4610 f         1 DSF     -0.241800
      3 FAC         0.0070   -1.7270    0.2680 f         1 DSF     -0.198300
      4 FAD         1.5430    1.5540   -0.0430 f         1 DSF     -0.218967
      5 FAE         2.0360   -0.2570   -1.1580 f         1 DSF     -0.218967
      6 FAF         2.4110   -0.1570    0.9890 f         1 DSF     -0.218967
      7 OAG        -0.7690    0.0760   -0.7210 os        1 DSF     -0.472600
      8 CAH        -2.0920    0.4670   -0.4260 c3        1 DSF      0.595700
      9 CAI         0.0520   -0.3650    0.3420 c3        1 DSF      0.348400
     10 CAJ         1.5100    0.1890    0.0190 c3        1 DSF      0.613900
     11 HAH        -2.5700    0.7260   -1.4160 h3        1 DSF      0.144700
     12 HAI        -0.2730    0.0150    1.3490 h2        1 DSF      0.108700
@<TRIPOS>BOND
     1    1    8 1   
     2    2    8 1   
     3    3    9 1   
     4    4   10 1   
     5    5   10 1   
     6    6   10 1   
     7    7    8 1   
     8    7    9 1   
     9    8   11 1   
    10    9   10 1   
    11    9   12 1   
@<TRIPOS>SUBSTRUCTURE
     1 DSF         1 TEMP              0 ****  ****    0 ROOT
