@<TRIPOS>MOLECULE
DSF
   12    11     1     0     0
SMALL
bcc


@<TRIPOS>ATOM
      1 FAA         0.2790    0.1030    0.6500 f         1 DSF     -0.241800
      2 FAB         2.3980   -0.1690    0.9990 f         1 DSF     -0.241800
      3 FAC        -0.1790   -2.6070   -0.4370 f         1 DSF     -0.198300
      4 FAD         3.3970   -3.2360   -0.6370 f         1 DSF     -0.218967
      5 FAE         1.8870   -3.6430   -2.1600 f         1 DSF     -0.218967
      6 FAF         1.8650   -4.7430   -0.2760 f         1 DSF     -0.218967
      7 OAG         1.4600   -1.1810   -0.7730 os        1 DSF     -0.472600
      8 CAH         1.4750   -0.0050    0.0070 c3        1 DSF      0.595700
      9 CAI         1.1370   -2.4020   -0.1380 c3        1 DSF      0.348400
     10 CAJ         2.0680   -3.5010   -0.8160 c3        1 DSF      0.613900
     11 HAH         1.7030    0.8400   -0.7060 h3        1 DSF      0.144700
     12 HAI         1.3220   -2.3950    0.9720 h2        1 DSF      0.108700
@<TRIPOS>BOND
     1    1    8 1   
     2    2    8 1   
     3    3    9 1   
     4    4   10 1   
     5    5   10 1   
     6    6   10 1   
     7    7    8 1   
     8    7    9 1   
     9    8   11 1   
    10    9   10 1   
    11    9   12 1   
@<TRIPOS>SUBSTRUCTURE
     1 DSF         1 TEMP              0 ****  ****    0 ROOT
