@<TRIPOS>MOLECULE
DSG
   16    15     1     0     0
SMALL
bcc


@<TRIPOS>ATOM
      1 N          -2.0300    0.5890    0.5530 n3        1 DSG     -0.905800
      2 CA         -0.6090    0.5790    0.4910 c3        1 DSG      0.005500
      3 C          -0.0430    0.5890    1.8920 c         1 DSG      0.893600
      4 O           0.7370    1.5110    2.2500 o         1 DSG     -0.834800
      5 CB         -0.1460   -0.6650   -0.2310 c3        1 DSG     -0.131400
      6 CG          1.2480   -0.4430   -0.7750 c         1 DSG      0.655100
      7 OD1         2.0740    0.1490   -0.1080 o         1 DSG     -0.671100
      8 ND2         1.5900   -0.9190   -2.0670 n         1 DSG     -0.652000
      9 OXT        -0.3510   -0.3240    2.7020 o         1 DSG     -0.834800
     10 H          -2.3070    1.2600    1.1130 hn        1 DSG      0.338300
     11 H2         -2.3720    0.7310   -0.2850 hn        1 DSG      0.338300
     12 HA         -0.2990    1.3700    0.0080 h1        1 DSG      0.040700
     13 HB2        -0.1360   -1.4190    0.3920 hc        1 DSG      0.085200
     14 HB3        -0.7570   -0.8610   -0.9700 hc        1 DSG      0.085200
     15 HD21        2.4320   -0.7820   -2.3970 hn        1 DSG      0.294000
     16 HD22        0.9690   -1.3640   -2.5690 hn        1 DSG      0.294000
@<TRIPOS>BOND
     1    1    2 1   
     2    1   10 1   
     3    1   11 1   
     4    2    3 1   
     5    2    5 1   
     6    2   12 1   
     7    3    4 1   
     8    3    9 1   
     9    5    6 1   
    10    5   13 1   
    11    5   14 1   
    12    6    7 2   
    13    6    8 1   
    14    8   15 1   
    15    8   16 1   
@<TRIPOS>SUBSTRUCTURE
     1 DSG         1 TEMP              0 ****  ****    0 ROOT
