@<TRIPOS>MOLECULE
DSG
   16    15     1     0     0
SMALL
bcc


@<TRIPOS>ATOM
      1 N           1.1050    0.2170    0.1740 n3        1 DSG     -0.886800
      2 CA          1.6260    1.1380   -0.8320 c3        1 DSG      0.022500
      3 C           0.5620    2.1870   -1.2960 c         1 DSG      0.881600
      4 O          -0.2720    2.6000   -0.4450 o         1 DSG     -0.838300
      5 CB          2.8710    1.8770   -0.3220 c3        1 DSG     -0.130400
      6 CG          3.8980    2.1340   -1.4050 c         1 DSG      0.656100
      7 OD1         5.1150    1.8830   -1.2140 o         1 DSG     -0.693100
      8 ND2         3.4970    2.6990   -2.5830 n         1 DSG     -0.669000
      9 OXT         0.5820    2.5510   -2.5080 o         1 DSG     -0.838300
     10 H           0.2700   -0.1990   -0.2010 hn        1 DSG      0.333800
     11 H2          0.8210    0.7560    0.9740 hn        1 DSG      0.333800
     12 HA          1.9100    0.5140   -1.7270 h1        1 DSG      0.048700
     13 HB2         3.3890    1.2900    0.4820 hc        1 DSG      0.066200
     14 HB3         2.5590    2.8620    0.1160 hc        1 DSG      0.066200
     15 HD21        4.1540    2.8040   -3.3130 hn        1 DSG      0.324000
     16 HD22        2.5220    2.8050   -2.7860 hn        1 DSG      0.324000
@<TRIPOS>BOND
     1    1    2 1   
     2    1   10 1   
     3    1   11 1   
     4    2    3 1   
     5    2    5 1   
     6    2   12 1   
     7    3    4 1   
     8    3    9 1   
     9    5    6 1   
    10    5   13 1   
    11    5   14 1   
    12    6    7 2   
    13    6    8 1   
    14    8   15 1   
    15    8   16 1   
@<TRIPOS>SUBSTRUCTURE
     1 DSG         1 TEMP              0 ****  ****    0 ROOT
