@<TRIPOS>MOLECULE
DSH
   43    38     1     0     0
SMALL
bcc


@<TRIPOS>ATOM
      1 N          -3.2810    5.7630   -4.5070 n3        1 DSH     -0.349000
      2 N1          1.4220   -4.6370    4.9370 n1        1 DSH     -0.269000
      3 C2          1.5910   -3.3010    5.1630 c1        1 DSH      0.028000
      4 N3          1.4520   -2.4130    4.1380 n1        1 DSH     -0.205000
      5 C4          1.1440   -2.8570    2.8860 c1        1 DSH     -0.081000
      6 C5          0.9780   -4.1760    2.6620 c1        1 DSH     -0.081000
      7 C6          1.1190   -5.0780    3.7050 c1        1 DSH      0.244000
      8 N6          1.0610   -6.4880    3.8540 n3        1 DSH     -0.358000
      9 N7          0.6810   -4.3430    1.3460 n1        1 DSH     -0.153000
     10 C8          0.6660   -3.1240    0.7620 c1        1 DSH     -0.064000
     11 N9          0.9520   -2.2030    1.7090 n1        1 DSH     -0.153000
     12 CA         -2.7100    4.4590   -4.5830 c3        1 DSH     -0.073000
     13 CB         -2.9450    3.7300   -3.2780 c3        1 DSH     -0.155000
     14 SD         -1.6850    2.1800   -1.4810 ss        1 DSH      0.066000
     15 CG         -2.0060    2.5470   -3.1860 c3        1 DSH     -0.270000
     16 C1'         0.9070   -0.8250    1.5450 c2        1 DSH      0.116000
     17 C2'         2.0170   -0.3990    0.9610 c3        1 DSH      0.017000
     18 O2'         2.9890    0.0440    1.9750 oh        1 DSH     -0.291000
     19 C3'         1.5740    0.7960    0.0860 c3        1 DSH     -0.029000
     20 O3'         1.9840    1.9380    0.6230 oh        1 DSH     -0.316000
     21 C4'        -0.0080    0.7400    0.0550 c3        1 DSH     -0.009000
     22 O4'        -0.3170   -0.4170    0.5490 os        1 DSH     -0.259000
     23 C5'        -0.5120    0.8550   -1.3730 c3        1 DSH     -0.307000
     24 HN         -4.0160    5.8060   -5.0520 hn        1 DSH      0.148000
     25 HNA        -2.6640    6.3820   -4.7780 hn        1 DSH      0.148000
     26 H2          1.8110   -2.9820    6.0580 ha        1 DSH      0.191000
     27 HN6         0.8360   -7.0140    3.1410 hn        1 DSH      0.244500
     28 HN6A        1.2480   -6.8700    4.6630 hn        1 DSH      0.244500
     29 H8          0.4920   -2.9420   -0.1810 DU        1 DSH      0.192000
     30 HA         -1.7480    4.5330   -4.7470 h1        1 DSH      0.064500
     31 HB         -3.8700    3.4150   -3.2430 hc        1 DSH      0.104000
     32 HG         -1.1650    2.7620   -3.6370 h1        1 DSH      0.099000
     33 HGA        -2.4170    1.7700   -3.6150 h1        1 DSH      0.099000
     34 H1'         0.7940   -0.3860    2.4140 h4        1 DSH      0.176000
     35 H2'         2.4010   -1.1050    0.4050 h1        1 DSH      0.139000
     36 HO2'        3.8130   -0.0570    1.6590 ho        1 DSH      0.226000
     37 H3'         1.9320    0.7010   -0.8200 h1        1 DSH      0.095000
     38 HO3'        2.4710    2.3880    0.0290 ho        1 DSH      0.225000
     39 H4'        -0.3830    1.4550    0.6070 h1        1 DSH      0.134000
     40 H5'         0.2410    1.0360   -1.9710 h1        1 DSH      0.127000
     41 H5'A       -0.9420    0.0160   -1.6350 h1        1 DSH      0.127000
     42 HAA        -3.1290    3.9610   -5.3150 h1        1 DSH      0.064500
     43 HBA        -2.7780    4.3380   -2.5300 hc        1 DSH      0.104000
@<TRIPOS>BOND
     1    1   12 1   
     2    1   24 1   
     3    1   25 1   
     4    2    7 1   
     5    3    4 1   
     6    3   26 1   
     7    5    6 1   
     8    7    8 1   
     9    8   27 1   
    10    8   28 1   
    11    9   10 1   
    12   10   11 1   
    13   12   13 1   
    14   12   30 1   
    15   12   42 1   
    16   13   15 1   
    17   13   31 1   
    18   13   43 1   
    19   14   15 1   
    20   14   23 1   
    21   15   32 1   
    22   15   33 1   
    23   16   17 1   
    24   16   22 1   
    25   16   34 1   
    26   17   18 1   
    27   17   19 1   
    28   17   35 1   
    29   18   36 1   
    30   19   20 1   
    31   19   21 1   
    32   19   37 1   
    33   20   38 1   
    34   21   22 1   
    35   21   23 1   
    36   21   39 1   
    37   23   40 1   
    38   23   41 1   
@<TRIPOS>SUBSTRUCTURE
     1 DSH         1 TEMP              0 ****  ****    0 ROOT
