@<TRIPOS>MOLECULE
DSH
   43    45     1     0     0
SMALL
bcc


@<TRIPOS>ATOM
      1 N           7.5840   -2.4690    0.3170 n3        1 DSH     -0.915800
      2 N1         -4.9970   -1.2990    1.0730 nb        1 DSH     -0.795000
      3 C2         -4.8070    0.0270    0.8450 ca        1 DSH      0.690900
      4 N3         -3.7370    0.6820    0.3360 nb        1 DSH     -0.760000
      5 C4         -2.7120   -0.1650    0.0130 ca        1 DSH      0.449800
      6 C5         -2.7620   -1.6100    0.1970 ca        1 DSH     -0.228200
      7 C6         -3.9660   -2.1550    0.7580 ca        1 DSH      0.764200
      8 N6         -4.0700   -3.5000    0.9930 nh        1 DSH     -0.956500
      9 N7         -1.5620   -2.1910   -0.2420 nc        1 DSH     -0.549100
     10 C8         -0.8130   -1.1670   -0.6740 cd        1 DSH      0.422700
     11 N9         -1.4470    0.0930   -0.5350 na        1 DSH     -0.293000
     12 CA          6.3520   -1.9660    0.8750 c3        1 DSH      0.162800
     13 CB          5.5330   -1.1420   -0.1190 c3        1 DSH     -0.075400
     14 SD          3.3650    0.2620   -0.6730 ss        1 DSH     -0.281200
     15 CG          4.3060   -0.5890    0.5600 c3        1 DSH     -0.014300
     16 C1'        -0.9810    1.3870   -0.9820 c3        1 DSH      0.221800
     17 C2'        -1.0270    2.4910    0.1260 c3        1 DSH      0.082100
     18 O2'        -1.7100    3.6170   -0.3790 oh        1 DSH     -0.591800
     19 C3'         0.4480    2.8810    0.3710 c3        1 DSH      0.130100
     20 O3'         0.7340    4.2270    0.0920 oh        1 DSH     -0.571800
     21 C4'         1.2750    1.9270   -0.5250 c3        1 DSH      0.108100
     22 O4'         0.3670    1.3000   -1.4460 os        1 DSH     -0.398600
     23 C5'         2.0180    0.8870    0.2890 c3        1 DSH     -0.040300
     24 HN          8.0290   -3.0910    0.9610 hn        1 DSH      0.351300
     25 HNA         7.4210   -2.9470   -0.5470 hn        1 DSH      0.351300
     26 HN6        -4.9210   -3.8910    1.3130 hn        1 DSH      0.449300
     27 HN6A       -3.3460   -4.0950    0.6740 hn        1 DSH      0.449300
     28 H8          0.1960   -1.2370   -1.1070 h5        1 DSH      0.093800
     29 HA          5.6880   -2.7900    1.2750 h1        1 DSH      0.024700
     30 HB          6.1570   -0.3010   -0.5230 hc        1 DSH      0.063700
     31 HG          3.6980   -1.4110    1.0110 h1        1 DSH      0.060200
     32 HGA         4.5940    0.1100    1.3830 h1        1 DSH      0.060200
     33 H1'        -1.5910    1.6990   -1.8840 h2        1 DSH      0.104700
     34 H2'        -1.5010    2.1290    1.0750 h1        1 DSH      0.084700
     35 HO2'       -2.6550    3.4360   -0.2830 ho        1 DSH      0.434000
     36 H3'         0.7130    2.7560    1.4570 h1        1 DSH      0.093700
     37 HO3'        0.2990    4.4650   -0.7380 ho        1 DSH      0.425000
     38 H4'         1.9880    2.5080   -1.1780 h1        1 DSH      0.111700
     39 H5'         1.3290    0.0560    0.5760 h1        1 DSH      0.070700
     40 H5'A        2.4130    1.3510    1.2270 h1        1 DSH      0.070700
     41 HAA         6.6250   -1.3100    1.7510 h1        1 DSH      0.024700
     42 HBA         5.2290   -1.7840   -0.9880 hc        1 DSH      0.063700
     43 H2         -5.6720    0.6700    1.1200 h5        1 DSH      0.052100
@<TRIPOS>BOND
     1    1   12 1   
     2    1   24 1   
     3    1   25 1   
     4    2    3 ar  
     5    2    7 ar  
     6    3    4 ar  
     7    3   43 1   
     8    4    5 ar  
     9    5    6 ar  
    10    5   11 1   
    11    6    7 ar  
    12    6    9 1   
    13    7    8 1   
    14    8   26 1   
    15    8   27 1   
    16    9   10 2   
    17   10   11 1   
    18   10   28 1   
    19   11   16 1   
    20   12   13 1   
    21   12   29 1   
    22   12   41 1   
    23   13   15 1   
    24   13   30 1   
    25   13   42 1   
    26   14   15 1   
    27   14   23 1   
    28   15   31 1   
    29   15   32 1   
    30   16   17 1   
    31   16   22 1   
    32   16   33 1   
    33   17   18 1   
    34   17   19 1   
    35   17   34 1   
    36   18   35 1   
    37   19   20 1   
    38   19   21 1   
    39   19   36 1   
    40   20   37 1   
    41   21   22 1   
    42   21   23 1   
    43   21   38 1   
    44   23   39 1   
    45   23   40 1   
@<TRIPOS>SUBSTRUCTURE
     1 DSH         1 TEMP              0 ****  ****    0 ROOT
