@<TRIPOS>MOLECULE
DSH
   45    47     1     0     0
SMALL
bcc


@<TRIPOS>ATOM
      1 N           1.8420    2.1440   -0.5000 n4        1 DSH     -0.838600
      2 N1         11.0700   -4.3910    7.7010 nb        1 DSH     -0.669000
      3 C2         10.7690   -3.0760    7.4970 ca        1 DSH      0.679900
      4 N3          9.6050   -2.5310    7.0530 nb        1 DSH     -0.642000
      5 C4          8.6360   -3.4410    6.7880 ca        1 DSH      0.450800
      6 C5          8.8290   -4.9010    6.9580 ca        1 DSH     -0.132200
      7 C6         10.0950   -5.2930    7.4310 ca        1 DSH      0.529200
      8 N6         10.3560   -6.7290    7.6460 n4        1 DSH     -0.817300
      9 N7          7.6590   -5.5820    6.6120 nc        1 DSH     -0.579100
     10 C8          6.7880   -4.6170    6.2580 cd        1 DSH      0.520700
     11 N9          7.3190   -3.3090    6.3240 na        1 DSH     -0.274000
     12 CA          2.9530    1.3180    0.0600 c3        1 DSH      0.100800
     13 CB          2.4680    0.3160    1.1030 c3        1 DSH     -0.095400
     14 SD          2.9540   -1.7040    2.6960 ss        1 DSH     -0.225200
     15 CG          3.6400   -0.4910    1.6070 c3        1 DSH     -0.048300
     16 C1'         6.5850   -2.0560    6.2050 c3        1 DSH      0.224800
     17 C2'         7.2570   -1.0000    5.2670 c3        1 DSH      0.087100
     18 O2'         7.3130    0.2220    5.9690 oh        1 DSH     -0.586800
     19 C3'         6.2700   -0.8340    4.0890 c3        1 DSH      0.120100
     20 O3'         6.0340    0.5020    3.7250 oh        1 DSH     -0.590800
     21 C4'         4.9730   -1.5340    4.5450 c3        1 DSH      0.103100
     22 O4'         5.2840   -2.3460    5.6970 os        1 DSH     -0.410600
     23 C5'         4.3440   -2.4280    3.4940 c3        1 DSH     -0.039300
     24 HN          1.3810    2.6720    0.2490 hn        1 DSH      0.465800
     25 HNA         1.1440    1.5410   -0.9490 hn        1 DSH      0.465800
     26 HN6         9.7710   -7.0530    8.4280 hn        1 DSH      0.482467
     27 HN6A       10.0950   -7.2420    6.7950 hn        1 DSH      0.482467
     28 HA          3.7060    2.0210    0.5210 hx        1 DSH      0.116200
     29 HB          1.9840    0.8520    1.9650 hc        1 DSH      0.084200
     30 HG          4.1760   -0.9860    0.7590 h1        1 DSH      0.086700
     31 HGA         4.3790    0.1550    2.1470 h1        1 DSH      0.086700
     32 H1'         6.4460   -1.6310    7.2470 h2        1 DSH      0.122700
     33 H2'         8.2660   -1.3170    4.9020 h1        1 DSH      0.088700
     34 HO2'        8.2160    0.3370    6.2960 ho        1 DSH      0.444000
     35 H3'         6.6930   -1.3140    3.1630 h1        1 DSH      0.093700
     36 HO3'        5.9580    1.0370    4.5300 ho        1 DSH      0.441000
     37 H4'         4.2230   -0.7710    4.9050 h1        1 DSH      0.100700
     38 H5'         5.1050   -2.7720    2.7530 h1        1 DSH      0.098200
     39 H5'A        3.9150   -3.3400    3.9940 h1        1 DSH      0.098200
     40 HAA         3.4430    0.7760   -0.8000 hx        1 DSH      0.116200
     41 HBA         1.7030   -0.3760    0.6540 hc        1 DSH      0.084200
     42 H2         11.5920   -2.3590    7.7310 h5        1 DSH      0.105100
     43 HN3         2.2100    2.8030   -1.1950 hn        1 DSH      0.465800
     44 H63        11.3480   -6.8990    7.8660 hn        1 DSH      0.482467
     45 H8          5.7430   -4.7860    5.9400 h5        1 DSH      0.118800
@<TRIPOS>BOND
     1    1   12 1   
     2    1   24 1   
     3    1   25 1   
     4    1   43 1   
     5    2    3 ar  
     6    2    7 ar  
     7    3    4 ar  
     8    3   42 1   
     9    4    5 ar  
    10    5    6 ar  
    11    5   11 1   
    12    6    7 ar  
    13    6    9 1   
    14    7    8 1   
    15    8   26 1   
    16    8   27 1   
    17    8   44 1   
    18    9   10 2   
    19   10   11 1   
    20   10   45 1   
    21   11   16 1   
    22   12   13 1   
    23   12   28 1   
    24   12   40 1   
    25   13   15 1   
    26   13   29 1   
    27   13   41 1   
    28   14   15 1   
    29   14   23 1   
    30   15   30 1   
    31   15   31 1   
    32   16   17 1   
    33   16   22 1   
    34   16   32 1   
    35   17   18 1   
    36   17   19 1   
    37   17   33 1   
    38   18   34 1   
    39   19   20 1   
    40   19   21 1   
    41   19   35 1   
    42   20   36 1   
    43   21   22 1   
    44   21   23 1   
    45   21   37 1   
    46   23   38 1   
    47   23   39 1   
@<TRIPOS>SUBSTRUCTURE
     1 DSH         1 TEMP              0 ****  ****    0 ROOT
