@<TRIPOS>MOLECULE
DSH
   44    46     1     0     0
SMALL
bcc


@<TRIPOS>ATOM
      1 N           0.3620   -0.6300    0.1900 n4        1 DSH     -0.838600
      2 N1          9.4000   -5.7470    7.1010 nb        1 DSH     -0.785000
      3 C2          9.9860   -4.5250    7.1760 ca        1 DSH      0.698900
      4 N3          9.4780   -3.2950    6.9140 nb        1 DSH     -0.760000
      5 C4          8.1700   -3.3420    6.5200 ca        1 DSH      0.459800
      6 C5          7.4030   -4.5770    6.3910 ca        1 DSH     -0.234200
      7 C6          8.0840   -5.8040    6.6970 ca        1 DSH      0.765200
      8 N6          7.4430   -7.0050    6.5560 nh        1 DSH     -0.948500
      9 N7          6.0910   -4.2870    5.9890 nc        1 DSH     -0.544100
     10 C8          6.0450   -2.9520    5.8760 cd        1 DSH      0.403700
     11 N9          7.2810   -2.3170    6.1610 na        1 DSH     -0.299000
     12 CA          1.8130   -0.9360    0.3740 c3        1 DSH      0.098800
     13 CB          2.4040   -0.2360    1.5930 c3        1 DSH     -0.096400
     14 SD          4.4610    0.2850    3.1270 ss        1 DSH     -0.255200
     15 CG          3.8650   -0.5920    1.7150 c3        1 DSH     -0.036300
     16 C1'         7.5280   -0.8970    6.2640 c3        1 DSH      0.227800
     17 C2'         8.8240   -0.4180    5.5310 c3        1 DSH      0.085100
     18 O2'         9.4980    0.4900    6.3740 oh        1 DSH     -0.592800
     19 C3'         8.3200    0.3540    4.2900 c3        1 DSH      0.132100
     20 O3'         8.8510    1.6450    4.1570 oh        1 DSH     -0.573800
     21 C4'         6.7780    0.3900    4.4270 c3        1 DSH      0.107100
     22 O4'         6.4310   -0.1680    5.7010 os        1 DSH     -0.403600
     23 C5'         6.0950   -0.3770    3.3100 c3        1 DSH     -0.030300
     24 HN         -0.1680   -0.9320    1.0140 hn        1 DSH      0.463133
     25 HNA         0.0020   -1.1170   -0.6370 hn        1 DSH      0.463133
     26 HN6         7.8830   -7.8430    6.8510 hn        1 DSH      0.449800
     27 HN6A        6.4670   -7.0030    6.3930 hn        1 DSH      0.449800
     28 HA          1.9170   -2.0550    0.4810 hx        1 DSH      0.114700
     29 HB          1.8630   -0.5520    2.5270 hc        1 DSH      0.084700
     30 HG          4.0000   -1.6940    1.8480 h1        1 DSH      0.075200
     31 HGA         4.4280   -0.2910    0.7970 h1        1 DSH      0.075200
     32 H1'         7.5520   -0.6000    7.3580 h2        1 DSH      0.114700
     33 H2'         9.4920   -1.2630    5.2230 h1        1 DSH      0.097700
     34 HO2'       10.1480   -0.0180    6.8800 ho        1 DSH      0.439000
     35 H3'         8.6330   -0.1790    3.3490 h1        1 DSH      0.090700
     36 HO3'        8.8800    2.0600    5.0320 ho        1 DSH      0.434000
     37 H4'         6.4090    1.4560    4.4630 h1        1 DSH      0.106700
     38 H5'         6.0520   -1.4660    3.5550 h1        1 DSH      0.079700
     39 H5'A        6.6600   -0.2490    2.3540 h1        1 DSH      0.079700
     40 HAA         2.3540   -0.6090   -0.5610 hx        1 DSH      0.114700
     41 HBA         2.2990    0.8790    1.4940 hc        1 DSH      0.084700
     42 H2         11.0480   -4.5400    7.5080 h5        1 DSH      0.060100
     43 HN3         0.2290    0.3800    0.0690 hn        1 DSH      0.463133
     44 H8          5.1650   -2.3550    5.6090 h5        1 DSH      0.078800
@<TRIPOS>BOND
     1    1   12 1   
     2    1   24 1   
     3    1   25 1   
     4    1   43 1   
     5    2    3 ar  
     6    2    7 ar  
     7    3    4 ar  
     8    3   42 1   
     9    4    5 ar  
    10    5    6 ar  
    11    5   11 1   
    12    6    7 ar  
    13    6    9 1   
    14    7    8 1   
    15    8   26 1   
    16    8   27 1   
    17    9   10 2   
    18   10   11 1   
    19   10   44 1   
    20   11   16 1   
    21   12   13 1   
    22   12   28 1   
    23   12   40 1   
    24   13   15 1   
    25   13   29 1   
    26   13   41 1   
    27   14   15 1   
    28   14   23 1   
    29   15   30 1   
    30   15   31 1   
    31   16   17 1   
    32   16   22 1   
    33   16   32 1   
    34   17   18 1   
    35   17   19 1   
    36   17   33 1   
    37   18   34 1   
    38   19   20 1   
    39   19   21 1   
    40   19   35 1   
    41   20   36 1   
    42   21   22 1   
    43   21   23 1   
    44   21   37 1   
    45   23   38 1   
    46   23   39 1   
@<TRIPOS>SUBSTRUCTURE
     1 DSH         1 TEMP              0 ****  ****    0 ROOT
