@<TRIPOS>MOLECULE
DSH
   44    46     1     0     0
SMALL
bcc


@<TRIPOS>ATOM
      1 N           0.4230   -0.7320    0.1310 nz        1 DSH     -0.838600
      2 N1          9.4300   -5.7430    7.0440 nb        1 DSH     -0.785000
      3 C2          9.9840   -4.5110    7.1730 ca        1 DSH      0.698900
      4 N3          9.4530   -3.2860    6.9380 nb        1 DSH     -0.760000
      5 C4          8.1580   -3.3500    6.5090 ca        1 DSH      0.459800
      6 C5          7.4240   -4.5970    6.3210 ca        1 DSH     -0.234200
      7 C6          8.1270   -5.8180    6.6040 ca        1 DSH      0.765200
      8 N6          7.5190   -7.0290    6.4080 nv        1 DSH     -0.948500
      9 N7          6.1160   -4.3250    5.8940 nc        1 DSH     -0.545100
     10 C8          6.0410   -2.9900    5.8240 cd        1 DSH      0.403700
     11 N9          7.2530   -2.3350    6.1600 na        1 DSH     -0.299000
     12 CA          1.8860   -0.9720    0.3190 c3        1 DSH      0.098800
     13 CB          2.4300   -0.2900    1.5690 c3        1 DSH     -0.096400
     14 SD          4.4480    0.2840    3.1380 ss        1 DSH     -0.255200
     15 CG          3.9060   -0.5770    1.6950 c3        1 DSH     -0.036300
     16 C1'         7.4630   -0.9130    6.3150 c3        1 DSH      0.227800
     17 C2'         8.7650   -0.3800    5.6310 c3        1 DSH      0.085100
     18 O2'         9.3960    0.5140    6.5200 oh        1 DSH     -0.592800
     19 C3'         8.2740    0.4190    4.4020 c3        1 DSH      0.132100
     20 O3'         8.7750    1.7270    4.3270 oh        1 DSH     -0.572800
     21 C4'         6.7280    0.4130    4.4990 c3        1 DSH      0.107100
     22 O4'         6.3630   -0.1930    5.7460 os        1 DSH     -0.403600
     23 C5'         6.0950   -0.3370    3.3410 c3        1 DSH     -0.031300
     24 HN          0.2410    0.2740    0.0460 hn        1 DSH      0.463467
     25 HNA         0.0950   -1.2050   -0.7170 hn        1 DSH      0.463467
     26 HN6         7.9710   -7.8650    6.6870 hn        1 DSH      0.449300
     27 HN6A        6.5470   -7.0440    6.2210 hn        1 DSH      0.449300
     28 HA          2.0450   -2.0880    0.3870 hx        1 DSH      0.114700
     29 HB          2.2710    0.8220    1.5100 hc        1 DSH      0.084700
     30 HG          4.4600   -0.2210    0.7910 h1        1 DSH      0.075200
     31 HGA         4.0940   -1.6750    1.7940 h1        1 DSH      0.075200
     32 H1'         7.4510   -0.6510    7.4170 h2        1 DSH      0.114700
     33 H2'         9.4600   -1.2000    5.3140 h1        1 DSH      0.097700
     34 HO2'       10.0450    0.0070    7.0250 ho        1 DSH      0.439000
     35 H3'         8.6260   -0.0740    3.4540 h1        1 DSH      0.090700
     36 HO3'        8.7700    2.1140    5.2150 ho        1 DSH      0.434000
     37 H4'         6.3300    1.4660    4.5570 h1        1 DSH      0.106700
     38 H5'         6.6800   -0.1620    2.4050 h1        1 DSH      0.079700
     39 H5'A        6.0780   -1.4340    3.5510 h1        1 DSH      0.079700
     40 HAA         2.4180   -0.5840   -0.5970 hx        1 DSH      0.114700
     41 HBA         1.8980   -0.6660    2.4860 hc        1 DSH      0.084700
     42 H2         11.0380   -4.5120    7.5320 h5        1 DSH      0.060100
     43 HN3        -0.0980   -1.0900    0.9390 hn        1 DSH      0.463467
     44 H8          5.1530   -2.4050    5.5530 h5        1 DSH      0.078800
@<TRIPOS>BOND
     1    1   12 1   
     2    1   24 1   
     3    1   25 1   
     4    1   43 1   
     5    2    3 ar  
     6    2    7 ar  
     7    3    4 ar  
     8    3   42 1   
     9    4    5 ar  
    10    5    6 ar  
    11    5   11 1   
    12    6    7 ar  
    13    6    9 1   
    14    7    8 1   
    15    8   26 1   
    16    8   27 1   
    17    9   10 2   
    18   10   11 1   
    19   10   44 1   
    20   11   16 1   
    21   12   13 1   
    22   12   28 1   
    23   12   40 1   
    24   13   15 1   
    25   13   29 1   
    26   13   41 1   
    27   14   15 1   
    28   14   23 1   
    29   15   30 1   
    30   15   31 1   
    31   16   17 1   
    32   16   22 1   
    33   16   32 1   
    34   17   18 1   
    35   17   19 1   
    36   17   33 1   
    37   18   34 1   
    38   19   20 1   
    39   19   21 1   
    40   19   35 1   
    41   20   36 1   
    42   21   22 1   
    43   21   23 1   
    44   21   37 1   
    45   23   38 1   
    46   23   39 1   
@<TRIPOS>SUBSTRUCTURE
     1 DSH         1 TEMP              0 ****  ****    0 ROOT
