@<TRIPOS>MOLECULE
DSI
   48    52     1     0     0
SMALL
bcc


@<TRIPOS>ATOM
      1 C20         0.2290   -0.6210   -5.6570 ca        1 DSI     -0.112800
      2 C21        -0.5710    0.5470   -5.3610 ca        1 DSI     -0.033200
      3 C22        -1.3920    1.1280   -6.3420 ca        1 DSI     -0.149000
      4 C23        -1.4100    0.5380   -7.5960 ca        1 DSI     -0.100000
      5 C25         0.1760   -1.1870   -6.9340 ca        1 DSI     -0.071000
      6 C24        -0.6400   -0.6030   -7.8890 ca        1 DSI     -0.160000
      7 C18         0.5800    0.0000   -3.4890 cc        1 DSI     -0.142300
      8 C19         0.9550   -0.9390   -4.4500 cd        1 DSI     -0.103200
      9 N17        -0.3830    0.8810   -4.0170 na        1 DSI     -0.176400
     10 C16         1.1180    0.0840   -2.1100 c         1 DSI      0.693300
     11 O16         2.3350   -0.0800   -1.9040 o         1 DSI     -0.572100
     12 C6          2.0400    0.4990    2.2270 ca        1 DSI      0.127100
     13 C7          1.8810    0.5400    0.8450 ca        1 DSI     -0.184000
     14 O6          3.2530    0.6750    2.8530 oh        1 DSI     -0.505100
     15 C8          0.5960    0.3480    0.2990 ca        1 DSI      0.051600
     16 N12         0.2350    0.4080   -1.0770 n         1 DSI     -0.360000
     17 C11        -1.2120    0.1820   -1.1850 c3        1 DSI      0.079000
     18 C10        -1.7620   -0.0470    0.2580 c3        1 DSI     -0.016400
     19 C13        -2.4270   -1.3930    0.3990 c3        1 DSI     -0.090100
     20 C9         -0.5380    0.1060    1.1090 ca        1 DSI     -0.110300
     21 C5          0.9200    0.2700    3.0600 ca        1 DSI     -0.059200
     22 C4         -0.3980    0.0690    2.4900 ca        1 DSI     -0.051800
     23 C3         -1.2900   -0.1360    3.6000 cc        1 DSI     -0.110200
     24 C2         -0.5170   -0.0570    4.7680 cd        1 DSI     -0.111300
     25 N1          0.8230    0.1910    4.4440 na        1 DSI     -0.141400
     26 C14        -1.0190   -0.2070    6.1310 c         1 DSI      0.662300
     27 O15        -0.0610   -0.0880    7.1060 os        1 DSI     -0.446900
     28 O14        -2.1820   -0.4230    6.4810 o         1 DSI     -0.528000
     29 C15        -0.5080   -0.2290    8.4550 c3        1 DSI      0.129700
     30 H22        -1.9970    2.0170   -6.1210 ha        1 DSI      0.136000
     31 H23        -2.0420    0.9710   -8.3860 ha        1 DSI      0.132000
     32 H25         0.7750   -2.0790   -7.1660 ha        1 DSI      0.138000
     33 H24        -0.6920   -1.0330   -8.9000 ha        1 DSI      0.133000
     34 H19         1.6630   -1.7530   -4.3160 ha        1 DSI      0.171000
     35 H17        -0.6120    1.7540   -3.6170 hn        1 DSI      0.300700
     36 H6          3.9280    0.7820    2.1660 ho        1 DSI      0.431000
     37 H111       -1.6850    1.1020   -1.6230 h1        1 DSI      0.057700
     38 H112       -1.4340   -0.6970   -1.8450 h1        1 DSI      0.057700
     39 H10        -2.5020    0.7630    0.5010 hc        1 DSI      0.070700
     40 H131       -3.3140   -1.4570   -0.2760 hc        1 DSI      0.044033
     41 H132       -1.7200   -2.2170    0.1380 hc        1 DSI      0.044033
     42 H133       -2.7660   -1.5410    1.4540 hc        1 DSI      0.044033
     43 H3         -2.3610   -0.3200    3.5520 ha        1 DSI      0.174000
     44 H1          1.5660    0.2830    5.0880 hn        1 DSI      0.325700
     45 H151        0.4260   -0.0970    9.0550 h1        1 DSI      0.053700
     46 H152       -1.2620    0.5590    8.6900 h1        1 DSI      0.053700
     47 H153       -0.9530   -1.2430    8.6040 h1        1 DSI      0.053700
     48 H7          2.7480    0.7050    0.1850 ha        1 DSI      0.173000
@<TRIPOS>BOND
     1    1    2 ar  
     2    1    5 ar  
     3    1    8 1   
     4    2    3 ar  
     5    2    9 1   
     6    3    4 ar  
     7    3   30 1   
     8    4    6 ar  
     9    4   31 1   
    10    5    6 ar  
    11    5   32 1   
    12    6   33 1   
    13    7    8 2   
    14    7    9 1   
    15    7   10 1   
    16    8   34 1   
    17    9   35 1   
    18   10   11 2   
    19   10   16 1   
    20   12   13 ar  
    21   12   14 1   
    22   12   21 ar  
    23   13   15 ar  
    24   13   48 1   
    25   14   36 1   
    26   15   16 1   
    27   15   20 ar  
    28   16   17 1   
    29   17   18 1   
    30   17   37 1   
    31   17   38 1   
    32   18   19 1   
    33   18   20 1   
    34   18   39 1   
    35   19   40 1   
    36   19   41 1   
    37   19   42 1   
    38   20   22 ar  
    39   21   22 ar  
    40   21   25 1   
    41   22   23 1   
    42   23   24 2   
    43   23   43 1   
    44   24   25 1   
    45   24   26 1   
    46   25   44 1   
    47   26   27 1   
    48   26   28 2   
    49   27   29 1   
    50   29   45 1   
    51   29   46 1   
    52   29   47 1   
@<TRIPOS>SUBSTRUCTURE
     1 DSI         1 TEMP              0 ****  ****    0 ROOT
