@<TRIPOS>MOLECULE
DSI
   48    52     1     0     0
SMALL
bcc


@<TRIPOS>ATOM
      1 C20        -0.0400   -0.5020    0.0960 ca        1 DSI     -0.112800
      2 C21         1.0240    0.4770    0.0930 ca        1 DSI     -0.033200
      3 C22         1.4950    1.0370    1.2930 ca        1 DSI     -0.149000
      4 C23         0.9080    0.6130    2.4730 ca        1 DSI     -0.100000
      5 C25        -0.6000   -0.9050    1.3110 ca        1 DSI     -0.071000
      6 C24        -0.1240   -0.3450    2.4850 ca        1 DSI     -0.160000
      7 C18         0.6110   -0.1070   -2.0560 cc        1 DSI     -0.142300
      8 C19        -0.2850   -0.8470   -1.2840 cd        1 DSI     -0.103200
      9 N17         1.4450    0.6680   -1.2260 na        1 DSI     -0.176400
     10 C16         0.6800   -0.1100   -3.5360 c         1 DSI      0.693300
     11 O16        -0.3670   -0.1020   -4.2100 o         1 DSI     -0.572100
     12 C6          1.6210   -0.0930   -7.8890 ca        1 DSI      0.127100
     13 C7          1.2330    0.0930   -6.5660 ca        1 DSI     -0.184000
     14 O6          0.8060    0.1950   -8.9620 oh        1 DSI     -0.505100
     15 C8          2.1400   -0.2330   -5.5360 ca        1 DSI      0.052600
     16 N12         1.9400   -0.0610   -4.1370 n         1 DSI     -0.360000
     17 C11         3.1570   -0.4990   -3.4410 c3        1 DSI      0.079000
     18 C10         4.1690   -0.9900   -4.5230 c3        1 DSI     -0.016400
     19 C13         4.5590   -2.4320   -4.3160 c3        1 DSI     -0.090100
     20 C9          3.4290   -0.7510   -5.8030 ca        1 DSI     -0.110300
     21 C5          2.9070   -0.5990   -8.1840 ca        1 DSI     -0.059200
     22 C4          3.8330   -0.9350   -7.1190 ca        1 DSI     -0.051800
     23 C3          5.0290   -1.4160   -7.7610 cc        1 DSI     -0.110200
     24 C2          4.8030   -1.3590   -9.1440 cd        1 DSI     -0.111300
     25 N1          3.5190   -0.8630   -9.4040 na        1 DSI     -0.141400
     26 C14         5.7560   -1.7540  -10.1770 c         1 DSI      0.662300
     27 O15         5.2960   -1.6050  -11.4610 os        1 DSI     -0.446900
     28 O14         6.8960   -2.1950  -10.0140 o         1 DSI     -0.528000
     29 C15         6.1970   -1.9810  -12.5050 c3        1 DSI      0.129700
     30 H22         2.3000    1.7840    1.2920 ha        1 DSI      0.136000
     31 H23         1.2530    1.0340    3.4300 ha        1 DSI      0.132000
     32 H25        -1.4050   -1.6540    1.3240 ha        1 DSI      0.138000
     33 H24        -0.5550   -0.6490    3.4500 ha        1 DSI      0.133000
     34 H19        -1.0300   -1.5480   -1.6540 ha        1 DSI      0.171000
     35 H17         1.9780    1.4370   -1.5420 hn        1 DSI      0.300700
     36 H6         -0.0480    0.4930   -8.6130 ho        1 DSI      0.431000
     37 H111        2.9280   -1.3150   -2.7040 h1        1 DSI      0.057700
     38 H112        3.5920    0.3800   -2.8940 h1        1 DSI      0.057700
     39 H10         5.0880   -0.3450   -4.4850 hc        1 DSI      0.070700
     40 H131        3.6600   -3.0940   -4.3230 hc        1 DSI      0.044033
     41 H132        5.2450   -2.7610   -5.1340 hc        1 DSI      0.044033
     42 H133        5.0820   -2.5530   -3.3370 hc        1 DSI      0.044033
     43 H3          5.9380   -1.7600   -7.2740 ha        1 DSI      0.174000
     44 H1          3.1190   -0.7330  -10.2980 hn        1 DSI      0.325700
     45 H151        6.4580   -3.0630  -12.4110 h1        1 DSI      0.053700
     46 H152        5.6160   -1.7770  -13.4380 h1        1 DSI      0.053700
     47 H153        7.1220   -1.3580  -12.4510 h1        1 DSI      0.053700
     48 H7          0.2290    0.4740   -6.3230 ha        1 DSI      0.173000
@<TRIPOS>BOND
     1    1    2 ar  
     2    1    5 ar  
     3    1    8 1   
     4    2    3 ar  
     5    2    9 1   
     6    3    4 ar  
     7    3   30 1   
     8    4    6 ar  
     9    4   31 1   
    10    5    6 ar  
    11    5   32 1   
    12    6   33 1   
    13    7    8 2   
    14    7    9 1   
    15    7   10 1   
    16    8   34 1   
    17    9   35 1   
    18   10   11 2   
    19   10   16 1   
    20   12   13 ar  
    21   12   14 1   
    22   12   21 ar  
    23   13   15 ar  
    24   13   48 1   
    25   14   36 1   
    26   15   16 1   
    27   15   20 ar  
    28   16   17 1   
    29   17   18 1   
    30   17   37 1   
    31   17   38 1   
    32   18   19 1   
    33   18   20 1   
    34   18   39 1   
    35   19   40 1   
    36   19   41 1   
    37   19   42 1   
    38   20   22 ar  
    39   21   22 ar  
    40   21   25 1   
    41   22   23 1   
    42   23   24 2   
    43   23   43 1   
    44   24   25 1   
    45   24   26 1   
    46   25   44 1   
    47   26   27 1   
    48   26   28 2   
    49   27   29 1   
    50   29   45 1   
    51   29   46 1   
    52   29   47 1   
@<TRIPOS>SUBSTRUCTURE
     1 DSI         1 TEMP              0 ****  ****    0 ROOT
