@<TRIPOS>MOLECULE
DSI
   48    36     1     0     0
SMALL
bcc


@<TRIPOS>ATOM
      1 C20        -2.1820    0.3940    5.3260 c1        1 DSI     -0.044500
      2 C21        -0.8260    0.1590    5.2710 c1        1 DSI     -0.044500
      3 C22        -0.0880   -0.0460    6.4700 c1        1 DSI     -0.110000
      4 C23        -0.7230   -0.0090    7.6870 c1        1 DSI     -0.130000
      5 C25        -2.8370    0.4320    6.5860 c1        1 DSI     -0.110000
      6 C24        -2.1030    0.2300    7.7550 c1        1 DSI     -0.130000
      7 C18        -1.5160    0.4460    3.1920 c1        1 DSI     -0.080500
      8 C19        -2.6220    0.5730    4.0530 c1        1 DSI     -0.118500
      9 N17        -0.4310    0.1940    3.9430 n1        1 DSI     -0.181500
     10 C16        -1.8560    0.3890    1.6960 c1        1 DSI      0.368000
     11 O16        -3.0180    0.4500    1.3340 o         1 DSI     -0.333000
     12 C6         -1.9630    0.2850   -2.9990 c1        1 DSI      0.082000
     13 C7         -2.0920    0.3530   -1.6200 c1        1 DSI     -0.184000
     14 O6         -3.1160    0.0510   -3.6740 oh        1 DSI     -0.259000
     15 C8         -0.9640    0.2750   -0.8130 c1        1 DSI      0.059000
     16 N12        -0.7850    0.3570    0.7050 n2        1 DSI     -0.263000
     17 C11         0.6150    0.2930    0.9910 c3        1 DSI     -0.037000
     18 C10         1.3330    0.1700   -0.2770 c3        1 DSI     -0.063000
     19 C13         2.1540   -1.1320   -0.2830 c3        1 DSI     -0.208000
     20 C9          0.3100    0.1280   -1.3920 c2        1 DSI     -0.103000
     21 C5         -0.6650    0.1350   -3.5910 c1        1 DSI     -0.014000
     22 C4          0.4450    0.0580   -2.7930 c1        1 DSI     -0.040000
     23 C3          1.5220   -0.1810   -3.5910 c1        1 DSI     -0.118500
     24 C2          1.0780   -0.2530   -4.8890 c1        1 DSI     -0.080500
     25 N1         -0.2700   -0.0580   -4.8840 n1        1 DSI     -0.181500
     26 C14         2.2230   -0.5330   -5.7980 c1        1 DSI      0.364000
     27 O15         2.6710    0.4890   -6.7400 os        1 DSI     -0.285000
     28 O14         2.7610   -1.6200   -5.7790 o         1 DSI     -0.339000
     29 C15         3.7160    0.0450   -7.6610 c3        1 DSI     -0.060000
     30 H22         0.9040   -0.2180    6.4260 ha        1 DSI      0.137000
     31 H23        -0.2060   -0.1520    8.5150 ha        1 DSI      0.132500
     32 H25        -3.7830    0.5970    6.6340 ha        1 DSI      0.137000
     33 H24        -2.5340    0.2550    8.5930 ha        1 DSI      0.132500
     34 H19        -3.5470    0.7610    3.7820 DU        1 DSI      0.218000
     35 H17         0.4460    0.0660    3.6250 DU        1 DSI      0.218000
     36 H7         -2.9830    0.5680   -1.2110 ha        1 DSI      0.173000
     37 H6         -3.1890   -0.7980   -3.8330 ho        1 DSI      0.230000
     38 H111        0.9020    1.1350    1.4680 h1        1 DSI      0.097000
     39 H112        0.8070   -0.4980    1.5620 h1        1 DSI      0.097000
     40 H10         1.9480    0.9660   -0.4030 hc        1 DSI      0.110000
     41 H131        1.5470   -1.9010   -0.3710 hc        1 DSI      0.083333
     42 H132        2.7980   -1.1210   -1.0620 hc        1 DSI      0.083333
     43 H133        2.6620   -1.2080    0.5680 hc        1 DSI      0.083333
     44 H3          2.4280   -0.2820   -3.2980 DU        1 DSI      0.218000
     45 H1         -0.8030   -0.0560   -5.6010 DU        1 DSI      0.218000
     46 H151        4.5170   -0.1900   -7.1580 h1        1 DSI      0.093000
     47 H152        3.3920   -0.7670   -8.1800 h1        1 DSI      0.093000
     48 H153        3.9220    0.7660   -8.2820 h1        1 DSI      0.093000
@<TRIPOS>BOND
     1    1    5 1   
     2    2    3 1   
     3    3   30 1   
     4    4    6 1   
     5    4   31 1   
     6    5   32 1   
     7    6   33 1   
     8    7    8 1   
     9    7    9 1   
    10   10   11 1   
    11   10   16 1   
    12   12   14 1   
    13   12   21 1   
    14   13   15 1   
    15   13   36 1   
    16   14   37 1   
    17   15   20 1   
    18   16   17 1   
    19   17   18 1   
    20   17   38 1   
    21   17   39 1   
    22   18   19 1   
    23   18   20 1   
    24   18   40 1   
    25   19   41 1   
    26   19   42 1   
    27   19   43 1   
    28   20   22 1   
    29   23   24 1   
    30   24   25 1   
    31   26   27 1   
    32   26   28 1   
    33   27   29 1   
    34   29   46 1   
    35   29   47 1   
    36   29   48 1   
@<TRIPOS>SUBSTRUCTURE
     1 DSI         1 TEMP              0 ****  ****    0 ROOT
