@<TRIPOS>MOLECULE
DSI
   48    52     1     0     0
SMALL
bcc


@<TRIPOS>ATOM
      1 C20        -0.0240   -0.5190    0.1060 ca        1 DSI     -0.112800
      2 C21         1.0180    0.4850    0.0880 ca        1 DSI     -0.033200
      3 C22         1.4810    1.0660    1.2820 ca        1 DSI     -0.149000
      4 C23         0.9080    0.6390    2.4680 ca        1 DSI     -0.100000
      5 C25        -0.5690   -0.9240    1.3260 ca        1 DSI     -0.071000
      6 C24        -0.1010   -0.3430    2.4930 ca        1 DSI     -0.160000
      7 C18         0.6090   -0.1280   -2.0530 cc        1 DSI     -0.142300
      8 C19        -0.2660   -0.8820   -1.2700 cd        1 DSI     -0.103200
      9 N17         1.4280    0.6740   -1.2340 na        1 DSI     -0.176400
     10 C16         0.6720   -0.1430   -3.5340 c         1 DSI      0.693300
     11 O16        -0.3780   -0.1640   -4.2020 o         1 DSI     -0.572100
     12 C6          1.5940   -0.1450   -7.8900 ca        1 DSI      0.127100
     13 C7          1.2080    0.0450   -6.5670 ca        1 DSI     -0.184000
     14 O6          0.7690    0.1150   -8.9620 oh        1 DSI     -0.505100
     15 C8          2.1260   -0.2510   -5.5380 ca        1 DSI      0.051600
     16 N12         1.9280   -0.0710   -4.1400 n         1 DSI     -0.360000
     17 C11         3.1570   -0.4750   -3.4450 c3        1 DSI      0.079000
     18 C10         4.1760   -0.9530   -4.5270 c3        1 DSI     -0.016400
     19 C13         4.5980   -2.3840   -4.3080 c3        1 DSI     -0.090100
     20 C9          3.4250   -0.7430   -5.8060 ca        1 DSI     -0.110300
     21 C5          2.8910   -0.6250   -8.1860 ca        1 DSI     -0.059200
     22 C4          3.8280   -0.9300   -7.1220 ca        1 DSI     -0.051800
     23 C3          5.0310   -1.3900   -7.7640 cc        1 DSI     -0.110200
     24 C2          4.7990   -1.3520   -9.1470 cd        1 DSI     -0.111300
     25 N1          3.5030   -0.8870   -9.4060 na        1 DSI     -0.141400
     26 C14         5.7560   -1.7360  -10.1800 c         1 DSI      0.662300
     27 O15         5.2880   -1.6090  -11.4630 os        1 DSI     -0.446900
     28 O14         6.9070   -2.1490  -10.0180 o         1 DSI     -0.528000
     29 C15         6.1930   -1.9750  -12.5080 c3        1 DSI      0.129700
     30 H22         2.2680    1.8310    1.2710 ha        1 DSI      0.136000
     31 H23         1.2480    1.0770    3.4200 ha        1 DSI      0.132000
     32 H25        -1.3570   -1.6910    1.3500 ha        1 DSI      0.138000
     33 H24        -0.5210   -0.6480    3.4630 ha        1 DSI      0.133000
     34 H19        -0.9960   -1.6030   -1.6310 ha        1 DSI      0.171000
     35 H17         1.9410    1.4520   -1.5580 hn        1 DSI      0.300700
     36 H6         -0.0900    0.3960   -8.6130 ho        1 DSI      0.431000
     37 H111        3.5740    0.4180   -2.9080 h1        1 DSI      0.057700
     38 H112        2.9490   -1.2890   -2.7000 h1        1 DSI      0.057700
     39 H10         5.0800   -0.2870   -4.4990 hc        1 DSI      0.070700
     40 H131        3.7140   -3.0660   -4.3050 hc        1 DSI      0.044033
     41 H132        5.1280   -2.4840   -3.3300 hc        1 DSI      0.044033
     42 H133        5.2890   -2.7060   -5.1260 hc        1 DSI      0.044033
     43 H3          5.9500   -1.7100   -7.2780 ha        1 DSI      0.174000
     44 H1          3.0970   -0.7750  -10.2990 hn        1 DSI      0.325700
     45 H151        5.6040   -1.7930  -13.4400 h1        1 DSI      0.053700
     46 H152        6.4770   -3.0500  -12.4040 h1        1 DSI      0.053700
     47 H153        7.1040   -1.3310  -12.4640 h1        1 DSI      0.053700
     48 H7          0.1960    0.4060   -6.3240 ha        1 DSI      0.173000
@<TRIPOS>BOND
     1    1    2 ar  
     2    1    5 ar  
     3    1    8 1   
     4    2    3 ar  
     5    2    9 1   
     6    3    4 ar  
     7    3   30 1   
     8    4    6 ar  
     9    4   31 1   
    10    5    6 ar  
    11    5   32 1   
    12    6   33 1   
    13    7    8 2   
    14    7    9 1   
    15    7   10 1   
    16    8   34 1   
    17    9   35 1   
    18   10   11 2   
    19   10   16 1   
    20   12   13 ar  
    21   12   14 1   
    22   12   21 ar  
    23   13   15 ar  
    24   13   48 1   
    25   14   36 1   
    26   15   16 1   
    27   15   20 ar  
    28   16   17 1   
    29   17   18 1   
    30   17   37 1   
    31   17   38 1   
    32   18   19 1   
    33   18   20 1   
    34   18   39 1   
    35   19   40 1   
    36   19   41 1   
    37   19   42 1   
    38   20   22 ar  
    39   21   22 ar  
    40   21   25 1   
    41   22   23 1   
    42   23   24 2   
    43   23   43 1   
    44   24   25 1   
    45   24   26 1   
    46   25   44 1   
    47   26   27 1   
    48   26   28 2   
    49   27   29 1   
    50   29   45 1   
    51   29   46 1   
    52   29   47 1   
@<TRIPOS>SUBSTRUCTURE
     1 DSI         1 TEMP              0 ****  ****    0 ROOT
