@<TRIPOS>MOLECULE
DSI
   48    52     1     0     0
SMALL
bcc


@<TRIPOS>ATOM
      1 C20        -0.0400   -0.5090    0.0960 ca        1 DSI     -0.112800
      2 C21         1.0210    0.4740    0.0920 ca        1 DSI     -0.033200
      3 C22         1.4900    1.0360    1.2920 ca        1 DSI     -0.149000
      4 C23         0.9040    0.6100    2.4730 ca        1 DSI     -0.100000
      5 C25        -0.5980   -0.9140    1.3110 ca        1 DSI     -0.071000
      6 C24        -0.1240   -0.3520    2.4850 ca        1 DSI     -0.160000
      7 C18         0.6090   -0.1120   -2.0560 cc        1 DSI     -0.142300
      8 C19        -0.2840   -0.8560   -1.2840 cd        1 DSI     -0.103200
      9 N17         1.4400    0.6670   -1.2270 na        1 DSI     -0.176400
     10 C16         0.6780   -0.1150   -3.5370 c         1 DSI      0.693300
     11 O16        -0.3690   -0.1110   -4.2100 o         1 DSI     -0.572100
     12 C6          1.6190   -0.0970   -7.8900 ca        1 DSI      0.127100
     13 C7          1.2310    0.0880   -6.5660 ca        1 DSI     -0.184000
     14 O6          0.8040    0.1880   -8.9620 oh        1 DSI     -0.505100
     15 C8          2.1380   -0.2340   -5.5370 ca        1 DSI      0.051600
     16 N12         1.9380   -0.0620   -4.1370 n         1 DSI     -0.360000
     17 C11         3.1560   -0.4960   -3.4410 c3        1 DSI      0.079000
     18 C10         4.1700   -0.9840   -4.5230 c3        1 DSI     -0.016400
     19 C13         4.5640   -2.4250   -4.3150 c3        1 DSI     -0.090100
     20 C9          3.4290   -0.7480   -5.8030 ca        1 DSI     -0.110300
     21 C5          2.9070   -0.5990   -8.1840 ca        1 DSI     -0.059200
     22 C4          3.8340   -0.9320   -7.1190 ca        1 DSI     -0.051800
     23 C3          5.0300   -1.4090   -7.7600 cc        1 DSI     -0.110200
     24 C2          4.8050   -1.3540   -9.1430 cd        1 DSI     -0.111300
     25 N1          3.5190   -0.8620   -9.4040 na        1 DSI     -0.141400
     26 C14         5.7590   -1.7480  -10.1760 c         1 DSI      0.662300
     27 O15         5.2990   -1.6010  -11.4610 os        1 DSI     -0.446900
     28 O14         6.9010   -2.1840  -10.0130 o         1 DSI     -0.528000
     29 C15         6.2000   -1.9750  -12.5040 c3        1 DSI      0.129700
     30 H22         2.2920    1.7860    1.2910 ha        1 DSI      0.136000
     31 H23         1.2480    1.0330    3.4290 ha        1 DSI      0.132000
     32 H25        -1.4010   -1.6660    1.3250 ha        1 DSI      0.138000
     33 H24        -0.5540   -0.6580    3.4500 ha        1 DSI      0.133000
     34 H19        -1.0260   -1.5590   -1.6530 ha        1 DSI      0.171000
     35 H17         1.9700    1.4370   -1.5430 hn        1 DSI      0.300700
     36 H6         -0.0510    0.4830   -8.6140 ho        1 DSI      0.431000
     37 H111        3.5880    0.3850   -2.8950 h1        1 DSI      0.057700
     38 H112        2.9290   -1.3120   -2.7040 h1        1 DSI      0.057700
     39 H10         5.0870   -0.3360   -4.4850 hc        1 DSI      0.070700
     40 H131        5.2520   -2.7530   -5.1330 hc        1 DSI      0.044033
     41 H132        5.0880   -2.5440   -3.3360 hc        1 DSI      0.044033
     42 H133        3.6670   -3.0900   -4.3220 hc        1 DSI      0.044033
     43 H3          5.9410   -1.7500   -7.2730 ha        1 DSI      0.174000
     44 H1          3.1190   -0.7340  -10.2980 hn        1 DSI      0.325700
     45 H151        5.6190   -1.7740  -13.4370 h1        1 DSI      0.053700
     46 H152        7.1230   -1.3490  -12.4510 h1        1 DSI      0.053700
     47 H153        6.4640   -3.0560  -12.4090 h1        1 DSI      0.053700
     48 H7          0.2250    0.4670   -6.3240 ha        1 DSI      0.173000
@<TRIPOS>BOND
     1    1    2 ar  
     2    1    5 ar  
     3    1    8 1   
     4    2    3 ar  
     5    2    9 1   
     6    3    4 ar  
     7    3   30 1   
     8    4    6 ar  
     9    4   31 1   
    10    5    6 ar  
    11    5   32 1   
    12    6   33 1   
    13    7    8 2   
    14    7    9 1   
    15    7   10 1   
    16    8   34 1   
    17    9   35 1   
    18   10   11 2   
    19   10   16 1   
    20   12   13 ar  
    21   12   14 1   
    22   12   21 ar  
    23   13   15 ar  
    24   13   48 1   
    25   14   36 1   
    26   15   16 1   
    27   15   20 ar  
    28   16   17 1   
    29   17   18 1   
    30   17   37 1   
    31   17   38 1   
    32   18   19 1   
    33   18   20 1   
    34   18   39 1   
    35   19   40 1   
    36   19   41 1   
    37   19   42 1   
    38   20   22 ar  
    39   21   22 ar  
    40   21   25 1   
    41   22   23 1   
    42   23   24 2   
    43   23   43 1   
    44   24   25 1   
    45   24   26 1   
    46   25   44 1   
    47   26   27 1   
    48   26   28 2   
    49   27   29 1   
    50   29   45 1   
    51   29   46 1   
    52   29   47 1   
@<TRIPOS>SUBSTRUCTURE
     1 DSI         1 TEMP              0 ****  ****    0 ROOT
