@<TRIPOS>MOLECULE
DSK
   47    47     1     0     0
SMALL
bcc


@<TRIPOS>ATOM
      1 OAA        -5.0980   -0.6160   -5.2140 oh        1 DSK     -0.613800
      2 OAB         5.1070   -1.9420    2.0130 oh        1 DSK     -0.591800
      3 OAC        -5.0180    0.4430   -2.5960 oh        1 DSK     -0.623800
      4 OAD        -1.3610    0.1960    1.1570 oh        1 DSK     -0.631800
      5 OAE         2.6060   -0.3450    4.8690 oh        1 DSK     -0.593800
      6 OAF        -3.0000    1.8910   -2.2290 oh        1 DSK     -0.608800
      7 OAG         0.2740    0.2780   -2.0630 oh        1 DSK     -0.614800
      8 OAH        -1.7010   -1.4770   -2.0930 oh        1 DSK     -0.617800
      9 OAI         3.9070    1.7440    2.2060 oh        1 DSK     -0.602800
     10 CAJ        -3.9950    0.1160   -4.7250 c3        1 DSK      0.096400
     11 CAK         3.7100   -1.8520    2.1920 c3        1 DSK      0.144400
     12 CAL         0.9430    0.5540    0.6540 c3        1 DSK      0.018900
     13 CAM         1.2550    0.6200    3.3510 c3        1 DSK      0.002900
     14 CAN        -3.8790   -0.0860   -3.2310 c3        1 DSK      0.110100
     15 CAO        -0.3560   -0.0780    0.2090 c3        1 DSK      0.167100
     16 CAP         2.4950    0.6750    4.0050 c3        1 DSK      0.141100
     17 CAQ        -2.6440    0.6210   -2.7220 c3        1 DSK      0.111100
     18 CAR        -0.7600    0.4920   -1.1320 c3        1 DSK      0.139100
     19 CAS        -2.0190   -0.1930   -1.6110 c3        1 DSK      0.076100
     20 CAT         3.7050    0.5490    2.7800 c3        1 DSK      0.136100
     21 CAU         3.2190   -0.3650    1.8330 c3        1 DSK      0.032600
     22 SAV         1.5390   -0.2600    1.9500 s4        1 DSK     -0.182900
     23 HOAA       -5.1590   -0.5060   -6.0950 ho        1 DSK      0.426000
     24 HOAB        5.3520   -2.7970    2.0160 ho        1 DSK      0.435000
     25 HOAC       -5.6870   -0.1410   -2.6520 ho        1 DSK      0.447000
     26 HOAD       -1.7380   -0.5650    1.4170 ho        1 DSK      0.452000
     27 HOAE        2.7010   -0.0250    5.6940 ho        1 DSK      0.437000
     28 HOAF       -2.9030    2.4960   -2.8730 ho        1 DSK      0.435000
     29 HOAG        0.4370    1.0330   -2.5040 ho        1 DSK      0.447000
     30 HOAH       -2.2340   -2.0780   -1.7100 ho        1 DSK      0.426000
     31 HOAI        4.6420    2.1140    2.5440 ho        1 DSK      0.443000
     32 HAJ        -4.1240    1.0680   -4.9170 h1        1 DSK      0.049700
     33 HAJA       -3.1760   -0.1970   -5.1620 h1        1 DSK      0.049700
     34 HAK         3.4870   -2.0530    3.1240 h1        1 DSK      0.057700
     35 HAKA        3.2640   -2.4940    1.6030 h1        1 DSK      0.057700
     36 HAL         0.7830    1.4870    0.9020 h1        1 DSK      0.146700
     37 HALA        1.5900    0.5180   -0.0780 h1        1 DSK      0.146700
     38 HAM         0.9470    1.5230    3.1290 h1        1 DSK      0.149700
     39 HAMA        0.5940    0.1630    3.9120 h1        1 DSK      0.149700
     40 HAN        -3.8110   -1.0420   -3.0360 h1        1 DSK      0.052700
     41 HAO        -0.2380   -1.0450    0.1300 h1        1 DSK      0.084700
     42 HAP         2.5860    1.5280    4.4790 h1        1 DSK      0.107700
     43 HAQ        -2.0020    0.7220   -3.4520 h1        1 DSK      0.100700
     44 HAR        -0.9250    1.4510   -1.0420 h1        1 DSK      0.061700
     45 HAS        -2.6510   -0.2710   -0.8690 h1        1 DSK      0.071700
     46 HAT         4.5410    0.2170    3.1670 h1        1 DSK      0.122700
     47 HAU         3.5150   -0.1150    0.9350 h1        1 DSK      0.150700
@<TRIPOS>BOND
     1    1   10 1   
     2    1   23 1   
     3    2   11 1   
     4    2   24 1   
     5    3   14 1   
     6    3   25 1   
     7    4   15 1   
     8    4   26 1   
     9    5   16 1   
    10    5   27 1   
    11    6   17 1   
    12    6   28 1   
    13    7   18 1   
    14    7   29 1   
    15    8   19 1   
    16    8   30 1   
    17    9   20 1   
    18    9   31 1   
    19   10   14 1   
    20   10   32 1   
    21   10   33 1   
    22   11   21 1   
    23   11   34 1   
    24   11   35 1   
    25   12   15 1   
    26   12   22 1   
    27   12   36 1   
    28   12   37 1   
    29   13   16 1   
    30   13   22 1   
    31   13   38 1   
    32   13   39 1   
    33   14   17 1   
    34   14   40 1   
    35   15   18 1   
    36   15   41 1   
    37   16   20 1   
    38   16   42 1   
    39   17   19 1   
    40   17   43 1   
    41   18   19 1   
    42   18   44 1   
    43   19   45 1   
    44   20   21 1   
    45   20   46 1   
    46   21   22 1   
    47   21   47 1   
@<TRIPOS>SUBSTRUCTURE
     1 DSK         1 TEMP              0 ****  ****    0 ROOT
