@<TRIPOS>MOLECULE
DSK
   47    47     1     0     0
SMALL
bcc


@<TRIPOS>ATOM
      1 OAA         7.1120   -0.8990   -0.7380 oh        1 DSK     -0.609800
      2 OAB        -5.8870    1.7950    0.4370 oh        1 DSK     -0.591800
      3 OAC         4.6990   -1.5700    0.3240 oh        1 DSK     -0.623800
      4 OAD         0.4500   -1.0460   -0.0160 oh        1 DSK     -0.613800
      5 OAE        -4.8580   -2.1880   -0.1230 oh        1 DSK     -0.593800
      6 OAF         2.9380   -0.4590   -1.3830 oh        1 DSK     -0.618800
      7 OAG         1.0840    2.4250    0.9930 oh        1 DSK     -0.598800
      8 OAH         3.3510    1.5240    1.6680 oh        1 DSK     -0.580800
      9 OAI        -3.3100    0.2360   -2.1920 oh        1 DSK     -0.604800
     10 CAJ         5.9910   -0.1510   -1.1750 c3        1 DSK      0.095400
     11 CAK        -5.0150    0.8540    1.0370 c3        1 DSK      0.144400
     12 CAL        -1.0930    0.7910    0.1600 c3        1 DSK     -0.019100
     13 CAM        -2.5670   -1.5610    0.2620 c3        1 DSK      0.000900
     14 CAN         4.9720   -0.2220   -0.0320 c3        1 DSK      0.112100
     15 CAO         0.2380    0.1960    0.6170 c3        1 DSK      0.132100
     16 CAP        -3.7240   -1.6040   -0.7340 c3        1 DSK      0.141100
     17 CAQ         3.6290    0.3800   -0.4760 c3        1 DSK      0.119100
     18 CAR         1.3680    1.2100    0.3350 c3        1 DSK      0.087100
     19 CAS         2.7390    0.6380    0.7550 c3        1 DSK      0.079100
     20 CAT        -4.1230   -0.1500   -1.1010 c3        1 DSK      0.136100
     21 CAU        -3.8150    0.7520    0.0990 c3        1 DSK      0.034600
     22 SAV        -2.4470    0.0420    0.9830 s4        1 DSK     -0.185900
     23 HOAA        7.7530   -0.8970   -1.4590 ho        1 DSK      0.424000
     24 HOAB       -6.7010    1.7990    0.9600 ho        1 DSK      0.436000
     25 HOAC        5.5520   -2.0130    0.4360 ho        1 DSK      0.448000
     26 HOAD        0.9480   -0.8960   -0.8360 ho        1 DSK      0.448000
     27 HOAF        3.1640   -1.3780   -1.1730 ho        1 DSK      0.440000
     28 HOAG        1.3860    2.3550    1.9130 ho        1 DSK      0.431000
     29 HOAH        3.6160    2.3170    1.1810 ho        1 DSK      0.417000
     30 HOAI       -3.8570    0.7530   -2.7990 ho        1 DSK      0.444000
     31 HAJ         6.2810    0.9140   -1.3700 h1        1 DSK      0.044200
     32 HAJA        5.5570   -0.6030   -2.1070 h1        1 DSK      0.044200
     33 HAK        -4.6890    1.2260    2.0470 h1        1 DSK      0.057700
     34 HAKA       -5.5190   -0.1470    1.1400 h1        1 DSK      0.057700
     35 HAL        -1.0990    1.8870    0.4240 h1        1 DSK      0.145700
     36 HALA       -1.1750    0.7190   -0.9580 h1        1 DSK      0.145700
     37 HAM        -2.7520   -2.2880    1.0990 h1        1 DSK      0.150200
     38 HAMA       -1.6050   -1.8610   -0.2360 h1        1 DSK      0.150200
     39 HAN         5.3590    0.3300    0.8690 h1        1 DSK      0.080700
     40 HAO         0.2020   -0.0330    1.7220 h1        1 DSK      0.082700
     41 HAP        -3.4190   -2.1550   -1.6660 h1        1 DSK      0.106700
     42 HAQ         3.8080    1.3430   -1.0340 h1        1 DSK      0.079700
     43 HAR         1.3670    1.4650   -0.7640 h1        1 DSK      0.098700
     44 HAS         2.6160   -0.3260    1.3290 h1        1 DSK      0.113700
     45 HAT        -5.2200   -0.1000   -1.3450 h1        1 DSK      0.124700
     46 HAU        -3.5620    1.7840   -0.2720 h1        1 DSK      0.150700
     47 HOAE       -4.8850   -3.1200   -0.3790 ho        1 DSK      0.438000
@<TRIPOS>BOND
     1    1   10 1   
     2    1   23 1   
     3    2   11 1   
     4    2   24 1   
     5    3   14 1   
     6    3   25 1   
     7    4   15 1   
     8    4   26 1   
     9    5   16 1   
    10    5   47 1   
    11    6   17 1   
    12    6   27 1   
    13    7   18 1   
    14    7   28 1   
    15    8   19 1   
    16    8   29 1   
    17    9   20 1   
    18    9   30 1   
    19   10   14 1   
    20   10   31 1   
    21   10   32 1   
    22   11   21 1   
    23   11   33 1   
    24   11   34 1   
    25   12   15 1   
    26   12   22 1   
    27   12   35 1   
    28   12   36 1   
    29   13   16 1   
    30   13   22 1   
    31   13   37 1   
    32   13   38 1   
    33   14   17 1   
    34   14   39 1   
    35   15   18 1   
    36   15   40 1   
    37   16   20 1   
    38   16   41 1   
    39   17   19 1   
    40   17   42 1   
    41   18   19 1   
    42   18   43 1   
    43   19   44 1   
    44   20   21 1   
    45   20   45 1   
    46   21   22 1   
    47   21   46 1   
@<TRIPOS>SUBSTRUCTURE
     1 DSK         1 TEMP              0 ****  ****    0 ROOT
