@<TRIPOS>MOLECULE
DSM
   43    45     1     0     0
SMALL
bcc


@<TRIPOS>ATOM
      1 C18         0.0020    0.1770   -0.0150 c3        1 DSM      0.077100
      2 N2          1.4790    0.1030   -0.0370 n4        1 DSM     -0.760000
      3 C17         2.0640    0.0320    1.3410 c3        1 DSM      0.107800
      4 C16         3.5800   -0.0440    1.3170 c3        1 DSM     -0.166400
      5 C15         4.0910   -0.1200    2.7720 c3        1 DSM      0.247800
      6 N1          5.5150   -0.1740    2.9260 nh        1 DSM     -0.582400
      7 C14         6.2370    1.0460    2.8790 ca        1 DSM      0.133600
      8 C1          5.8830    2.0160    3.8560 ca        1 DSM     -0.138000
      9 C2          6.5150    3.2490    3.9130 ca        1 DSM     -0.118000
     10 C3          7.5320    3.5540    3.0060 ca        1 DSM     -0.124500
     11 C4          7.9040    2.6100    2.0620 ca        1 DSM     -0.118000
     12 C13         7.2770    1.3520    1.9740 ca        1 DSM     -0.102300
     13 C5          7.8530    0.4420    0.9440 c3        1 DSM     -0.031100
     14 C6          6.9700   -0.6830    0.4510 c3        1 DSM     -0.031100
     15 C12         6.8110   -1.7320    1.4910 ca        1 DSM     -0.102300
     16 C11         6.1280   -1.4340    2.6900 ca        1 DSM      0.133600
     17 C7          7.3730   -2.9990    1.3100 ca        1 DSM     -0.118000
     18 C8          7.2640   -3.9730    2.2980 ca        1 DSM     -0.124500
     19 C9          6.5950   -3.6820    3.4870 ca        1 DSM     -0.118000
     20 C10         6.0290   -2.4270    3.6880 ca        1 DSM     -0.138000
     21 H181       -0.3210    1.0950    0.5470 hx        1 DSM      0.110367
     22 H182       -0.3830    0.2270   -1.0700 hx        1 DSM      0.110367
     23 H183       -0.4130   -0.7350    0.4930 hx        1 DSM      0.110367
     24 HN2         1.7760   -0.7280   -0.5650 hn        1 DSM      0.454300
     25 H171        1.7260    0.9510    1.9030 hx        1 DSM      0.106700
     26 H172        1.6340   -0.8790    1.8490 hx        1 DSM      0.106700
     27 H161        3.9250   -0.9540    0.7580 hc        1 DSM      0.075700
     28 H162        4.0170    0.8610    0.8170 hc        1 DSM      0.075700
     29 H151        3.6540   -1.0470    3.2450 h1        1 DSM      0.059200
     30 H152        3.6990    0.7830    3.3220 h1        1 DSM      0.059200
     31 H1          5.1090    1.7850    4.6050 ha        1 DSM      0.139000
     32 H2          6.2240    3.9790    4.6830 ha        1 DSM      0.143500
     33 H3          8.0400    4.5290    3.0500 ha        1 DSM      0.146000
     34 H4          8.7210    2.8430    1.3590 ha        1 DSM      0.140500
     35 H51         8.1540    1.0580    0.0510 hc        1 DSM      0.051950
     36 H52         8.7990    0.0000    1.3680 hc        1 DSM      0.051950
     37 H61         7.4360   -1.1240   -0.4720 hc        1 DSM      0.051950
     38 H62         5.9660   -0.2790    0.1500 hc        1 DSM      0.051950
     39 H7          7.9150   -3.2240    0.3780 ha        1 DSM      0.140500
     40 H8          7.7130   -4.9660    2.1460 ha        1 DSM      0.146000
     41 H9          6.5210   -4.4450    4.2770 ha        1 DSM      0.143500
     42 H10         5.5160   -2.2080    4.6380 ha        1 DSM      0.139000
     43 H22         1.8600    0.9290   -0.5160 hn        1 DSM      0.454300
@<TRIPOS>BOND
     1    1    2 1   
     2    1   21 1   
     3    1   22 1   
     4    1   23 1   
     5    2    3 1   
     6    2   24 1   
     7    2   43 1   
     8    3    4 1   
     9    3   25 1   
    10    3   26 1   
    11    4    5 1   
    12    4   27 1   
    13    4   28 1   
    14    5    6 1   
    15    5   29 1   
    16    5   30 1   
    17    6    7 1   
    18    6   16 1   
    19    7    8 ar  
    20    7   12 ar  
    21    8    9 ar  
    22    8   31 1   
    23    9   10 ar  
    24    9   32 1   
    25   10   11 ar  
    26   10   33 1   
    27   11   12 ar  
    28   11   34 1   
    29   12   13 1   
    30   13   14 1   
    31   13   35 1   
    32   13   36 1   
    33   14   15 1   
    34   14   37 1   
    35   14   38 1   
    36   15   16 ar  
    37   15   17 ar  
    38   16   20 ar  
    39   17   18 ar  
    40   17   39 1   
    41   18   19 ar  
    42   18   40 1   
    43   19   20 ar  
    44   19   41 1   
    45   20   42 1   
@<TRIPOS>SUBSTRUCTURE
     1 DSM         1 TEMP              0 ****  ****    0 ROOT
