@<TRIPOS>MOLECULE
DSM
   43    45     1     0     0
SMALL
bcc


@<TRIPOS>ATOM
      1 C18         0.0020    0.1800   -0.0140 c3        1 DSM      0.077100
      2 N2          1.4790    0.1040   -0.0360 ny        1 DSM     -0.760000
      3 C17         2.0640    0.0310    1.3420 c3        1 DSM      0.107800
      4 C16         3.5800   -0.0460    1.3170 c3        1 DSM     -0.166400
      5 C15         4.0910   -0.1240    2.7730 c3        1 DSM      0.247800
      6 N1          5.5160   -0.1750    2.9260 nh        1 DSM     -0.582400
      7 C14         6.2360    1.0460    2.8780 ca        1 DSM      0.133600
      8 C1          5.8810    2.0160    3.8540 ca        1 DSM     -0.138000
      9 C2          6.5110    3.2490    3.9100 ca        1 DSM     -0.118000
     10 C3          7.5260    3.5550    3.0020 ca        1 DSM     -0.124500
     11 C4          7.8990    2.6110    2.0590 ca        1 DSM     -0.118000
     12 C13         7.2750    1.3520    1.9720 ca        1 DSM     -0.102300
     13 C5          7.8510    0.4430    0.9430 c3        1 DSM     -0.031100
     14 C6          6.9700   -0.6840    0.4510 c3        1 DSM     -0.031100
     15 C12         6.8130   -1.7320    1.4920 ca        1 DSM     -0.102300
     16 C11         6.1300   -1.4340    2.6910 ca        1 DSM      0.133600
     17 C7          7.3770   -2.9990    1.3120 ca        1 DSM     -0.118000
     18 C8          7.2700   -3.9720    2.3010 ca        1 DSM     -0.124500
     19 C9          6.6000   -3.6820    3.4900 ca        1 DSM     -0.118000
     20 C10         6.0330   -2.4270    3.6900 ca        1 DSM     -0.138000
     21 H181       -0.3830    0.2330   -1.0690 hx        1 DSM      0.110367
     22 H182       -0.3200    1.0970    0.5490 hx        1 DSM      0.110367
     23 H183       -0.4140   -0.7320    0.4930 hx        1 DSM      0.110367
     24 HN2         1.8600    0.9300   -0.5140 hn        1 DSM      0.454300
     25 H171        1.6330   -0.8810    1.8480 hx        1 DSM      0.106700
     26 H172        1.7270    0.9480    1.9050 hx        1 DSM      0.106700
     27 H161        3.9240   -0.9560    0.7570 hc        1 DSM      0.075700
     28 H162        4.0170    0.8590    0.8180 hc        1 DSM      0.075700
     29 H151        3.6560   -1.0520    3.2440 h1        1 DSM      0.059200
     30 H152        3.6970    0.7780    3.3240 h1        1 DSM      0.059200
     31 H1          5.1080    1.7840    4.6040 ha        1 DSM      0.139000
     32 H2          6.2200    3.9800    4.6800 ha        1 DSM      0.143500
     33 H3          8.0330    4.5310    3.0450 ha        1 DSM      0.146000
     34 H4          8.7160    2.8450    1.3550 ha        1 DSM      0.140500
     35 H51         8.7990    0.0020    1.3660 hc        1 DSM      0.051950
     36 H52         8.1510    1.0580    0.0490 hc        1 DSM      0.051950
     37 H61         7.4370   -1.1260   -0.4720 hc        1 DSM      0.051950
     38 H62         5.9650   -0.2820    0.1500 hc        1 DSM      0.051950
     39 H7          7.9190   -3.2240    0.3800 ha        1 DSM      0.140500
     40 H8          7.7210   -4.9650    2.1490 ha        1 DSM      0.146000
     41 H9          6.5280   -4.4440    4.2810 ha        1 DSM      0.143500
     42 H10         5.5200   -2.2080    4.6400 ha        1 DSM      0.139000
     43 H22         1.7740   -0.7260   -0.5660 hn        1 DSM      0.454300
@<TRIPOS>BOND
     1    1    2 1   
     2    1   21 1   
     3    1   22 1   
     4    1   23 1   
     5    2    3 1   
     6    2   24 1   
     7    2   43 1   
     8    3    4 1   
     9    3   25 1   
    10    3   26 1   
    11    4    5 1   
    12    4   27 1   
    13    4   28 1   
    14    5    6 1   
    15    5   29 1   
    16    5   30 1   
    17    6    7 1   
    18    6   16 1   
    19    7    8 ar  
    20    7   12 ar  
    21    8    9 ar  
    22    8   31 1   
    23    9   10 ar  
    24    9   32 1   
    25   10   11 ar  
    26   10   33 1   
    27   11   12 ar  
    28   11   34 1   
    29   12   13 1   
    30   13   14 1   
    31   13   35 1   
    32   13   36 1   
    33   14   15 1   
    34   14   37 1   
    35   14   38 1   
    36   15   16 ar  
    37   15   17 ar  
    38   16   20 ar  
    39   17   18 ar  
    40   17   39 1   
    41   18   19 ar  
    42   18   40 1   
    43   19   20 ar  
    44   19   41 1   
    45   20   42 1   
@<TRIPOS>SUBSTRUCTURE
     1 DSM         1 TEMP              0 ****  ****    0 ROOT
