@<TRIPOS>MOLECULE
DSM
   42    40     1     0     0
SMALL
bcc


@<TRIPOS>ATOM
      1 C18        -5.0010   -0.1930   -2.5240 c3        1 DSM     -0.123000
      2 N2         -3.5730   -0.4680   -2.5570 n3        1 DSM     -0.304000
      3 C17        -3.0630   -0.4950   -1.2160 c3        1 DSM     -0.072000
      4 C16        -1.5170   -0.3770   -1.2500 c3        1 DSM     -0.200000
      5 C15        -0.9760   -0.2470    0.1900 c3        1 DSM     -0.012000
      6 N1          0.4760    0.0380    0.1490 n3        1 DSM     -0.266000
      7 C14         0.7580    1.1770    0.9910 c2        1 DSM      0.077000
      8 C1         -0.2160    1.7470    1.8680 c1        1 DSM     -0.138000
      9 C2         -0.1740    3.1070    2.1690 c1        1 DSM     -0.132000
     10 C3          0.8230    3.9180    1.6130 c1        1 DSM     -0.132000
     11 C4          1.7890    3.3580    0.7430 c1        1 DSM     -0.119500
     12 C13         1.7470    1.9750    0.4370 c2        1 DSM     -0.095000
     13 C5          3.0440    1.1580    0.1990 c3        1 DSM     -0.118500
     14 C6          2.8040    0.0380   -0.8270 c3        1 DSM     -0.118500
     15 C12         2.3960   -1.2830   -0.1200 c2        1 DSM     -0.095000
     16 C11         1.1990   -1.1230    0.5960 c2        1 DSM      0.077000
     17 C7          3.1330   -2.4740    0.0030 c1        1 DSM     -0.119500
     18 C8          2.6740   -3.4930    0.8340 c1        1 DSM     -0.132000
     19 C9          1.4650   -3.3290    1.5560 c1        1 DSM     -0.132000
     20 C10         0.7380   -2.1560    1.4360 c1        1 DSM     -0.138000
     21 H181       -5.4380   -0.8390   -1.9640 h1        1 DSM      0.068667
     22 H182       -5.3720   -0.2470   -3.4410 h1        1 DSM      0.068667
     23 H183       -5.1500    0.6990   -2.1670 h1        1 DSM      0.068667
     24 HN2        -3.4260   -1.2720   -2.9530 hn        1 DSM      0.153000
     25 H171       -3.4440    0.2710   -0.7020 h1        1 DSM      0.067500
     26 H172       -3.3170   -1.3350   -0.7840 h1        1 DSM      0.067500
     27 H161       -1.2610    0.4200   -1.7670 hc        1 DSM      0.095000
     28 H162       -1.1340   -1.1830   -1.6730 hc        1 DSM      0.095000
     29 H151       -1.1320   -1.0910    0.6780 h1        1 DSM      0.091000
     30 H152       -1.4350    0.4800    0.6440 h1        1 DSM      0.091000
     31 H1         -0.9360    1.1640    2.2700 ha        1 DSM      0.137500
     32 H2         -0.8600    3.5060    2.7870 ha        1 DSM      0.131750
     33 H3          0.8490    4.8780    1.8260 ha        1 DSM      0.131750
     34 H4          2.4910    3.9300    0.3510 ha        1 DSM      0.129500
     35 H51         3.7630    1.7700   -0.1420 hc        1 DSM      0.091750
     36 H52         3.3320    0.7660    1.0390 hc        1 DSM      0.091750
     37 H61         3.6540   -0.1180   -1.3550 hc        1 DSM      0.091750
     38 H62         2.1010    0.3070   -1.4300 hc        1 DSM      0.091750
     39 H7          3.9700   -2.5870   -0.4970 ha        1 DSM      0.129500
     40 H8          3.1740   -4.3040    0.9160 ha        1 DSM      0.131750
     41 H9          1.1420   -4.0470    2.1410 ha        1 DSM      0.131750
     42 H10        -0.0990   -2.0460    1.9350 ha        1 DSM      0.137500
@<TRIPOS>BOND
     1    1    2 1   
     2    1   21 1   
     3    1   22 1   
     4    1   23 1   
     5    2    3 1   
     6    2   24 1   
     7    3    4 1   
     8    3   25 1   
     9    3   26 1   
    10    4    5 1   
    11    4   27 1   
    12    4   28 1   
    13    5    6 1   
    14    5   29 1   
    15    5   30 1   
    16    6    7 1   
    17    6   16 1   
    18    7    8 1   
    19    7   12 1   
    20    8   31 1   
    21    9   10 1   
    22    9   32 1   
    23   10   33 1   
    24   11   12 1   
    25   11   34 1   
    26   12   13 1   
    27   13   14 1   
    28   13   35 1   
    29   13   36 1   
    30   14   15 1   
    31   14   37 1   
    32   14   38 1   
    33   15   16 1   
    34   15   17 1   
    35   16   20 1   
    36   17   39 1   
    37   18   19 1   
    38   18   40 1   
    39   19   41 1   
    40   20   42 1   
@<TRIPOS>SUBSTRUCTURE
     1 DSM         1 TEMP              0 ****  ****    0 ROOT
