@<TRIPOS>MOLECULE
DSM
   42    44     1     0     0
SMALL
bcc


@<TRIPOS>ATOM
      1 C18         5.8150   -0.8000   -0.4190 c3        1 DSM      0.153100
      2 N2          4.4380   -0.7240   -0.8250 n3        1 DSM     -0.825200
      3 C17         3.5090   -0.6500    0.2850 c3        1 DSM      0.164800
      4 C16         2.0760   -0.3540   -0.1510 c3        1 DSM     -0.121400
      5 C15         1.1730   -0.3390    1.0850 c3        1 DSM      0.224800
      6 N1         -0.2280   -0.0550    0.8530 nh        1 DSM     -0.587400
      7 C14        -1.0630   -1.1260    0.4560 ca        1 DSM      0.158600
      8 C1         -1.1330   -2.2210    1.3630 ca        1 DSM     -0.138000
      9 C2         -1.9250   -3.3290    1.1080 ca        1 DSM     -0.123000
     10 C3         -2.6920   -3.3850   -0.0560 ca        1 DSM     -0.141000
     11 C4         -2.6480   -2.3230   -0.9450 ca        1 DSM     -0.119500
     12 C13        -1.8450   -1.1900   -0.7200 ca        1 DSM     -0.102300
     13 C5         -1.9510   -0.1370   -1.7690 c3        1 DSM     -0.032600
     14 C6         -0.7930    0.8300   -1.8760 c3        1 DSM     -0.032600
     15 C12        -0.7940    1.7790   -0.7340 ca        1 DSM     -0.102300
     16 C11        -0.5410    1.2990    0.5700 ca        1 DSM      0.158600
     17 C7         -1.0700    3.1340   -0.9380 ca        1 DSM     -0.119500
     18 C8         -1.0930    4.0240    0.1320 ca        1 DSM     -0.141000
     19 C9         -0.8450    3.5590    1.4230 ca        1 DSM     -0.123000
     20 C10        -0.5710    2.2140    1.6470 ca        1 DSM     -0.138000
     21 H181        6.4560   -0.8660   -1.3370 h1        1 DSM      0.029367
     22 H182        6.1590    0.0810    0.1930 h1        1 DSM      0.029367
     23 H183        5.9660   -1.7280    0.1930 h1        1 DSM      0.029367
     24 HN2         4.2940    0.0430   -1.4560 hn        1 DSM      0.357800
     25 H171        3.5360   -1.6480    0.8090 h1        1 DSM      0.028200
     26 H172        3.8190    0.1310    1.0440 h1        1 DSM      0.028200
     27 H161        2.0270    0.6380   -0.6710 hc        1 DSM      0.055700
     28 H162        1.7260   -1.1360   -0.8740 hc        1 DSM      0.055700
     29 H151        1.2530   -1.3410    1.5930 h1        1 DSM      0.051700
     30 H152        1.5560    0.4460    1.8000 h1        1 DSM      0.051700
     31 H1         -0.5560   -2.1910    2.3020 ha        1 DSM      0.137500
     32 H2         -1.9530   -4.1590    1.8290 ha        1 DSM      0.131500
     33 H3         -3.3240   -4.2600   -0.2640 ha        1 DSM      0.132000
     34 H4         -3.2590   -2.3620   -1.8610 ha        1 DSM      0.129500
     35 H51        -2.0700   -0.6410   -2.7690 hc        1 DSM      0.052450
     36 H52        -2.8970    0.4450   -1.5830 hc        1 DSM      0.052450
     37 H61         0.1790    0.2660   -1.9100 hc        1 DSM      0.052450
     38 H62        -0.8820    1.3920   -2.8450 hc        1 DSM      0.052450
     39 H7         -1.2680    3.4980   -1.9570 ha        1 DSM      0.129500
     40 H8         -1.3080    5.0880   -0.0410 ha        1 DSM      0.132000
     41 H9         -0.8680    4.2580    2.2720 ha        1 DSM      0.131500
     42 H10        -0.3790    1.8620    2.6730 ha        1 DSM      0.137500
@<TRIPOS>BOND
     1    1    2 1   
     2    1   21 1   
     3    1   22 1   
     4    1   23 1   
     5    2    3 1   
     6    2   24 1   
     7    3    4 1   
     8    3   25 1   
     9    3   26 1   
    10    4    5 1   
    11    4   27 1   
    12    4   28 1   
    13    5    6 1   
    14    5   29 1   
    15    5   30 1   
    16    6    7 1   
    17    6   16 1   
    18    7    8 ar  
    19    7   12 ar  
    20    8    9 ar  
    21    8   31 1   
    22    9   10 ar  
    23    9   32 1   
    24   10   11 ar  
    25   10   33 1   
    26   11   12 ar  
    27   11   34 1   
    28   12   13 1   
    29   13   14 1   
    30   13   35 1   
    31   13   36 1   
    32   14   15 1   
    33   14   37 1   
    34   14   38 1   
    35   15   16 ar  
    36   15   17 ar  
    37   16   20 ar  
    38   17   18 ar  
    39   17   39 1   
    40   18   19 ar  
    41   18   40 1   
    42   19   20 ar  
    43   19   41 1   
    44   20   42 1   
@<TRIPOS>SUBSTRUCTURE
     1 DSM         1 TEMP              0 ****  ****    0 ROOT
