@<TRIPOS>MOLECULE
DSN
   13    12     1     0     0
SMALL
bcc


@<TRIPOS>ATOM
      1 N          -0.6630   -0.9290    0.6970 n3        1 DSN     -0.884800
      2 CA         -0.4120   -2.0370   -0.2150 c3        1 DSN     -0.021500
      3 C          -1.0760   -1.8790   -1.6190 c         1 DSN      0.885600
      4 O          -1.8630   -0.9100   -1.8070 o         1 DSN     -0.844300
      5 OXT        -0.7980   -2.7490   -2.4960 o         1 DSN     -0.844300
      6 CB          1.0900   -2.3070   -0.4000 c3        1 DSN      0.167400
      7 OG          1.3300   -3.6020   -0.9060 oh        1 DSN     -0.653800
      8 H          -1.6420   -0.7020    0.6240 hn        1 DSN      0.331300
      9 H2         -0.1640   -0.1240    0.3610 hn        1 DSN      0.331300
     10 HA         -0.8710   -2.9570    0.2520 h1        1 DSN      0.052700
     11 HB2         1.6390   -2.2760    0.5800 h1        1 DSN      0.015700
     12 HB3         1.5310   -1.5430   -1.0950 h1        1 DSN      0.015700
     13 HG          0.7420   -3.7240   -1.6730 ho        1 DSN      0.448000
@<TRIPOS>BOND
     1    1    2 1   
     2    1    8 1   
     3    1    9 1   
     4    2    3 1   
     5    2    6 1   
     6    2   10 1   
     7    3    4 1   
     8    3    5 1   
     9    6    7 1   
    10    6   11 1   
    11    6   12 1   
    12    7   13 1   
@<TRIPOS>SUBSTRUCTURE
     1 DSN         1 TEMP              0 ****  ****    0 ROOT
