@<TRIPOS>MOLECULE
DSN
   13    12     1     0     0
SMALL
bcc


@<TRIPOS>ATOM
      1 N          -1.6100    0.4500    0.0210 n3        1 DSN     -0.884800
      2 CA         -0.2060    0.5010   -0.0840 c3        1 DSN     -0.021500
      3 C           0.3970    0.7550    1.2630 c         1 DSN      0.885600
      4 O          -0.0560    0.1600    2.2780 o         1 DSN     -0.844300
      5 OXT         1.2400    1.6530    1.3970 o         1 DSN     -0.844300
      6 CB          0.3150   -0.8690   -0.6510 c3        1 DSN      0.167400
      7 OG          1.7070   -1.0030   -0.3740 oh        1 DSN     -0.653800
      8 H          -1.9740    0.2310   -0.8070 hn        1 DSN      0.331300
      9 H2         -1.9020    1.2000    0.2660 hn        1 DSN      0.331300
     10 HA          0.0640    1.2540   -0.7210 h1        1 DSN      0.052700
     11 HB2        -0.2020   -1.6440   -0.2030 h1        1 DSN      0.015700
     12 HB3         0.1760   -0.8970   -1.5700 h1        1 DSN      0.015700
     13 HG          2.0500   -1.7900   -0.8140 ho        1 DSN      0.448000
@<TRIPOS>BOND
     1    1    2 1   
     2    1    8 1   
     3    1    9 1   
     4    2    3 1   
     5    2    6 1   
     6    2   10 1   
     7    3    4 1   
     8    3    5 1   
     9    6    7 1   
    10    6   11 1   
    11    6   12 1   
    12    7   13 1   
@<TRIPOS>SUBSTRUCTURE
     1 DSN         1 TEMP              0 ****  ****    0 ROOT
