@<TRIPOS>MOLECULE
DSO
   86    85     1     0     0
SMALL
bcc


@<TRIPOS>ATOM
      1 C1         68.1300  501.0660  135.3210 c3        1 DSO     -0.168000
      2 C2         69.3700  500.3560  135.8220 c3        1 DSO     -0.161000
      3 C3         73.8720  501.1540  134.8150 c2        1 DSO      0.084000
      4 C4         70.6740  500.9680  135.3450 c3        1 DSO     -0.166000
      5 C5         67.8130  500.7880  133.8750 c3        1 DSO     -0.217000
      6 C6         76.0830  502.6410  134.4930 c1        1 DSO      0.316000
      7 C7         71.4990  501.5450  133.0140 c3        1 DSO     -0.233000
      8 C8         75.0650  501.5700  134.4530 c2        1 DSO     -0.358000
      9 C9         71.1270  500.4390  133.9830 c3        1 DSO     -0.117000
     10 C10        76.3520  501.3550  133.7900 c3        1 DSO     -0.318000
     11 C11       -46.4500 -348.8510  -91.3770 ca        1 DSO     -0.074000
     12 C12       -45.5470 -348.7220  -90.2690 ca        1 DSO     -0.044000
     13 C13       -45.6620 -347.7040  -89.3820 ca        1 DSO     -0.166000
     14 C14       -47.4760 -347.9550  -91.5240 ca        1 DSO     -0.031000
     15 C15       -47.6630 -346.8480  -90.5810 ca        1 DSO     -0.074000
     16 C16       -46.6890 -346.6890  -89.5040 ca        1 DSO      0.269000
     17 C17       -46.7690 -345.6290  -88.6360 c2        1 DSO     -1.116000
     18 C18       -49.7100 -345.2620  -90.6910 c1        1 DSO     -0.151000
     19 C19       -50.7560 -344.4690  -90.6990 c2        1 DSO      0.049000
     20 C20       -48.7220 -346.0360  -90.6690 c1        1 DSO      0.006000
     21 C22       -50.2830 -345.9210  -94.3920 c3        1 DSO     -0.288000
     22 C23       -48.7470 -349.1640  -93.2010 c2        1 DSO      0.080000
     23 C24        72.2770  499.4700  134.1540 c2        1 DSO      0.298000
     24 N25        72.1950  498.1520  133.9700 n3        1 DSO     -0.205000
     25 C26        70.9960  497.4560  133.5650 c3        1 DSO     -0.119000
     26 C27       -42.8780 -335.6600  -86.7820 c3        1 DSO     -0.215000
     27 C28       -42.4330 -337.0360  -87.2060 c3        1 DSO     -0.158000
     28 C29       -43.4970 -338.0730  -86.9120 c3        1 DSO     -0.159000
     29 C30       -43.0440 -339.4530  -87.3400 c3        1 DSO     -0.160000
     30 C31       -44.1130 -340.4860  -87.0430 c3        1 DSO     -0.161000
     31 C32       -43.6500 -341.8650  -87.4840 c3        1 DSO     -0.221000
     32 C33       -44.6450 -342.9050  -87.1320 c2        1 DSO      0.210000
     33 N34       -44.8770 -344.0140  -87.7900 n3        1 DSO     -0.602000
     34 S36       -46.0230 -345.3020  -87.2590 s6        1 DSO      2.860000
     35 O37       -46.8320 -344.6120  -86.3660 o         1 DSO     -0.871000
     36 O38        73.5380  499.8110  134.5150 os        1 DSO     -0.173000
     37 H1C1       68.2410  502.1730  135.4760 hc        1 DSO      0.100500
     38 H1C2       72.2370  502.2590  133.4520 hc        1 DSO      0.111333
     39 H2C        67.2610  500.7340  135.9520 hc        1 DSO      0.100500
     40 H3C1       69.3240  499.2710  135.5400 hc        1 DSO      0.090000
     41 H3C2       69.3650  500.4020  136.9470 hc        1 DSO      0.090000
     42 H4C1       70.5580  502.0840  135.2770 hc        1 DSO      0.107000
     43 H4C2       71.4620  500.7630  136.1190 hc        1 DSO      0.107000
     44 H5C        70.5750  502.1230  132.7580 hc        1 DSO      0.111333
     45 H6C1       68.5730  501.2510  133.2000 hc        1 DSO      0.076000
     46 H6C2       67.7810  499.6890  133.6760 hc        1 DSO      0.076000
     47 H7C1       71.9210  501.1220  132.0700 hc        1 DSO      0.111333
     48 H7C2       66.8140  501.2180  133.6140 hc        1 DSO      0.076000
     49 H8C        77.0730  500.6240  134.2190 hc        1 DSO      0.181000
     50 H101       70.2580  499.8780  133.5180 hc        1 DSO      0.148000
     51 H102       76.4050  501.3260  132.6800 hc        1 DSO      0.181000
     52 H12       -44.7530 -349.4850  -90.1630 ha        1 DSO      0.194000
     53 H13       -44.9630 -347.6460  -88.5230 ha        1 DSO      0.205000
     54 H18       -47.5820 -344.9030  -88.8780 h4        1 DSO      0.204000
     55 H19       -50.8920 -343.6750  -89.9400 ha        1 DSO      0.186500
     56 H20       -51.5540 -344.5530  -91.4610 ha        1 DSO      0.186500
     57 H221      -48.8130 -347.1710  -92.9040 hn        1 DSO      0.297000
     58 H222      -50.5140 -347.0040  -94.5040 hc        1 DSO      0.073500
     59 H223      -51.0200 -345.3350  -94.9860 hc        1 DSO      0.073500
     60 H231      -49.4720 -349.1430  -94.0490 h4        1 DSO      0.215000
     61 H232      -49.2610 -345.7050  -94.7750 hc        1 DSO      0.073500
     62 H233      -48.3360 -350.1490  -92.8870 h4        1 DSO      0.215000
     63 H25        70.1530  497.6760  134.2750 h1        1 DSO      0.133000
     64 H261      -42.0800 -334.9120  -87.0070 hc        1 DSO      0.082333
     65 H262       73.0220  497.5930  134.1110 hn        1 DSO      0.284000
     66 H271       70.7010  497.7630  132.5240 h1        1 DSO      0.133000
     67 H272       71.2080  496.3520  133.5770 h1        1 DSO      0.133000
     68 H281      -43.8060 -335.3590  -87.3240 hc        1 DSO      0.082333
     69 H282      -43.0860 -335.6320  -85.6850 hc        1 DSO      0.082333
     70 H291      -41.4860 -337.3080  -86.6690 hc        1 DSO      0.083500
     71 H292      -42.2030 -337.0360  -88.3050 hc        1 DSO      0.083500
     72 H301      -43.7250 -338.0740  -85.8130 hc        1 DSO      0.087000
     73 H302      -44.4440 -337.8020  -87.4490 hc        1 DSO      0.087000
     74 H311      -42.0970 -339.7220  -86.8010 hc        1 DSO      0.092000
     75 H312      -42.8150 -339.4500  -88.4390 hc        1 DSO      0.092000
     76 H321      -45.0590 -340.2130  -87.5800 hc        1 DSO      0.102000
     77 H322      -44.3340 -340.4890  -85.9420 hc        1 DSO      0.102000
     78 H331      -42.6920 -342.1250  -86.9370 hc        1 DSO      0.158000
     79 H332      -43.4050 -341.8570  -88.5810 hc        1 DSO      0.158000
     80 H34       -45.2540 -342.7230  -86.2030 h4        1 DSO      0.220000
     81 N21       -48.4030 -348.0580  -92.6120 nh        1 DSO     -0.048000
     82 O35       -45.1910 -346.3170  -86.8140 o         1 DSO     -0.871000
     83 H252       73.1260  501.7030  135.4110 h4        1 DSO      0.188000
     84 H342      -44.3420 -344.1820  -88.6220 hn        1 DSO      0.256000
     85 H211      -50.3610 -345.6240  -93.3210 hc        1 DSO      0.073500
     86 H11       -46.2690 -349.6810  -92.0820 ha        1 DSO      0.173000
@<TRIPOS>BOND
     1    1    2 1   
     2    1    5 1   
     3    1   37 1   
     4    1   39 1   
     5    2    4 1   
     6    2   40 1   
     7    2   41 1   
     8    3    8 1   
     9    3   36 1   
    10    3   83 1   
    11    4    9 1   
    12    4   42 1   
    13    4   43 1   
    14    5   45 1   
    15    5   46 1   
    16    5   48 1   
    17    6    8 1   
    18    6   10 1   
    19    7    9 1   
    20    7   38 1   
    21    7   44 1   
    22    7   47 1   
    23    8   10 1   
    24    9   23 1   
    25    9   50 1   
    26   10   49 1   
    27   10   51 1   
    28   11   12 1   
    29   11   14 1   
    30   11   86 1   
    31   12   13 1   
    32   12   52 1   
    33   13   16 1   
    34   13   53 1   
    35   14   15 1   
    36   14   81 1   
    37   15   16 1   
    38   15   20 1   
    39   16   17 1   
    40   17   34 1   
    41   17   54 1   
    42   18   19 1   
    43   18   20 1   
    44   19   55 1   
    45   19   56 1   
    46   21   58 1   
    47   21   59 1   
    48   21   61 1   
    49   21   85 1   
    50   22   60 1   
    51   22   62 1   
    52   22   81 1   
    53   23   24 1   
    54   23   36 1   
    55   24   25 1   
    56   24   65 1   
    57   25   63 1   
    58   25   66 1   
    59   25   67 1   
    60   26   27 1   
    61   26   64 1   
    62   26   68 1   
    63   26   69 1   
    64   27   28 1   
    65   27   70 1   
    66   27   71 1   
    67   28   29 1   
    68   28   72 1   
    69   28   73 1   
    70   29   30 1   
    71   29   74 1   
    72   29   75 1   
    73   30   31 1   
    74   30   76 1   
    75   30   77 1   
    76   31   32 1   
    77   31   78 1   
    78   31   79 1   
    79   32   33 1   
    80   32   80 1   
    81   33   34 1   
    82   33   84 1   
    83   34   35 1   
    84   34   82 1   
    85   57   81 1   
@<TRIPOS>SUBSTRUCTURE
     1 DSO         1 TEMP              0 ****  ****    0 ROOT
