@<TRIPOS>MOLECULE
DSO
   85    83     1     0     0
SMALL
bcc


@<TRIPOS>ATOM
      1 C1        110.3590  963.4280  100.8980 c3        1 DSO     -0.216000
      2 C2        110.2520  967.7750  100.6420 c1        1 DSO      0.302000
      3 C3        112.7810  963.1050  104.6870 c3        1 DSO     -0.213000
      4 C4        111.4080  967.2360  100.3020 c2        1 DSO     -0.534000
      5 C5        110.9630  963.0500  102.2280 c3        1 DSO     -0.154000
      6 C6        112.4450  963.0600  102.2050 c2        1 DSO     -0.217000
      7 C7        113.2610  969.0350  100.4030 cx        1 DSO     -0.138500
      8 C8        113.2370  963.0710  103.2850 c2        1 DSO     -0.186000
      9 C9        112.7500  967.6290  100.7250 cx        1 DSO     -0.129000
     10 C10       113.8100  967.8770   99.6500 cx        1 DSO     -0.138500
     11 C11       -80.0090 -733.4200  -81.2620 ca        1 DSO     -0.226000
     12 C12       -79.7240 -732.0340  -81.3280 ca        1 DSO      0.038000
     13 C13       -79.5130 -731.2910  -80.1950 ca        1 DSO     -0.273000
     14 C14       -80.0600 -734.0700  -80.0440 ca        1 DSO      0.098000
     15 C15       -79.8120 -733.3090  -78.8150 ca        1 DSO     -0.079000
     16 C16       -79.5640 -731.8810  -78.9000 ca        1 DSO      0.291000
     17 C17       -79.3830 -731.1270  -77.7400 c2        1 DSO     -1.255000
     18 C18       -79.7930 -734.5610  -76.5410 c1        1 DSO     -0.182000
     19 C19       -79.7780 -735.2190  -75.4070 c2        1 DSO      0.039000
     20 C20       -79.8040 -733.9400  -77.6310 c1        1 DSO      0.126000
     21 C22        -3.9330  -16.8370   -4.2780 c3        1 DSO     -0.266000
     22 C23       -80.0310 -736.3480  -80.6780 c2        1 DSO     -0.043000
     23 C24       113.2480  967.0370  101.9880 c2        1 DSO      0.293000
     24 N25       112.3520  966.0380  102.6890 n4        1 DSO     -0.108000
     25 C26       111.4410  966.7040  103.6460 c3        1 DSO     -0.193000
     26 C27       -86.0900 -725.2910  -71.6360 c3        1 DSO     -0.213000
     27 C28       -85.7660 -725.5660  -73.0810 c3        1 DSO     -0.158000
     28 C29       -84.4160 -726.2370  -73.2260 c3        1 DSO     -0.159000
     29 C30       -84.0960 -726.5100  -74.6800 c3        1 DSO     -0.159000
     30 C31       -82.7460 -727.1830  -74.8180 c3        1 DSO     -0.160000
     31 C32       -82.4340 -727.4550  -76.2780 c3        1 DSO     -0.211000
     32 C33       -81.0920 -728.0770  -76.4320 c2        1 DSO      0.166000
     33 N34       -80.7300 -728.9280  -77.3460 n3        1 DSO     -0.546000
     34 S36       -79.0180 -729.6430  -77.5170 s6        1 DSO      2.887000
     35 O37       -78.5060 -729.3520  -76.2520 o         1 DSO     -0.899000
     36 O38       114.3190  967.2460  102.5410 o         1 DSO     -0.184000
     37 H1C1      109.2440  963.4010  100.9600 hc        1 DSO      0.079333
     38 H1C2      110.6820  962.7130  100.1020 hc        1 DSO      0.079333
     39 H2C       110.6700  964.4560  100.5870 hc        1 DSO      0.079333
     40 H3C1      111.7800  963.5920  104.7980 hc        1 DSO      0.096000
     41 H3C2      112.6940  962.0560  105.0760 hc        1 DSO      0.096000
     42 H4C1      111.3710  966.4360   99.5230 ha        1 DSO      0.218000
     43 H4C2      113.5170  963.6460  105.3340 hc        1 DSO      0.096000
     44 H5C       112.5580  969.7310   99.9070 hc        1 DSO      0.151500
     45 H6C1      113.5100  967.7120   98.5970 hc        1 DSO      0.151500
     46 H6C2      110.5710  963.7320  103.0320 hc        1 DSO      0.098000
     47 H7C1      113.8990  969.5420  101.1540 hc        1 DSO      0.151500
     48 H7C2      110.6200  962.0110  102.5030 hc        1 DSO      0.098000
     49 H8C       112.8960  962.9730  101.1990 ha        1 DSO      0.138000
     50 H101      114.8470  967.5440   99.8520 hc        1 DSO      0.151500
     51 H102      114.3330  962.9980  103.1570 ha        1 DSO      0.143000
     52 H12       -79.6700 -731.5560  -82.3220 ha        1 DSO      0.162000
     53 H13       -79.2660 -730.2180  -80.2870 ha        1 DSO      0.176000
     54 H18       -79.4680 -731.7330  -76.8080 h4        1 DSO      0.204000
     55 H19       -79.5870 -734.7200  -74.4420 ha        1 DSO      0.164500
     56 H20       -79.9550 -736.3080  -75.3690 ha        1 DSO      0.164500
     57 H221       -3.7940  -17.3530   -3.3030 hc        1 DSO      0.066000
     58 H222       -4.8520  -17.2200   -4.7720 hc        1 DSO      0.066000
     59 H223       -4.0320  -15.7430   -4.1070 hc        1 DSO      0.066000
     60 H231      -80.4240 -737.3680  -80.4900 h4        1 DSO      0.139000
     61 H232       -3.0530  -17.0320   -4.9280 hc        1 DSO      0.066000
     62 H233      -79.3170 -736.2450  -81.5190 h4        1 DSO      0.139000
     63 H25       -87.0880 -724.7960  -71.5510 hc        1 DSO      0.078667
     64 H261      112.0410  967.3180  104.3710 hx        1 DSO      0.148667
     65 H262      112.9400  965.3530  103.1990 hn        1 DSO      0.269000
     66 H271      110.7250  967.3680  103.0870 hx        1 DSO      0.148667
     67 H272      110.8620  965.9190  104.2070 hx        1 DSO      0.148667
     68 H281      -85.3230 -724.6190  -71.1800 hc        1 DSO      0.078667
     69 H282      -86.1170 -726.2410  -71.0490 hc        1 DSO      0.078667
     70 H291      -85.7700 -724.6040  -73.6580 hc        1 DSO      0.082000
     71 H292      -86.5600 -726.2220  -73.5280 hc        1 DSO      0.082000
     72 H301      -84.4120 -727.2010  -72.6510 hc        1 DSO      0.085500
     73 H302      -83.6220 -725.5810  -72.7810 hc        1 DSO      0.085500
     74 H311      -84.0970 -725.5450  -75.2530 hc        1 DSO      0.088500
     75 H312      -84.8920 -727.1630  -75.1250 hc        1 DSO      0.088500
     76 H321      -82.7470 -728.1480  -74.2450 hc        1 DSO      0.098500
     77 H322      -81.9510 -726.5270  -74.3730 hc        1 DSO      0.098500
     78 H331      -82.4170 -726.4780  -76.8470 hc        1 DSO      0.143000
     79 H332      -83.2460 -728.0850  -76.7320 hc        1 DSO      0.143000
     80 H34       -80.3130 -727.7740  -75.6820 h4        1 DSO      0.210000
     81 N21       -80.4350 -735.4180  -79.8970 n2        1 DSO     -0.178000
     82 O35       -78.5250 -728.9330  -78.6040 o         1 DSO     -0.899000
     83 H252      111.8030  965.5160  101.9870 hn        1 DSO      0.269000
     84 H342      -81.4090 -729.2230  -78.0210 hn        1 DSO      0.244000
     85 H11       -80.1960 -733.9630  -82.2030 ha        1 DSO      0.162000
@<TRIPOS>BOND
     1    1    5 1   
     2    1   37 1   
     3    1   38 1   
     4    1   39 1   
     5    2    4 1   
     6    3    8 1   
     7    3   40 1   
     8    3   41 1   
     9    3   43 1   
    10    4    9 1   
    11    4   42 1   
    12    5    6 1   
    13    5   46 1   
    14    5   48 1   
    15    6    8 1   
    16    6   49 1   
    17    7    9 1   
    18    7   10 1   
    19    7   44 1   
    20    7   47 1   
    21    8   51 1   
    22    9   10 1   
    23    9   23 1   
    24   10   45 1   
    25   10   50 1   
    26   11   12 1   
    27   11   14 1   
    28   11   85 1   
    29   12   13 1   
    30   12   52 1   
    31   13   16 1   
    32   13   53 1   
    33   14   15 1   
    34   14   81 1   
    35   15   16 1   
    36   15   20 1   
    37   16   17 1   
    38   17   34 1   
    39   17   54 1   
    40   18   19 1   
    41   18   20 1   
    42   19   55 1   
    43   19   56 1   
    44   21   57 1   
    45   21   58 1   
    46   21   59 1   
    47   21   61 1   
    48   22   60 1   
    49   22   62 1   
    50   22   81 1   
    51   23   24 1   
    52   23   36 1   
    53   24   25 1   
    54   24   65 1   
    55   24   83 1   
    56   25   64 1   
    57   25   66 1   
    58   25   67 1   
    59   26   27 1   
    60   26   63 1   
    61   26   68 1   
    62   26   69 1   
    63   27   28 1   
    64   27   70 1   
    65   27   71 1   
    66   28   29 1   
    67   28   72 1   
    68   28   73 1   
    69   29   30 1   
    70   29   74 1   
    71   29   75 1   
    72   30   31 1   
    73   30   76 1   
    74   30   77 1   
    75   31   32 1   
    76   31   78 1   
    77   31   79 1   
    78   32   33 1   
    79   32   80 1   
    80   33   34 1   
    81   33   84 1   
    82   34   35 1   
    83   34   82 1   
@<TRIPOS>SUBSTRUCTURE
     1 DSO         1 TEMP              0 ****  ****    0 ROOT
