@<TRIPOS>MOLECULE
DSO
   83    87     1     0     0
SMALL
bcc


@<TRIPOS>ATOM
      1 C1          1.8420    1.1020   10.8120 c3        1 DSO     -0.071400
      2 C2          1.2950   -0.2890   11.1170 c3        1 DSO     -0.062700
      3 C3          0.0100   -0.1650   11.9280 c3        1 DSO     -0.071400
      4 C4          1.0030   -1.0180    9.8120 c3        1 DSO     -0.061400
      5 C5          0.8100    1.8870   10.0100 c3        1 DSO     -0.062700
      6 C6         -0.4770    2.0110   10.8200 c3        1 DSO     -0.071400
      7 C7          0.5180    1.1620    8.6990 c3        1 DSO     -0.061400
      8 C8         -1.0220    0.6200   11.1270 c3        1 DSO     -0.062700
      9 C9         -0.0350   -0.2360    8.9960 c3        1 DSO     -0.115000
     10 C10        -1.3200   -0.1090    9.8190 c3        1 DSO     -0.061400
     11 C11         1.7980   -1.9980   -8.7720 ca        1 DSO     -0.188000
     12 C12         0.6220   -2.3290   -8.0700 ca        1 DSO     -0.080000
     13 C13        -0.0700   -1.3780   -7.3650 ca        1 DSO     -0.177000
     14 C14         2.2640   -0.6900   -8.8000 ca        1 DSO      0.143600
     15 C15         1.5220    0.3340   -8.1010 ca        1 DSO     -0.064000
     16 C16         0.3720   -0.0250   -7.3460 ca        1 DSO      0.073000
     17 C17        -0.3280    0.9730   -6.6010 ca        1 DSO     -0.374500
     18 C18         0.0860    2.2900   -6.6930 ca        1 DSO      0.006000
     19 C19         1.1840    2.6630   -7.4900 ca        1 DSO     -0.179000
     20 C20         1.8940    1.7040   -8.1720 ca        1 DSO     -0.035000
     21 C22         4.5840   -0.0160   -8.7320 c3        1 DSO      0.166100
     22 C23         3.7240   -1.1420  -10.6870 c3        1 DSO      0.166100
     23 C24        -0.3000   -0.9940    7.6910 c         1 DSO      0.660100
     24 N25        -1.2510   -0.4780    6.8300 n         1 DSO     -0.567900
     25 C26        -1.5080   -1.0370    5.5320 c3        1 DSO      0.085000
     26 C27        -1.0130   -0.1830    4.3620 c3        1 DSO     -0.105400
     27 C28        -1.3870   -0.8390    3.0510 c3        1 DSO     -0.077400
     28 C29        -0.8960   -0.0240    1.8730 c3        1 DSO     -0.078400
     29 C30        -1.2780   -0.6730    0.5600 c3        1 DSO     -0.079400
     30 C31        -0.7750    0.1350   -0.6170 c3        1 DSO     -0.078400
     31 C32        -1.1710   -0.5090   -1.9280 c3        1 DSO     -0.095400
     32 C33        -0.6370    0.3200   -3.0980 c3        1 DSO      0.224800
     33 N34        -0.9680   -0.2080   -4.3890 n3        1 DSO     -0.919100
     34 S36        -1.6470    0.6370   -5.5850 sy        1 DSO      1.513200
     35 O37        -2.5790   -0.1800   -6.2570 o         1 DSO     -0.657300
     36 O38         0.2900   -2.0590    7.4250 o         1 DSO     -0.609100
     37 H1C1        2.0690    1.6400   11.7670 hc        1 DSO      0.042700
     38 H1C2        2.7930    1.0160   10.2270 hc        1 DSO      0.042700
     39 H2C         2.0550   -0.8710   11.7030 hc        1 DSO      0.052033
     40 H3C1       -0.3890   -1.1840   12.1660 hc        1 DSO      0.042700
     41 H3C2        0.2180    0.3600   12.8950 hc        1 DSO      0.042700
     42 H4C1        0.6120   -2.0460   10.0190 hc        1 DSO      0.049700
     43 H4C2        1.9410   -1.1270    9.2090 hc        1 DSO      0.049700
     44 H5C         1.2100    2.9110    9.7830 hc        1 DSO      0.052033
     45 H6C1       -1.2350    2.5990   10.2440 hc        1 DSO      0.042700
     46 H6C2       -0.2710    2.5560   11.7760 hc        1 DSO      0.042700
     47 H7C1        1.4570    1.0740    8.0960 hc        1 DSO      0.049700
     48 H7C2       -0.2220    1.7600    8.1080 hc        1 DSO      0.049700
     49 H8C        -1.9700    0.7110   11.7210 hc        1 DSO      0.052033
     50 H101       -2.0970    0.4620    9.2500 hc        1 DSO      0.049700
     51 H102       -1.7280   -1.1290   10.0360 hc        1 DSO      0.049700
     52 H11         2.3310   -2.8020   -9.3030 ha        1 DSO      0.138000
     53 H12         0.2680   -3.3720   -8.0930 ha        1 DSO      0.137000
     54 H13        -1.0040   -1.6580   -6.8520 ha        1 DSO      0.154000
     55 H18        -0.4570    3.0770   -6.1340 ha        1 DSO      0.164000
     56 H19         1.4640    3.7250   -7.5580 ha        1 DSO      0.142000
     57 H20         2.7510    2.0070   -8.7960 ha        1 DSO      0.151000
     58 H221        5.3010    0.5810   -9.3560 h1        1 DSO      0.038867
     59 H222        4.2800    0.5920   -7.8400 h1        1 DSO      0.038867
     60 H223        5.1100   -0.9420   -8.3710 h1        1 DSO      0.038867
     61 H231        2.7850   -1.3330  -11.2690 h1        1 DSO      0.038867
     62 H232        4.4470   -0.5800  -11.3360 h1        1 DSO      0.038867
     63 H233        4.1880   -2.1290  -10.4130 h1        1 DSO      0.038867
     64 H25        -1.6110    0.4290    7.0080 hn        1 DSO      0.304500
     65 H261       -2.6240   -1.1730    5.4290 h1        1 DSO      0.061700
     66 H262       -1.0250   -2.0550    5.4740 h1        1 DSO      0.061700
     67 H271        0.1010   -0.0640    4.4200 hc        1 DSO      0.043700
     68 H272       -1.4630    0.8430    4.4120 hc        1 DSO      0.043700
     69 H281       -2.5020   -0.9540    2.9890 hc        1 DSO      0.043200
     70 H282       -0.9450   -1.8690    3.0050 hc        1 DSO      0.043200
     71 H291        0.2200    0.0840    1.9300 hc        1 DSO      0.041200
     72 H292       -1.3310    1.0090    1.9220 hc        1 DSO      0.041200
     73 H301       -2.3940   -0.7720    0.5000 hc        1 DSO      0.042200
     74 H302       -0.8510   -1.7100    0.5150 hc        1 DSO      0.042200
     75 H311        0.3420    0.2260   -0.5610 hc        1 DSO      0.043200
     76 H312       -1.1960    1.1750   -0.5660 hc        1 DSO      0.043200
     77 H321       -2.2880   -0.5870   -1.9890 hc        1 DSO      0.048200
     78 H322       -0.7590   -1.5510   -1.9760 hc        1 DSO      0.048200
     79 H331        0.4870    0.3880   -2.9980 h1        1 DSO      0.052200
     80 H332       -1.0540    1.3670   -3.0190 h1        1 DSO      0.052200
     81 H34        -0.7360   -1.1670   -4.4970 hn        1 DSO      0.445800
     82 N21         3.4230   -0.3130   -9.5430 nh        1 DSO     -0.644000
     83 O35        -2.1470    1.8680   -5.0940 o         1 DSO     -0.657300
@<TRIPOS>BOND
     1    1    2 1   
     2    1    5 1   
     3    1   37 1   
     4    1   38 1   
     5    2    3 1   
     6    2    4 1   
     7    2   39 1   
     8    3    8 1   
     9    3   40 1   
    10    3   41 1   
    11    4    9 1   
    12    4   42 1   
    13    4   43 1   
    14    5    6 1   
    15    5    7 1   
    16    5   44 1   
    17    6    8 1   
    18    6   45 1   
    19    6   46 1   
    20    7    9 1   
    21    7   47 1   
    22    7   48 1   
    23    8   10 1   
    24    8   49 1   
    25    9   10 1   
    26    9   23 1   
    27   10   50 1   
    28   10   51 1   
    29   11   12 ar  
    30   11   14 ar  
    31   11   52 1   
    32   12   13 ar  
    33   12   53 1   
    34   13   16 ar  
    35   13   54 1   
    36   14   15 ar  
    37   14   82 1   
    38   15   16 ar  
    39   15   20 ar  
    40   16   17 ar  
    41   17   18 ar  
    42   17   34 1   
    43   18   19 ar  
    44   18   55 1   
    45   19   20 ar  
    46   19   56 1   
    47   20   57 1   
    48   21   58 1   
    49   21   59 1   
    50   21   60 1   
    51   21   82 1   
    52   22   61 1   
    53   22   62 1   
    54   22   63 1   
    55   22   82 1   
    56   23   24 1   
    57   23   36 2   
    58   24   25 1   
    59   24   64 1   
    60   25   26 1   
    61   25   65 1   
    62   25   66 1   
    63   26   27 1   
    64   26   67 1   
    65   26   68 1   
    66   27   28 1   
    67   27   69 1   
    68   27   70 1   
    69   28   29 1   
    70   28   71 1   
    71   28   72 1   
    72   29   30 1   
    73   29   73 1   
    74   29   74 1   
    75   30   31 1   
    76   30   75 1   
    77   30   76 1   
    78   31   32 1   
    79   31   77 1   
    80   31   78 1   
    81   32   33 1   
    82   32   79 1   
    83   32   80 1   
    84   33   34 1   
    85   33   81 1   
    86   34   35 2   
    87   34   83 2   
@<TRIPOS>SUBSTRUCTURE
     1 DSO         1 TEMP              0 ****  ****    0 ROOT
