@<TRIPOS>MOLECULE
DSR
   22    22     1     0     0
SMALL
bcc


@<TRIPOS>ATOM
      1 C1         -0.1210   -0.4370    1.8440 c3        1 DSR      0.345900
      2 C2         -1.1330    0.6240    1.4100 c3        1 DSR     -0.173400
      3 C3         -1.3270    0.5720   -0.1020 c3        1 DSR      0.142100
      4 C4          0.0270    0.6690   -0.8050 c3        1 DSR     -0.007600
      5 C5          0.9910   -0.3930   -0.2690 c3        1 DSR      0.162100
      6 C6          2.3960   -0.2190   -0.8150 c3        1 DSR     -0.098100
      7 O1          0.2600   -0.3020    3.1860 oh        1 DSR     -0.590800
      8 O3         -1.9290   -0.6570   -0.4990 oh        1 DSR     -0.612800
      9 O5          1.1130   -0.2810    1.1540 os        1 DSR     -0.456600
     10 S4         -0.1200    0.6250   -2.5730 sh        1 DSR     -0.366900
     11 H1         -0.5320   -1.4770    1.7190 h2        1 DSR      0.079700
     12 H21        -2.1030    0.4410    1.9360 hc        1 DSR      0.066200
     13 H22        -0.7650    1.6400    1.7020 hc        1 DSR      0.066200
     14 H3         -1.9860    1.4250   -0.4330 h1        1 DSR      0.056700
     15 H4          0.4560    1.6850   -0.5920 h1        1 DSR      0.101700
     16 H5          0.5840   -1.4150   -0.5170 h1        1 DSR      0.058700
     17 H61         3.0390   -1.0650   -0.4730 hc        1 DSR      0.055033
     18 H62         2.3570   -0.2040   -1.9310 hc        1 DSR      0.055033
     19 H63         2.8410    0.7360   -0.4470 hc        1 DSR      0.055033
     20 HO1         0.9040    0.4170    3.2440 ho        1 DSR      0.422000
     21 HO3        -2.7560   -0.7350   -0.0070 ho        1 DSR      0.413000
     22 H4S        -0.9030   -0.4380   -2.7080 hs        1 DSR      0.227800
@<TRIPOS>BOND
     1    1    2 1   
     2    1    7 1   
     3    1    9 1   
     4    1   11 1   
     5    2    3 1   
     6    2   12 1   
     7    2   13 1   
     8    3    4 1   
     9    3    8 1   
    10    3   14 1   
    11    4    5 1   
    12    4   10 1   
    13    4   15 1   
    14    5    6 1   
    15    5    9 1   
    16    5   16 1   
    17    6   17 1   
    18    6   18 1   
    19    6   19 1   
    20    7   20 1   
    21    8   21 1   
    22   10   22 1   
@<TRIPOS>SUBSTRUCTURE
     1 DSR         1 TEMP              0 ****  ****    0 ROOT
