@<TRIPOS>MOLECULE
DSR
   22    22     1     0     0
SMALL
bcc


@<TRIPOS>ATOM
      1 C1         -0.8040   -0.6390   -1.5210 c3        1 DSR      0.347900
      2 C2          0.7050   -0.6390   -1.5210 c3        1 DSR     -0.103400
      3 C3          1.2660   -0.6390   -0.1560 c3        1 DSR      0.144100
      4 C4          0.6890    0.4500    0.6950 c3        1 DSR     -0.055600
      5 C5         -0.8280    0.4470    0.6840 c3        1 DSR      0.177100
      6 C6         -1.3210    1.6680    1.4050 c3        1 DSR     -0.098100
      7 O1         -1.2510   -0.4680   -2.8150 oh        1 DSR     -0.601800
      8 O3          0.9850   -1.9200    0.4670 oh        1 DSR     -0.599800
      9 O5         -1.3760    0.4420   -0.6660 os        1 DSR     -0.462600
     10 S4          1.2600    0.2290    2.3920 sh        1 DSR     -0.366900
     11 H1         -1.1190   -1.5020   -1.1900 h2        1 DSR      0.053700
     12 H21         1.0210   -1.4340   -1.9920 hc        1 DSR      0.076700
     13 H22         1.0210    0.1550   -1.9920 hc        1 DSR      0.076700
     14 H3          2.2340   -0.5190   -0.2110 h1        1 DSR      0.039700
     15 H4          1.0060    1.3120    0.3640 h1        1 DSR      0.092700
     16 H5         -1.1450   -0.3480    1.1550 h1        1 DSR      0.059700
     17 H61        -0.9240    2.4650    1.0050 hc        1 DSR      0.055367
     18 H62        -1.0680    1.6150    2.3460 hc        1 DSR      0.055367
     19 H63        -2.2940    1.7180    1.3330 hc        1 DSR      0.055367
     20 HO1        -1.9950   -0.9360   -2.9360 ho        1 DSR      0.428000
     21 HO3         1.7420   -2.3720    0.5690 ho        1 DSR      0.419000
     22 H4S         2.1950    0.9180    2.5840 hs        1 DSR      0.207800
@<TRIPOS>BOND
     1    1    2 1   
     2    1    7 1   
     3    1    9 1   
     4    1   11 1   
     5    2    3 1   
     6    2   12 1   
     7    2   13 1   
     8    3    4 1   
     9    3    8 1   
    10    3   14 1   
    11    4    5 1   
    12    4   10 1   
    13    4   15 1   
    14    5    6 1   
    15    5    9 1   
    16    5   16 1   
    17    6   17 1   
    18    6   18 1   
    19    6   19 1   
    20    7   20 1   
    21    8   21 1   
    22   10   22 1   
@<TRIPOS>SUBSTRUCTURE
     1 DSR         1 TEMP              0 ****  ****    0 ROOT
