@<TRIPOS>MOLECULE
DSS
   14    13     1     0     0
SMALL
bcc


@<TRIPOS>ATOM
      1 S           0.7350    0.2360    0.2050 s4        1 DSS      0.301600
      2 O           1.5540    0.8990    1.2510 o         1 DSS     -0.505200
      3 C1         -0.7120   -0.2900    1.0130 c3        1 DSS     -0.137800
      4 C2          0.0960    1.5370   -0.7820 c3        1 DSS     -0.074000
      5 S3          0.0060    0.9950   -2.4350 ss        1 DSS     -0.224200
      6 C4         -1.7070    0.7550   -2.7000 c3        1 DSS     -0.054000
      7 H11        -0.4770   -1.2030    1.6090 h1        1 DSS      0.084367
      8 H12        -1.5040   -0.5530    0.2760 h1        1 DSS      0.084367
      9 H13        -1.1320    0.4610    1.7200 h1        1 DSS      0.084367
     10 H21        -0.8790    1.9300   -0.4180 h2        1 DSS      0.121700
     11 H22         0.8110    2.3990   -0.7440 h2        1 DSS      0.121700
     12 H41        -2.1340   -0.0280   -2.0340 h1        1 DSS      0.066367
     13 H42        -1.8080    0.4230   -3.7600 h1        1 DSS      0.066367
     14 H43        -2.2870    1.6940   -2.5590 h1        1 DSS      0.066367
@<TRIPOS>BOND
     1    1    2 2   
     2    1    3 1   
     3    1    4 1   
     4    3    7 1   
     5    3    8 1   
     6    3    9 1   
     7    4    5 1   
     8    4   10 1   
     9    4   11 1   
    10    5    6 1   
    11    6   12 1   
    12    6   13 1   
    13    6   14 1   
@<TRIPOS>SUBSTRUCTURE
     1 DSS         1 TEMP              0 ****  ****    0 ROOT
