@<TRIPOS>MOLECULE
DSS
   14    13     1     0     0
SMALL
bcc


@<TRIPOS>ATOM
      1 S           0.7280    0.4010    0.2800 s4        1 DSS      0.301600
      2 O           1.4340    1.1760    1.3310 o         1 DSS     -0.505200
      3 C1         -0.7000   -0.2280    1.0460 c3        1 DSS     -0.137800
      4 C2          0.0170    1.6000   -0.7850 c3        1 DSS     -0.074000
      5 S3          0.0520    0.9930   -2.4170 ss        1 DSS     -0.224200
      6 C4         -1.6190    0.5850   -2.7430 c3        1 DSS     -0.054000
      7 H11        -0.4090   -1.0930    1.6880 h1        1 DSS      0.084367
      8 H12        -1.4300   -0.5910    0.2880 h1        1 DSS      0.084367
      9 H13        -1.2190    0.5050    1.7050 h1        1 DSS      0.084367
     10 H21        -1.0060    1.9130   -0.4770 h2        1 DSS      0.121700
     11 H22         0.6470    2.5260   -0.7530 h2        1 DSS      0.121700
     12 H41        -2.0020   -0.2090   -2.0640 h1        1 DSS      0.066367
     13 H42        -1.6410    0.2060   -3.7920 h1        1 DSS      0.066367
     14 H43        -2.2880    1.4700   -2.6650 h1        1 DSS      0.066367
@<TRIPOS>BOND
     1    1    2 2   
     2    1    3 1   
     3    1    4 1   
     4    3    7 1   
     5    3    8 1   
     6    3    9 1   
     7    4    5 1   
     8    4   10 1   
     9    4   11 1   
    10    5    6 1   
    11    6   12 1   
    12    6   13 1   
    13    6   14 1   
@<TRIPOS>SUBSTRUCTURE
     1 DSS         1 TEMP              0 ****  ****    0 ROOT
