@<TRIPOS>MOLECULE
DSS
   14    12     1     0     0
SMALL
bcc


@<TRIPOS>ATOM
      1 S           0.6490    0.0060    1.3660 ss        1 DSS      1.418000
      2 O           2.0860    0.0060    1.3660 o         1 DSS     -0.780000
      3 C1         -0.2380    0.0060    2.9020 c2        1 DSS     -0.687000
      4 C2         -0.2380    0.0060   -0.1690 c3        1 DSS     -0.751000
      5 S3          0.9140   -0.0240   -1.5170 ss        1 DSS      0.132000
      6 C4          0.0280   -0.0130   -3.0520 c3        1 DSS     -0.356000
      7 H11         0.3970   -0.0100    3.6430 ha        1 DSS      0.123667
      8 H12        -0.7870    0.8110    2.9600 ha        1 DSS      0.123667
      9 H13        -0.8110   -0.7830    2.9460 ha        1 DSS      0.123667
     10 H21        -0.7860    0.8110   -0.2280 h2        1 DSS      0.155500
     11 H22        -0.8110   -0.7830   -0.2140 h2        1 DSS      0.155500
     12 H41        -0.5480   -0.8000   -3.1020 h1        1 DSS      0.114333
     13 H42        -0.5180    0.7940   -3.1070 h1        1 DSS      0.114333
     14 H43         0.6620   -0.0270   -3.7940 h1        1 DSS      0.114333
@<TRIPOS>BOND
     1    1    2 1   
     2    1    4 1   
     3    3    7 1   
     4    3    8 1   
     5    3    9 1   
     6    4    5 1   
     7    4   10 1   
     8    4   11 1   
     9    5    6 1   
    10    6   12 1   
    11    6   13 1   
    12    6   14 1   
@<TRIPOS>SUBSTRUCTURE
     1 DSS         1 TEMP              0 ****  ****    0 ROOT
