@<TRIPOS>MOLECULE
DSS
   14    13     1     0     0
SMALL
bcc


@<TRIPOS>ATOM
      1 S           1.3100   -0.6450   -0.1800 s4        1 DSS      0.301600
      2 O           2.1200   -1.1030   -1.3380 o         1 DSS     -0.505200
      3 C1          2.0020    0.8750    0.2990 c3        1 DSS     -0.137800
      4 C2         -0.2120   -0.1040   -0.8620 c3        1 DSS     -0.074000
      5 S3         -1.4930   -0.4780    0.2580 ss        1 DSS     -0.224200
      6 C4         -1.9260    1.0800    0.9290 c3        1 DSS     -0.054000
      7 H11         2.2620    1.5420   -0.5540 h1        1 DSS      0.084367
      8 H12         1.3120    1.4300    0.9740 h1        1 DSS      0.084367
      9 H13         2.9480    0.6770    0.8580 h1        1 DSS      0.084367
     10 H21        -0.2100    0.9720   -1.1490 h2        1 DSS      0.121700
     11 H22        -0.4070   -0.6760   -1.8050 h2        1 DSS      0.121700
     12 H41        -2.7610    0.8830    1.6420 h1        1 DSS      0.066367
     13 H42        -1.0830    1.5530    1.4800 h1        1 DSS      0.066367
     14 H43        -2.2780    1.7880    0.1470 h1        1 DSS      0.066367
@<TRIPOS>BOND
     1    1    2 2   
     2    1    3 1   
     3    1    4 1   
     4    3    7 1   
     5    3    8 1   
     6    3    9 1   
     7    4    5 1   
     8    4   10 1   
     9    4   11 1   
    10    5    6 1   
    11    6   12 1   
    12    6   13 1   
    13    6   14 1   
@<TRIPOS>SUBSTRUCTURE
     1 DSS         1 TEMP              0 ****  ****    0 ROOT
