@<TRIPOS>MOLECULE
DST
   25    24     1     0     0
SMALL
bcc


@<TRIPOS>ATOM
      1 O4        886.7410    3.4130-1782.9200 o         1 DST     -0.876500
      2 P1        888.0720    3.6080-1783.5460 p5        1 DST      1.486800
      3 O6        889.2520    3.0670-1782.8290 o         1 DST     -0.876500
      4 O5        888.3030    5.1260-1784.1560 os        1 DST     -0.732800
      5 O2        888.0910    3.3180-1785.1720 os        1 DST     -0.732800
      6 P3        888.3230    4.8360-1785.7820 p5        1 DST      1.486800
      7 O8        887.1430    5.3770-1786.4990 o         1 DST     -0.876500
      8 O7        889.6540    5.0310-1786.4070 o         1 DST     -0.876500
      9 S9       -415.3110   -2.3050  841.4920 s         1 DST     -0.980300
     10 C10      -415.6960   -1.5210  843.0070 c3        1 DST      0.084900
     11 C11      -416.8900   -2.1050  843.7360 c3        1 DST     -0.065400
     12 C12      -418.2290   -1.6350  843.1810 c3        1 DST     -0.052700
     13 C13      -418.5620   -2.3650  841.8980 c3        1 DST     -0.105600
     14 C14      -419.3280   -1.8250  844.2070 c3        1 DST     -0.105600
     15 H101     -415.8720   -0.4300  842.8260 h1        1 DST     -0.006800
     16 H102     -414.8080   -1.5990  843.6850 h1        1 DST     -0.006800
     17 H111     -416.8340   -1.8130  844.8220 hc        1 DST      0.015700
     18 H112     -416.8410   -3.2240  843.6850 hc        1 DST      0.015700
     19 H12      -418.1510   -0.5340  842.9520 hc        1 DST      0.032700
     20 H131     -419.3800   -1.8420  841.3470 hc        1 DST      0.029200
     21 H132     -417.6230   -2.4080  841.2620 hc        1 DST      0.029200
     22 H133     -418.8930   -3.4090  842.1120 hc        1 DST      0.029200
     23 H141     -419.3900   -2.8960  844.5180 hc        1 DST      0.029200
     24 H142     -419.1330   -1.2070  845.1160 hc        1 DST      0.029200
     25 H143     -420.3150   -1.5250  843.7800 hc        1 DST      0.029200
@<TRIPOS>BOND
     1    1    2 1   
     2    2    3 1   
     3    2    4 1   
     4    2    5 1   
     5    4    6 1   
     6    5    6 1   
     7    6    7 1   
     8    6    8 1   
     9    9   10 1   
    10   10   11 1   
    11   10   15 1   
    12   10   16 1   
    13   11   12 1   
    14   11   17 1   
    15   11   18 1   
    16   12   13 1   
    17   12   14 1   
    18   12   19 1   
    19   13   20 1   
    20   13   21 1   
    21   13   22 1   
    22   14   23 1   
    23   14   24 1   
    24   14   25 1   
@<TRIPOS>SUBSTRUCTURE
     1 DST         1 TEMP              0 ****  ****    0 ROOT
