@<TRIPOS>MOLECULE
DST
   25    24     1     0     0
SMALL
bcc


@<TRIPOS>ATOM
      1 O4         -5.0850   -4.1960    1.5240 o         1 DST     -0.877833
      2 P1         -3.5750   -4.1960    1.5240 p5        1 DST      1.400900
      3 O6         -3.0710   -4.1960    2.9470 o         1 DST     -0.877833
      4 O5         -3.0710   -5.4290    0.8120 o         1 DST     -0.877833
      5 O2         -3.0480   -2.9060    0.7790 os        1 DST     -0.732800
      6 P3         -1.6470   -2.2350    1.0730 p5        1 DST      1.357800
      7 O8         -1.6710   -1.5990    2.4420 o         1 DST     -0.876500
      8 O7         -0.5650   -3.2880    1.0260 o         1 DST     -0.876500
      9 S9         -1.2620   -0.7870   -0.3540 ss        1 DST     -0.725500
     10 C10         0.1930    0.1180    0.1000 c3        1 DST      0.188700
     11 C11         0.5230    1.1200   -0.9850 c3        1 DST     -0.071400
     12 C12         1.7160    1.9480   -0.5610 c3        1 DST     -0.077700
     13 C13         1.3190    3.4070   -0.4950 c3        1 DST     -0.082100
     14 C14         2.8340    1.7740   -1.5650 c3        1 DST     -0.082100
     15 H101        0.9400   -0.5010    0.2090 h1        1 DST     -0.010800
     16 H102        0.0350    0.5890    0.9400 h1        1 DST     -0.010800
     17 H111       -0.2440    1.7050   -1.1320 hc        1 DST      0.039700
     18 H112        0.7340    0.6460   -1.8120 hc        1 DST      0.039700
     19 H12         2.0200    1.6540    0.3190 hc        1 DST      0.034700
     20 H131        0.6250    3.5250    0.1810 hc        1 DST      0.019700
     21 H132        2.0980    3.9460   -0.2600 hc        1 DST      0.019700
     22 H133        0.9780    3.6900   -1.3650 hc        1 DST      0.019700
     23 H141        2.5170    2.0300   -2.4520 hc        1 DST      0.019700
     24 H142        3.1180    0.8410   -1.5780 hc        1 DST      0.019700
     25 H143        3.5880    2.3400   -1.3130 hc        1 DST      0.019700
@<TRIPOS>BOND
     1    1    2 1   
     2    2    3 1   
     3    2    4 1   
     4    2    5 1   
     5    5    6 1   
     6    6    7 1   
     7    6    8 1   
     8    6    9 1   
     9    9   10 1   
    10   10   11 1   
    11   10   15 1   
    12   10   16 1   
    13   11   12 1   
    14   11   17 1   
    15   11   18 1   
    16   12   13 1   
    17   12   14 1   
    18   12   19 1   
    19   13   20 1   
    20   13   21 1   
    21   13   22 1   
    22   14   23 1   
    23   14   24 1   
    24   14   25 1   
@<TRIPOS>SUBSTRUCTURE
     1 DST         1 TEMP              0 ****  ****    0 ROOT
