@<TRIPOS>MOLECULE
DSU
   74    75     1     0     0
SMALL
bcc


@<TRIPOS>ATOM
      1 O1N         1.9210   -0.1980   -0.5790 o         1 DSU     -0.578000
      2 C1N         2.9170   -0.5140    0.0810 c         1 DSU      0.643100
      3 C2N         3.1920   -0.2900    1.5350 c3        1 DSU     -0.128400
      4 C3N         1.9390   -0.4890    2.3620 c3        1 DSU     -0.079400
      5 C4N         2.1920   -0.1290    3.8110 c3        1 DSU     -0.079400
      6 C5N         0.9500   -0.3430    4.6490 c3        1 DSU     -0.079400
      7 C6N         1.1970    0.0200    6.0970 c3        1 DSU     -0.079400
      8 C7N        -0.0450   -0.1930    6.9360 c3        1 DSU     -0.079400
      9 C8N         0.2020    0.1710    8.3840 c3        1 DSU     -0.079400
     10 C9N        -1.0400   -0.0420    9.2240 c3        1 DSU     -0.080400
     11 C10        -0.7990    0.3200   10.6670 c3        1 DSU     -0.093100
     12 O6'         3.9490   -1.1340   -0.5650 os        1 DSU     -0.430900
     13 C6'         3.7840   -1.4640   -1.9470 c3        1 DSU      0.125400
     14 C5'         3.8170   -0.2140   -2.8260 c3        1 DSU      0.086100
     15 O2'         4.7660   -0.4320   -3.8830 os        1 DSU     -0.376600
     16 C4'         2.4560    0.1320   -3.4640 c3        1 DSU      0.098100
     17 O4'         2.0020    1.4100   -3.0730 oh        1 DSU     -0.601800
     18 C3'         2.7220    0.1810   -4.9860 c3        1 DSU      0.099100
     19 O3'         1.7810   -0.5930   -5.7020 oh        1 DSU     -0.604800
     20 C2'         4.1300   -0.4490   -5.1550 c3        1 DSU      0.308600
     21 C1'         5.0150    0.3030   -6.1590 c3        1 DSU      0.138400
     22 O1'         6.3530   -0.1270   -6.1310 oh        1 DSU     -0.588800
     23 O1          4.0710   -1.8560   -5.3800 os        1 DSU     -0.422600
     24 C1          3.7710   -2.2830   -6.6920 c3        1 DSU      0.318900
     25 O5          5.0660   -2.3590   -7.2730 os        1 DSU     -0.490600
     26 C5          5.0720   -2.9670   -8.5670 c3        1 DSU      0.309900
     27 O6          6.4470   -3.0040   -8.8610 os        1 DSU     -0.401600
     28 C6          7.0050   -1.7300   -9.1670 c3        1 DSU      0.109700
     29 C4          4.5540   -4.4150   -8.5050 c3        1 DSU      0.133100
     30 O4          5.3880   -5.2660   -7.7510 oh        1 DSU     -0.578800
     31 C3          3.1350   -4.4150   -7.9070 c3        1 DSU      0.113100
     32 O3          2.2890   -3.7880   -8.8560 oh        1 DSU     -0.606800
     33 C2          3.1090   -3.6710   -6.5610 c3        1 DSU      0.087100
     34 O2          1.7450   -3.5330   -6.2020 oh        1 DSU     -0.608800
     35 H2N1        4.0050   -0.9850    1.8760 hc        1 DSU      0.082700
     36 H2N2        3.5710    0.7620    1.6460 hc        1 DSU      0.082700
     37 H3N1        1.6050   -1.5570    2.2900 hc        1 DSU      0.057200
     38 H3N2        1.1120    0.1460    1.9480 hc        1 DSU      0.057200
     39 H4N1        3.0310   -0.7560    4.2150 hc        1 DSU      0.042700
     40 H4N2        2.5150    0.9430    3.8830 hc        1 DSU      0.042700
     41 H5N1        0.6290   -1.4160    4.5790 hc        1 DSU      0.042700
     42 H5N2        0.1100    0.2810    4.2420 hc        1 DSU      0.042700
     43 H6N1        2.0370   -0.6030    6.5030 hc        1 DSU      0.040700
     44 H6N2        1.5180    1.0930    6.1670 hc        1 DSU      0.040700
     45 H7N1       -0.8840    0.4300    6.5290 hc        1 DSU      0.040700
     46 H7N2       -0.3660   -1.2660    6.8670 hc        1 DSU      0.040700
     47 H8N1        0.5230    1.2440    8.4540 hc        1 DSU      0.039700
     48 H8N2        1.0410   -0.4520    8.7910 hc        1 DSU      0.039700
     49 H9N1       -1.8790    0.5810    8.8150 hc        1 DSU      0.038700
     50 H9N2       -1.3600   -1.1150    9.1530 hc        1 DSU      0.038700
     51 H101       -0.5020    1.3920   10.7620 hc        1 DSU      0.033033
     52 H102       -1.7260    0.1560   11.2680 hc        1 DSU      0.033033
     53 H103        0.0170   -0.3080   11.1000 hc        1 DSU      0.033033
     54 H6'1        4.6780   -2.1120   -2.1610 h1        1 DSU      0.082700
     55 H6'2        2.8340   -2.0430   -2.0820 h1        1 DSU      0.082700
     56 H5'         4.2140    0.6610   -2.2400 h1        1 DSU      0.089700
     57 H4'         1.6820   -0.6460   -3.2170 h1        1 DSU      0.071700
     58 H7          1.7260    1.3370   -2.1470 ho        1 DSU      0.434000
     59 H3'         2.7180    1.2430   -5.3520 h1        1 DSU      0.081700
     60 H6          0.9250   -0.1610   -5.5880 ho        1 DSU      0.424000
     61 H1'1        4.5850    0.1620   -7.1870 h1        1 DSU      0.056200
     62 H1'2        5.0480    1.3930   -5.8920 h1        1 DSU      0.056200
     63 H1'         6.3500   -1.0960   -6.0810 ho        1 DSU      0.433000
     64 H1          3.1150   -1.5680   -7.2610 h2        1 DSU      0.079700
     65 H5          4.4750   -2.3490   -9.2920 h2        1 DSU      0.066700
     66 H61         8.0890   -1.9480   -9.3380 h1        1 DSU      0.046033
     67 H62         6.8710   -1.0250   -8.3090 h1        1 DSU      0.046033
     68 H63         6.5340   -1.3150  -10.0910 h1        1 DSU      0.046033
     69 H4          4.5290   -4.8530   -9.5410 h1        1 DSU      0.103700
     70 HO4         5.7940   -4.7300   -7.0540 ho        1 DSU      0.421000
     71 H3          2.8000   -5.4760   -7.7380 h1        1 DSU      0.072700
     72 HO3         1.4140   -3.7300   -8.4480 ho        1 DSU      0.428000
     73 H2          3.6510   -4.2740   -5.7810 h1        1 DSU      0.075700
     74 HO2         1.6960   -2.8300   -5.5380 ho        1 DSU      0.432000
@<TRIPOS>BOND
     1    1    2 2   
     2    2    3 1   
     3    2   12 1   
     4    3    4 1   
     5    3   35 1   
     6    3   36 1   
     7    4    5 1   
     8    4   37 1   
     9    4   38 1   
    10    5    6 1   
    11    5   39 1   
    12    5   40 1   
    13    6    7 1   
    14    6   41 1   
    15    6   42 1   
    16    7    8 1   
    17    7   43 1   
    18    7   44 1   
    19    8    9 1   
    20    8   45 1   
    21    8   46 1   
    22    9   10 1   
    23    9   47 1   
    24    9   48 1   
    25   10   11 1   
    26   10   49 1   
    27   10   50 1   
    28   11   51 1   
    29   11   52 1   
    30   11   53 1   
    31   12   13 1   
    32   13   14 1   
    33   13   54 1   
    34   13   55 1   
    35   14   15 1   
    36   14   16 1   
    37   14   56 1   
    38   15   20 1   
    39   16   17 1   
    40   16   18 1   
    41   16   57 1   
    42   17   58 1   
    43   18   19 1   
    44   18   20 1   
    45   18   59 1   
    46   19   60 1   
    47   20   21 1   
    48   20   23 1   
    49   21   22 1   
    50   21   61 1   
    51   21   62 1   
    52   22   63 1   
    53   23   24 1   
    54   24   25 1   
    55   24   33 1   
    56   24   64 1   
    57   25   26 1   
    58   26   27 1   
    59   26   29 1   
    60   26   65 1   
    61   27   28 1   
    62   28   66 1   
    63   28   67 1   
    64   28   68 1   
    65   29   30 1   
    66   29   31 1   
    67   29   69 1   
    68   30   70 1   
    69   31   32 1   
    70   31   33 1   
    71   31   71 1   
    72   32   72 1   
    73   33   34 1   
    74   33   73 1   
    75   34   74 1   
@<TRIPOS>SUBSTRUCTURE
     1 DSU         1 TEMP              0 ****  ****    0 ROOT
