@<TRIPOS>MOLECULE
DSU
   74    75     1     0     0
SMALL
bcc


@<TRIPOS>ATOM
      1 O1N         1.8970   -0.2060   -0.5880 o         1 DSU     -0.578000
      2 C1N         2.9010   -0.4900    0.0740 c         1 DSU      0.643100
      3 C2N         3.1710   -0.2460    1.5250 c3        1 DSU     -0.128400
      4 C3N         1.9260   -0.4760    2.3560 c3        1 DSU     -0.079400
      5 C4N         2.1700   -0.0960    3.8010 c3        1 DSU     -0.079400
      6 C5N         0.9360   -0.3420    4.6430 c3        1 DSU     -0.079400
      7 C6N         1.1740    0.0410    6.0880 c3        1 DSU     -0.079400
      8 C7N        -0.0590   -0.2050    6.9310 c3        1 DSU     -0.079400
      9 C8N         0.1780    0.1780    8.3760 c3        1 DSU     -0.079400
     10 C9N        -1.0540   -0.0680    9.2200 c3        1 DSU     -0.080400
     11 C10        -0.8230    0.3120   10.6600 c3        1 DSU     -0.093100
     12 O6'         3.9480   -1.0910   -0.5660 os        1 DSU     -0.430900
     13 C6'         3.7900   -1.4380   -1.9460 c3        1 DSU      0.125400
     14 C5'         3.7930   -0.1960   -2.8370 c3        1 DSU      0.086100
     15 O2'         4.7470   -0.4010   -3.8920 os        1 DSU     -0.376600
     16 C4'         2.4240    0.1110   -3.4770 c3        1 DSU      0.098100
     17 O4'         1.9400    1.3820   -3.0970 oh        1 DSU     -0.601800
     18 C3'         2.6880    0.1520   -4.9990 c3        1 DSU      0.099100
     19 O3'         1.7660   -0.6500   -5.7070 oh        1 DSU     -0.604800
     20 C2'         4.1110   -0.4450   -5.1640 c3        1 DSU      0.308600
     21 C1'         4.9780    0.3190   -6.1750 c3        1 DSU      0.138400
     22 O1'         6.3250   -0.0800   -6.1440 oh        1 DSU     -0.588800
     23 O1          4.0850   -1.8550   -5.3760 os        1 DSU     -0.422600
     24 C1          3.7940   -2.3010   -6.6840 c3        1 DSU      0.318900
     25 O5          5.0910   -2.3510   -7.2650 os        1 DSU     -0.490600
     26 C5          5.1110   -2.9710   -8.5530 c3        1 DSU      0.309900
     27 O6          6.4860   -2.9780   -8.8480 os        1 DSU     -0.401600
     28 C6          7.0140   -1.6940   -9.1650 c3        1 DSU      0.109700
     29 C4          4.6280   -4.4300   -8.4780 c3        1 DSU      0.133100
     30 O4          5.4820   -5.2540   -7.7170 oh        1 DSU     -0.578800
     31 C3          3.2090   -4.4580   -7.8790 c3        1 DSU      0.113100
     32 O3          2.3480   -3.8600   -8.8330 oh        1 DSU     -0.606800
     33 C2          3.1660   -3.7030   -6.5400 c3        1 DSU      0.088100
     34 O2          1.8000   -3.5940   -6.1810 oh        1 DSU     -0.608800
     35 H2N1        4.0050   -0.9120    1.8710 hc        1 DSU      0.082700
     36 H2N2        3.5170    0.8190    1.6260 hc        1 DSU      0.082700
     37 H3N1        1.0790    0.1300    1.9370 hc        1 DSU      0.057200
     38 H3N2        1.6260   -1.5550    2.2930 hc        1 DSU      0.057200
     39 H4N1        3.0290   -0.6920    4.2090 hc        1 DSU      0.042700
     40 H4N2        2.4580    0.9870    3.8640 hc        1 DSU      0.042700
     41 H5N1        0.6490   -1.4250    4.5830 hc        1 DSU      0.042700
     42 H5N2        0.0760    0.2510    4.2330 hc        1 DSU      0.042700
     43 H6N1        1.4600    1.1240    6.1480 hc        1 DSU      0.040700
     44 H6N2        2.0340   -0.5510    6.4980 hc        1 DSU      0.040700
     45 H7N1       -0.3450   -1.2880    6.8710 hc        1 DSU      0.040700
     46 H7N2       -0.9190    0.3870    6.5210 hc        1 DSU      0.040700
     47 H8N1        0.4640    1.2610    8.4360 hc        1 DSU      0.039700
     48 H8N2        1.0380   -0.4140    8.7860 hc        1 DSU      0.039700
     49 H9N1       -1.3400   -1.1520    9.1570 hc        1 DSU      0.038700
     50 H9N2       -1.9140    0.5230    8.8070 hc        1 DSU      0.038700
     51 H101       -0.5620    1.3940   10.7450 hc        1 DSU      0.033033
     52 H102       -1.7430    0.1220   11.2640 hc        1 DSU      0.033033
     53 H103        0.0140   -0.2850   11.0960 hc        1 DSU      0.033033
     54 H6'1        2.8560   -2.0410   -2.0740 h1        1 DSU      0.082700
     55 H6'2        4.7000   -2.0670   -2.1540 h1        1 DSU      0.082700
     56 H5'         4.1700    0.6940   -2.2590 h1        1 DSU      0.089700
     57 H4'         1.6690   -0.6830   -3.2230 h1        1 DSU      0.071700
     58 H7          1.6660    1.3110   -2.1710 ho        1 DSU      0.434000
     59 H3'         2.6590    1.2110   -5.3750 h1        1 DSU      0.081700
     60 H6          0.8990   -0.2370   -5.5970 ho        1 DSU      0.424000
     61 H1'1        4.5500    0.1580   -7.2010 h1        1 DSU      0.056200
     62 H1'2        4.9850    1.4120   -5.9180 h1        1 DSU      0.056200
     63 H1'         6.3450   -1.0470   -6.0850 ho        1 DSU      0.433000
     64 H1          3.1210   -1.6070   -7.2590 h2        1 DSU      0.079700
     65 H5          4.4990   -2.3740   -9.2830 h2        1 DSU      0.066700
     66 H61         8.1020   -1.8870   -9.3360 h1        1 DSU      0.046033
     67 H62         6.5320   -1.2980  -10.0930 h1        1 DSU      0.046033
     68 H63         6.8640   -0.9840   -8.3140 h1        1 DSU      0.046033
     69 H4          4.6120   -4.8780   -9.5100 h1        1 DSU      0.103700
     70 HO4         5.8750   -4.7030   -7.0250 ho        1 DSU      0.421000
     71 H3          2.8990   -5.5260   -7.7010 h1        1 DSU      0.072700
     72 HO3         1.4720   -3.8190   -8.4250 ho        1 DSU      0.428000
     73 H2          3.7230   -4.2860   -5.7550 h1        1 DSU      0.075700
     74 HO2         1.7340   -2.8870   -5.5230 ho        1 DSU      0.432000
@<TRIPOS>BOND
     1    1    2 2   
     2    2    3 1   
     3    2   12 1   
     4    3    4 1   
     5    3   35 1   
     6    3   36 1   
     7    4    5 1   
     8    4   37 1   
     9    4   38 1   
    10    5    6 1   
    11    5   39 1   
    12    5   40 1   
    13    6    7 1   
    14    6   41 1   
    15    6   42 1   
    16    7    8 1   
    17    7   43 1   
    18    7   44 1   
    19    8    9 1   
    20    8   45 1   
    21    8   46 1   
    22    9   10 1   
    23    9   47 1   
    24    9   48 1   
    25   10   11 1   
    26   10   49 1   
    27   10   50 1   
    28   11   51 1   
    29   11   52 1   
    30   11   53 1   
    31   12   13 1   
    32   13   14 1   
    33   13   54 1   
    34   13   55 1   
    35   14   15 1   
    36   14   16 1   
    37   14   56 1   
    38   15   20 1   
    39   16   17 1   
    40   16   18 1   
    41   16   57 1   
    42   17   58 1   
    43   18   19 1   
    44   18   20 1   
    45   18   59 1   
    46   19   60 1   
    47   20   21 1   
    48   20   23 1   
    49   21   22 1   
    50   21   61 1   
    51   21   62 1   
    52   22   63 1   
    53   23   24 1   
    54   24   25 1   
    55   24   33 1   
    56   24   64 1   
    57   25   26 1   
    58   26   27 1   
    59   26   29 1   
    60   26   65 1   
    61   27   28 1   
    62   28   66 1   
    63   28   67 1   
    64   28   68 1   
    65   29   30 1   
    66   29   31 1   
    67   29   69 1   
    68   30   70 1   
    69   31   32 1   
    70   31   33 1   
    71   31   71 1   
    72   32   72 1   
    73   33   34 1   
    74   33   73 1   
    75   34   74 1   
@<TRIPOS>SUBSTRUCTURE
     1 DSU         1 TEMP              0 ****  ****    0 ROOT
