@<TRIPOS>MOLECULE
DSU
   74    75     1     0     0
SMALL
bcc


@<TRIPOS>ATOM
      1 O1N         2.3600   -0.7690    0.4130 o         1 DSU     -0.578000
      2 C1N         2.6870    0.4040    0.6210 c         1 DSU      0.643100
      3 C2N         4.0470    0.9690    0.8860 c3        1 DSU     -0.128400
      4 C3N         5.0960    0.2860    0.0320 c3        1 DSU     -0.079400
      5 C4N         6.4830    0.7660    0.4030 c3        1 DSU     -0.079400
      6 C5N         7.5350    0.1020   -0.4590 c3        1 DSU     -0.079400
      7 C6N         8.9240    0.5750   -0.0880 c3        1 DSU     -0.079400
      8 C7N         9.9770   -0.0870   -0.9500 c3        1 DSU     -0.079400
      9 C8N        11.3670    0.3850   -0.5800 c3        1 DSU     -0.079400
     10 C9N        12.4220   -0.2760   -1.4420 c3        1 DSU     -0.080400
     11 C10        13.8070    0.1910   -1.0770 c3        1 DSU     -0.093100
     12 O6'         1.7050    1.3540    0.6450 os        1 DSU     -0.430900
     13 C6'         0.3650    0.9520    0.3420 c3        1 DSU      0.125400
     14 C5'        -0.2360    0.1180    1.4720 c3        1 DSU      0.086100
     15 O2'        -1.5120    0.6830    1.8180 os        1 DSU     -0.376600
     16 C4'        -0.4490   -1.3640    1.1040 c3        1 DSU      0.098100
     17 O4'         0.2810   -2.2250    1.9530 oh        1 DSU     -0.601800
     18 C3'        -1.9500   -1.6330    1.3530 c3        1 DSU      0.099100
     19 O3'        -2.5550   -2.2620    0.2410 oh        1 DSU     -0.604800
     20 C2'        -2.5720   -0.2240    1.5380 c3        1 DSU      0.308600
     21 C1'        -3.5940   -0.1550    2.6820 c3        1 DSU      0.138400
     22 O1'        -3.9730    1.1620    2.9930 oh        1 DSU     -0.588800
     23 O1         -3.0450    0.3260    0.3100 os        1 DSU     -0.422600
     24 C1         -4.3030   -0.1210   -0.1490 c3        1 DSU      0.318900
     25 O5         -5.1820    0.8070    0.4730 os        1 DSU     -0.490600
     26 C5         -6.5330    0.7040    0.0140 c3        1 DSU      0.309900
     27 O6         -7.1510    1.7670    0.6970 os        1 DSU     -0.401600
     28 C6         -7.3280    1.5310    2.0900 c3        1 DSU      0.109700
     29 C4         -6.6310    0.9820   -1.4970 c3        1 DSU      0.133100
     30 O4         -6.2790    2.3040   -1.8370 oh        1 DSU     -0.578800
     31 C3         -5.7190   -0.0080   -2.2480 c3        1 DSU      0.113100
     32 O3         -6.2970   -1.2930   -2.0970 oh        1 DSU     -0.606800
     33 C2         -4.2890    0.0310   -1.6850 c3        1 DSU      0.088100
     34 O2         -3.5930   -1.0510   -2.2790 oh        1 DSU     -0.608800
     35 H2N1        4.2680    0.8110    1.9760 hc        1 DSU      0.082700
     36 H2N2        4.0400    2.0750    0.6940 hc        1 DSU      0.082700
     37 H3N1        4.8970    0.5000   -1.0510 hc        1 DSU      0.057200
     38 H3N2        5.0240   -0.8260    0.1690 hc        1 DSU      0.057200
     39 H4N1        6.6840    0.5390    1.4830 hc        1 DSU      0.042700
     40 H4N2        6.5430    1.8790    0.2800 hc        1 DSU      0.042700
     41 H5N1        7.3360    0.3300   -1.5390 hc        1 DSU      0.042700
     42 H5N2        7.4720   -1.0120   -0.3390 hc        1 DSU      0.042700
     43 H6N1        9.1240    0.3460    0.9920 hc        1 DSU      0.040700
     44 H6N2        8.9870    1.6890   -0.2070 hc        1 DSU      0.040700
     45 H7N1        9.7780    0.1420   -2.0310 hc        1 DSU      0.040700
     46 H7N2        9.9150   -1.2010   -0.8320 hc        1 DSU      0.040700
     47 H8N1       11.5670    0.1570    0.5000 hc        1 DSU      0.039700
     48 H8N2       11.4300    1.4990   -0.6990 hc        1 DSU      0.039700
     49 H9N1       12.2190   -0.0480   -2.5210 hc        1 DSU      0.038700
     50 H9N2       12.3560   -1.3900   -1.3230 hc        1 DSU      0.038700
     51 H101       14.5680   -0.3080   -1.7230 hc        1 DSU      0.033033
     52 H102       13.8990    1.2960   -1.2120 hc        1 DSU      0.033033
     53 H103       14.0360   -0.0500   -0.0100 hc        1 DSU      0.033033
     54 H6'1       -0.1790    1.9330    0.2510 h1        1 DSU      0.082700
     55 H6'2        0.3530    0.4020   -0.6340 h1        1 DSU      0.082700
     56 H5'         0.3960    0.2110    2.4000 h1        1 DSU      0.089700
     57 H4'        -0.1790   -1.5590    0.0310 h1        1 DSU      0.071700
     58 H7          1.2130   -2.1360    1.7070 ho        1 DSU      0.434000
     59 H3'        -2.0910   -2.2520    2.2800 h1        1 DSU      0.081700
     60 H6         -2.1570   -3.1390    0.1710 ho        1 DSU      0.424000
     61 H1'1       -4.4950   -0.7580    2.3890 h1        1 DSU      0.056200
     62 H1'2       -3.1360   -0.5630    3.6230 h1        1 DSU      0.056200
     63 H1'        -4.1120    1.6330    2.1570 ho        1 DSU      0.433000
     64 H1         -4.5480   -1.1750    0.1560 h2        1 DSU      0.079700
     65 H5         -6.9580   -0.3030    0.2740 h2        1 DSU      0.066700
     66 H61        -6.3430    1.3490    2.5870 h1        1 DSU      0.046033
     67 H62        -7.7940    2.4770    2.4630 h1        1 DSU      0.046033
     68 H63        -8.0120    0.6620    2.2490 h1        1 DSU      0.046033
     69 H4         -7.6950    0.8510   -1.8390 h1        1 DSU      0.103700
     70 HO4        -5.6100    2.5990   -1.2030 ho        1 DSU      0.421000
     71 H3         -5.6850    0.2700   -3.3390 h1        1 DSU      0.072700
     72 HO3        -5.6870   -1.9190   -2.5120 ho        1 DSU      0.428000
     73 H2         -3.7950    1.0020   -1.9630 h1        1 DSU      0.075700
     74 HO2        -2.8130   -1.2220   -1.7310 ho        1 DSU      0.432000
@<TRIPOS>BOND
     1    1    2 2   
     2    2    3 1   
     3    2   12 1   
     4    3    4 1   
     5    3   35 1   
     6    3   36 1   
     7    4    5 1   
     8    4   37 1   
     9    4   38 1   
    10    5    6 1   
    11    5   39 1   
    12    5   40 1   
    13    6    7 1   
    14    6   41 1   
    15    6   42 1   
    16    7    8 1   
    17    7   43 1   
    18    7   44 1   
    19    8    9 1   
    20    8   45 1   
    21    8   46 1   
    22    9   10 1   
    23    9   47 1   
    24    9   48 1   
    25   10   11 1   
    26   10   49 1   
    27   10   50 1   
    28   11   51 1   
    29   11   52 1   
    30   11   53 1   
    31   12   13 1   
    32   13   14 1   
    33   13   54 1   
    34   13   55 1   
    35   14   15 1   
    36   14   16 1   
    37   14   56 1   
    38   15   20 1   
    39   16   17 1   
    40   16   18 1   
    41   16   57 1   
    42   17   58 1   
    43   18   19 1   
    44   18   20 1   
    45   18   59 1   
    46   19   60 1   
    47   20   21 1   
    48   20   23 1   
    49   21   22 1   
    50   21   61 1   
    51   21   62 1   
    52   22   63 1   
    53   23   24 1   
    54   24   25 1   
    55   24   33 1   
    56   24   64 1   
    57   25   26 1   
    58   26   27 1   
    59   26   29 1   
    60   26   65 1   
    61   27   28 1   
    62   28   66 1   
    63   28   67 1   
    64   28   68 1   
    65   29   30 1   
    66   29   31 1   
    67   29   69 1   
    68   30   70 1   
    69   31   32 1   
    70   31   33 1   
    71   31   71 1   
    72   32   72 1   
    73   33   34 1   
    74   33   73 1   
    75   34   74 1   
@<TRIPOS>SUBSTRUCTURE
     1 DSU         1 TEMP              0 ****  ****    0 ROOT
