@<TRIPOS>MOLECULE
DSU
   74    74     1     0     0
SMALL
bcc


@<TRIPOS>ATOM
      1 O1N         0.0300    0.3090    1.1050 o         1 DSU     -0.337000
      2 C1N         1.0690   -0.2890    1.2970 c1        1 DSU      0.307000
      3 C2N         1.5000   -0.6410    2.7340 c2        1 DSU     -0.155000
      4 C3N         0.2810   -1.1570    3.5270 c3        1 DSU     -0.158000
      5 C4N         0.5620   -1.0290    5.0570 c3        1 DSU     -0.157000
      6 C5N        -0.7090   -1.3880    5.8440 c3        1 DSU     -0.158000
      7 C6N        -0.4690   -1.1430    7.3600 c3        1 DSU     -0.157000
      8 C7N        -1.8000   -1.2720    8.1150 c3        1 DSU     -0.158000
      9 C8N        -1.5590   -1.0880    9.6110 c3        1 DSU     -0.158000
     10 C9N        -2.9090   -1.0780   10.3510 c3        1 DSU     -0.159000
     11 C10        -2.6670   -0.9470   11.8480 c3        1 DSU     -0.211000
     12 O6'         1.8840   -0.6780    0.1900 os        1 DSU     -0.306000
     13 C6'         1.8210    0.2210   -0.9250 c3        1 DSU     -0.020000
     14 C5'         1.9900   -0.5630   -2.2170 c3        1 DSU     -0.001000
     15 O2'         1.1820    0.1500   -3.4050 os        1 DSU     -0.281000
     16 C4'         3.2360   -0.5690   -2.5750 c3        1 DSU     -0.025000
     17 O4'         3.5570   -1.8270   -3.2970 oh        1 DSU     -0.321000
     18 C3'         3.3870    0.6490   -3.5230 c3        1 DSU      0.022000
     19 O3'         4.0680    1.6360   -2.9110 oh        1 DSU     -0.314000
     20 C2'         1.9470    1.1090   -3.8400 c3        1 DSU      0.170000
     21 C1'         1.6330    2.4170   -3.1020 c3        1 DSU     -0.016000
     22 O1'         0.2640    2.7050   -3.2180 oh        1 DSU     -0.315000
     23 O1          1.7760    1.2780   -5.2470 os        1 DSU     -0.298000
     24 C1          0.5370    0.7590   -5.6320 c3        1 DSU      0.133000
     25 O5         -0.4530    1.8400   -5.6280 os        1 DSU     -0.345000
     26 C5         -1.7540    1.4290   -6.1850 c3        1 DSU      0.124000
     27 O6         -2.5750    2.5510   -6.2940 os        1 DSU     -0.260000
     28 C6         -3.9090    2.3360   -5.8440 c3        1 DSU     -0.078000
     29 C4         -1.6240    0.7820   -7.5490 c3        1 DSU      0.023000
     30 O4         -1.2220    1.7810   -8.4990 oh        1 DSU     -0.308000
     31 C3         -0.6250   -0.3180   -7.5580 c3        1 DSU      0.005000
     32 O3         -1.1400   -1.4280   -6.7670 oh        1 DSU     -0.331000
     33 C2          0.6800    0.1040   -6.9980 c3        1 DSU     -0.027000
     34 O2          1.5280   -1.0520   -6.8730 oh        1 DSU     -0.330000
     35 H2N1        2.1890   -1.3350    2.7070 ha        1 DSU      0.116500
     36 H2N2        1.8570    0.1530    3.1700 ha        1 DSU      0.116500
     37 H3N1        0.1190   -2.0990    3.3010 hc        1 DSU      0.098500
     38 H3N2       -0.5070   -0.6260    3.2950 hc        1 DSU      0.098500
     39 H4N1        1.2850   -1.6410    5.3080 hc        1 DSU      0.081000
     40 H4N2        0.8250   -0.1120    5.2640 hc        1 DSU      0.081000
     41 H5N1       -0.9290   -2.3310    5.6970 hc        1 DSU      0.083000
     42 H5N2       -1.4490   -0.8300    5.5380 hc        1 DSU      0.083000
     43 H6N1       -0.1040   -0.2430    7.4920 hc        1 DSU      0.079500
     44 H6N2        0.1660   -1.8060    7.7020 hc        1 DSU      0.079500
     45 H7N1       -2.4190   -0.5900    7.8000 hc        1 DSU      0.080000
     46 H7N2       -2.1800   -2.1560    7.9540 hc        1 DSU      0.080000
     47 H8N1       -1.0090   -1.8260    9.9470 hc        1 DSU      0.079000
     48 H8N2       -1.0950   -0.2380    9.7660 hc        1 DSU      0.079000
     49 H9N1       -3.4460   -0.3200   10.0400 hc        1 DSU      0.078000
     50 H9N2       -3.3890   -1.9160   10.1690 hc        1 DSU      0.078000
     51 H101       -2.1520   -0.1340   12.0260 hc        1 DSU      0.072333
     52 H102       -3.5310   -0.8970   12.3170 hc        1 DSU      0.072333
     53 H103       -2.1680   -1.7260   12.1670 hc        1 DSU      0.072333
     54 H6'1        0.9510    0.6760   -0.9300 h1        1 DSU      0.114500
     55 H6'2        2.5360    0.8850   -0.8500 h1        1 DSU      0.114500
     56 H5'         1.6700   -1.4800   -2.0970 h1        1 DSU      0.113000
     57 H4'         3.8160   -0.4670   -1.7920 h1        1 DSU      0.111000
     58 H7          4.3410   -2.1390   -3.0150 ho        1 DSU      0.219000
     59 H3'         3.8450    0.3820   -4.3460 h1        1 DSU      0.131000
     60 H6          4.9070    1.6600   -3.2250 ho        1 DSU      0.218000
     61 H1'1        2.1550    3.1480   -3.4960 h1        1 DSU      0.120000
     62 H1'2        1.8670    2.3230   -2.1580 h1        1 DSU      0.120000
     63 H1'         0.0830    3.4580   -2.7890 ho        1 DSU      0.205000
     64 H1          0.2650    0.0810   -4.9850 h2        1 DSU      0.122000
     65 H5         -2.1710    0.7900   -5.5720 h2        1 DSU      0.107000
     66 H61        -3.8910    1.9350   -4.9490 h1        1 DSU      0.085333
     67 H62        -4.3700    1.7310   -6.4640 h1        1 DSU      0.085333
     68 H63        -4.3880    3.1990   -5.8080 h1        1 DSU      0.085333
     69 H4         -2.4930    0.4230   -7.8140 h1        1 DSU      0.143000
     70 HO4        -1.7070    1.6930   -9.2470 ho        1 DSU      0.221000
     71 H3         -0.4930   -0.6190   -8.4770 h1        1 DSU      0.113000
     72 HO3        -1.4490   -2.0610   -7.3100 ho        1 DSU      0.226000
     73 H2          1.0980    0.7400   -7.6130 h1        1 DSU      0.114000
     74 HO2         1.8440   -1.2750   -7.6740 ho        1 DSU      0.224000
@<TRIPOS>BOND
     1    1    2 1   
     2    2   12 1   
     3    3    4 1   
     4    3   35 1   
     5    3   36 1   
     6    4    5 1   
     7    4   37 1   
     8    4   38 1   
     9    5    6 1   
    10    5   39 1   
    11    5   40 1   
    12    6    7 1   
    13    6   41 1   
    14    6   42 1   
    15    7    8 1   
    16    7   43 1   
    17    7   44 1   
    18    8    9 1   
    19    8   45 1   
    20    8   46 1   
    21    9   10 1   
    22    9   47 1   
    23    9   48 1   
    24   10   11 1   
    25   10   49 1   
    26   10   50 1   
    27   11   51 1   
    28   11   52 1   
    29   11   53 1   
    30   12   13 1   
    31   13   14 1   
    32   13   54 1   
    33   13   55 1   
    34   14   15 1   
    35   14   16 1   
    36   14   56 1   
    37   15   20 1   
    38   16   17 1   
    39   16   18 1   
    40   16   57 1   
    41   17   58 1   
    42   18   19 1   
    43   18   20 1   
    44   18   59 1   
    45   19   60 1   
    46   20   21 1   
    47   20   23 1   
    48   21   22 1   
    49   21   61 1   
    50   21   62 1   
    51   22   63 1   
    52   23   24 1   
    53   24   25 1   
    54   24   33 1   
    55   24   64 1   
    56   25   26 1   
    57   26   27 1   
    58   26   29 1   
    59   26   65 1   
    60   27   28 1   
    61   28   66 1   
    62   28   67 1   
    63   28   68 1   
    64   29   30 1   
    65   29   31 1   
    66   29   69 1   
    67   30   70 1   
    68   31   32 1   
    69   31   33 1   
    70   31   71 1   
    71   32   72 1   
    72   33   34 1   
    73   33   73 1   
    74   34   74 1   
@<TRIPOS>SUBSTRUCTURE
     1 DSU         1 TEMP              0 ****  ****    0 ROOT
