@<TRIPOS>MOLECULE
DSV
   40    42     1     0     0
SMALL
bcc


@<TRIPOS>ATOM
      1 C1          0.4190    1.0900    0.2610 ca        1 DSV     -0.346500
      2 C2         -0.1510   -0.1610    0.0400 ca        1 DSV      0.028000
      3 C3         -1.5410   -0.3050    0.0820 ca        1 DSV     -0.081100
      4 C4         -2.3720    0.8150    0.3460 cp        1 DSV     -0.017000
      5 C5         -1.7960    2.0680    0.5770 ca        1 DSV     -0.135000
      6 C6         -0.4170    2.1910    0.5360 ca        1 DSV     -0.040000
      7 S10        -2.4440   -1.7240   -0.1480 ss        1 DSV      0.077200
      8 C11        -3.9280   -0.9450    0.0680 ca        1 DSV     -0.060100
      9 C12        -3.7700    0.4450    0.3360 cp        1 DSV     -0.066000
     10 CY1        -5.2110   -1.4980    0.0170 ca        1 DSV     -0.109000
     11 CZ1        -6.3140   -0.6820    0.2270 ca        1 DSV     -0.123000
     12 CZ2        -6.1570    0.6860    0.4910 ca        1 DSV     -0.154000
     13 CY2        -4.8900    1.2530    0.5470 ca        1 DSV     -0.084000
     14 S21         2.1030    1.3840    0.1690 sy        1 DSV      1.501200
     15 O22         2.4430    1.5290   -1.2000 o         1 DSV     -0.676800
     16 O23         2.3530    2.5500    0.9500 o         1 DSV     -0.676800
     17 N24         2.7910    0.1240    0.8360 n3        1 DSV     -0.907100
     18 C10         3.1600   -1.0830    0.1250 c3        1 DSV      0.093500
     19 CBC         4.6780   -1.3470    0.0980 c3        1 DSV     -0.066700
     20 CC1         4.9480   -2.5250   -0.8170 c3        1 DSV     -0.088600
     21 CC2         5.4680   -0.1400   -0.3550 c3        1 DSV     -0.088600
     22 C37         2.4440   -2.3240    0.7750 c         1 DSV      0.904600
     23 O39         2.7740   -2.6510    1.9440 o         1 DSV     -0.824800
     24 O40         1.5540   -2.8810    0.0730 o         1 DSV     -0.824800
     25 H2          0.4770   -1.0630   -0.1530 ha        1 DSV      0.217000
     26 H5         -2.4340    2.9370    0.7910 ha        1 DSV      0.127000
     27 H6          0.0510    3.1730    0.7320 ha        1 DSV      0.151000
     28 HY1        -5.3400   -2.5710   -0.1880 ha        1 DSV      0.134000
     29 HZ1        -7.3260   -1.1120    0.1890 ha        1 DSV      0.122000
     30 HZ2        -7.0450    1.3120    0.6560 ha        1 DSV      0.122000
     31 HY2        -4.7590    2.3250    0.7550 ha        1 DSV      0.131000
     32 HN24        2.8900    0.0110    1.8200 hn        1 DSV      0.467800
     33 HC1         4.2990   -3.3890   -0.5260 hc        1 DSV      0.028700
     34 HC1A        4.7290   -2.2570   -1.8780 hc        1 DSV      0.028700
     35 HC1B        6.0180   -2.8330   -0.7420 hc        1 DSV      0.028700
     36 HBC         4.9900   -1.6270    1.1450 hc        1 DSV      0.066700
     37 HC2         5.5000    0.6380    0.4450 hc        1 DSV      0.028700
     38 HC2A        6.5190   -0.4310   -0.5960 hc        1 DSV      0.028700
     39 HC2B        5.0060    0.3120   -1.2680 hc        1 DSV      0.028700
     40 H10         2.8010   -0.9820   -0.9420 h1        1 DSV      0.056700
@<TRIPOS>BOND
     1    1    2 ar  
     2    1    6 ar  
     3    1   14 1   
     4    2    3 ar  
     5    2   25 1   
     6    3    4 ar  
     7    3    7 1   
     8    4    5 ar  
     9    4    9 1   
    10    5    6 ar  
    11    5   26 1   
    12    6   27 1   
    13    7    8 1   
    14    8    9 ar  
    15    8   10 ar  
    16    9   13 ar  
    17   10   11 ar  
    18   10   28 1   
    19   11   12 ar  
    20   11   29 1   
    21   12   13 ar  
    22   12   30 1   
    23   13   31 1   
    24   14   15 2   
    25   14   16 2   
    26   14   17 1   
    27   17   18 1   
    28   17   32 1   
    29   18   19 1   
    30   18   22 1   
    31   18   40 1   
    32   19   20 1   
    33   19   21 1   
    34   19   36 1   
    35   20   33 1   
    36   20   34 1   
    37   20   35 1   
    38   21   37 1   
    39   21   38 1   
    40   21   39 1   
    41   22   23 1   
    42   22   24 1   
@<TRIPOS>SUBSTRUCTURE
     1 DSV         1 TEMP              0 ****  ****    0 ROOT
