@<TRIPOS>MOLECULE
DSV
   41    43     1     0     0
SMALL
bcc


@<TRIPOS>ATOM
      1 C1          0.1040    0.0130    0.0270 ca        1 DSV     -0.500500
      2 C2          1.4350    0.4300    0.1860 ca        1 DSV      0.094000
      3 C3          2.0410    0.3830    1.4380 ca        1 DSV     -0.103100
      4 C4          1.3090   -0.0860    2.5670 cp        1 DSV      0.042000
      5 C5         -0.0250   -0.4930    2.4170 ca        1 DSV     -0.116000
      6 C6         -0.6110   -0.4360    1.1700 ca        1 DSV     -0.033000
      7 S10         3.6140    0.8480    1.8510 ss        1 DSV      0.135200
      8 C11         3.4220    0.4440    3.4780 ca        1 DSV     -0.051100
      9 C12         2.1180   -0.0550    3.7590 cp        1 DSV     -0.090000
     10 CY1         4.3610    0.5540    4.5100 ca        1 DSV     -0.106000
     11 CZ1         4.0040    0.1720    5.7950 ca        1 DSV     -0.094000
     12 CZ2         2.7170   -0.3200    6.0720 ca        1 DSV     -0.139000
     13 CY2         1.7730   -0.4350    5.0620 ca        1 DSV     -0.071000
     14 S21        -0.6220   -0.0300   -1.4170 sy        1 DSV      1.464200
     15 O22         0.1670   -0.5090   -2.4540 o         1 DSV     -0.604300
     16 O23        -1.9420   -0.4900   -1.3540 o         1 DSV     -0.604300
     17 N24        -0.8810    1.7440   -1.7450 ny        1 DSV     -0.714900
     18 C10         0.2120    2.3920   -2.5330 c3        1 DSV     -0.060500
     19 CBC        -0.2750    3.4940   -3.4790 c3        1 DSV     -0.064700
     20 CC1        -1.4250    3.0520   -4.3590 c3        1 DSV     -0.104100
     21 CC2         0.8950    3.9330   -4.3410 c3        1 DSV     -0.104100
     22 C37         1.2370    3.0400   -1.4920 c         1 DSV      0.911600
     23 O39         2.4470    2.8600   -1.7350 o         1 DSV     -0.770300
     24 O40         0.7010    3.6010   -0.5020 o         1 DSV     -0.770300
     25 H2          2.0080    0.8260   -0.6820 ha        1 DSV      0.199000
     26 H5         -0.5920   -0.8480    3.2910 ha        1 DSV      0.152000
     27 H6         -1.6620   -0.7540    1.0440 ha        1 DSV      0.158000
     28 HY1         5.3690    0.9420    4.3000 ha        1 DSV      0.148000
     29 HZ1         4.7360    0.2560    6.6130 ha        1 DSV      0.141000
     30 HZ2         2.4610   -0.6130    7.1010 ha        1 DSV      0.140000
     31 HY2         0.7630   -0.8170    5.2730 ha        1 DSV      0.138000
     32 HN24       -1.7730    1.8850   -2.2180 hn        1 DSV      0.461800
     33 HC1        -2.3940    3.0400   -3.8020 hc        1 DSV      0.044867
     34 HC1A       -1.2370    2.0360   -4.7830 hc        1 DSV      0.044867
     35 HC1B       -1.5430    3.7660   -5.2110 hc        1 DSV      0.044867
     36 HBC        -0.6050    4.3700   -2.8500 hc        1 DSV      0.074700
     37 HC2         1.7910    4.1450   -3.7040 hc        1 DSV      0.044867
     38 HC2A        1.1630    3.1340   -5.0740 hc        1 DSV      0.044867
     39 HC2B        0.6220    4.8580   -4.9040 hc        1 DSV      0.044867
     40 H10         0.7410    1.5960   -3.1310 hx        1 DSV      0.108700
     41 H242       -0.9220    2.2940   -0.8640 hn        1 DSV      0.461800
@<TRIPOS>BOND
     1    1    2 ar  
     2    1    6 ar  
     3    1   14 1   
     4    2    3 ar  
     5    2   25 1   
     6    3    4 ar  
     7    3    7 1   
     8    4    5 ar  
     9    4    9 1   
    10    5    6 ar  
    11    5   26 1   
    12    6   27 1   
    13    7    8 1   
    14    8    9 ar  
    15    8   10 ar  
    16    9   13 ar  
    17   10   11 ar  
    18   10   28 1   
    19   11   12 ar  
    20   11   29 1   
    21   12   13 ar  
    22   12   30 1   
    23   13   31 1   
    24   14   15 2   
    25   14   16 2   
    26   14   17 1   
    27   17   18 1   
    28   17   32 1   
    29   17   41 1   
    30   18   19 1   
    31   18   22 1   
    32   18   40 1   
    33   19   20 1   
    34   19   21 1   
    35   19   36 1   
    36   20   33 1   
    37   20   34 1   
    38   20   35 1   
    39   21   37 1   
    40   21   38 1   
    41   21   39 1   
    42   22   23 1   
    43   22   24 1   
@<TRIPOS>SUBSTRUCTURE
     1 DSV         1 TEMP              0 ****  ****    0 ROOT
