@<TRIPOS>MOLECULE
DSV
   40    33     1     0     0
SMALL
bcc


@<TRIPOS>ATOM
      1 C1          0.2550   -0.9070    0.0650 c1        1 DSV     -0.791000
      2 C2          1.6600   -0.8910    0.0520 c1        1 DSV      0.028000
      3 C3          2.3660   -0.7780    1.2440 c1        1 DSV     -0.308000
      4 C4          1.6550   -0.6780    2.4890 c1        1 DSV     -0.017000
      5 C5          0.2750   -0.6940    2.4980 c1        1 DSV     -0.135000
      6 C6         -0.4380   -0.8090    1.2850 c2        1 DSV     -0.040000
      7 S10         3.9130   -0.8020    1.5690 s         1 DSV      0.531000
      8 C11         4.0710   -0.7060    3.1350 c1        1 DSV     -0.287000
      9 C12         2.7530   -0.6310    3.7090 c1        1 DSV     -0.066000
     10 CY1         5.1940   -0.6280    3.9570 c1        1 DSV     -0.109000
     11 CZ1         5.0410   -0.4790    5.3300 c1        1 DSV     -0.123000
     12 CZ2         3.7460   -0.4050    5.8920 c1        1 DSV     -0.154000
     13 CY2         2.6020   -0.4840    5.0560 c2        1 DSV     -0.084000
     14 S21        -0.5890   -1.0300   -1.5250 s4        1 DSV      2.056800
     15 O22         0.3420   -1.2470   -2.5880 o         1 DSV     -0.564400
     16 O23        -1.3710   -2.2030   -1.6010 o         1 DSV     -0.564400
     17 N24        -1.5040    0.3140   -1.8000 n2        1 DSV     -0.880000
     18 C10        -1.9690    0.5990   -3.1300 c3        1 DSV     -0.054000
     19 CBC        -3.3540    1.2000   -3.0670 c3        1 DSV     -0.106000
     20 CC1        -3.7010    1.7890   -4.3970 c3        1 DSV     -0.206500
     21 CC2        -4.3740    0.1090   -2.7110 c3        1 DSV     -0.206500
     22 C37        -1.0190    1.5810   -3.8030 c2        1 DSV      0.324000
     23 O39        -0.6450    2.6700   -3.1720 o         1 DSV     -0.559500
     24 O40        -0.5620    1.3300   -4.9860 o         1 DSV     -0.559500
     25 H2          2.1260   -0.9550   -0.7700 ha        1 DSV      0.217000
     26 H5         -0.1850   -0.6430    3.3040 DU        1 DSV      0.124500
     27 H6         -1.4320   -0.8230    1.2950 ha        1 DSV      0.151000
     28 HY1         6.1120   -0.7510    3.5650 ha        1 DSV      0.134000
     29 HZ1         5.8430   -0.4260    5.9170 ha        1 DSV      0.122000
     30 HZ2         3.6370   -0.2960    6.8650 DU        1 DSV      0.124500
     31 HY2         1.7290   -0.3510    5.4270 ha        1 DSV      0.131000
     32 HN24       -1.6410    0.9280   -1.1200 hn        1 DSV      0.263000
     33 HC1        -4.6740    2.0220   -4.4140 hc        1 DSV      0.068000
     34 HC1A       -3.1720    2.5930   -4.5440 hc        1 DSV      0.068000
     35 HC1B       -3.5130    1.1560   -5.0830 hc        1 DSV      0.068000
     36 HBC        -3.3740    1.9150   -2.3730 hc        1 DSV      0.106000
     37 HC2        -4.2000   -0.2160   -1.8220 hc        1 DSV      0.068000
     38 HC2A       -4.3010   -0.6260   -3.3450 hc        1 DSV      0.068000
     39 HC2B       -5.3050    0.4960   -2.7510 hc        1 DSV      0.068000
     40 H10        -1.9990   -0.2450   -3.6550 h1        1 DSV      0.096000
@<TRIPOS>BOND
     1    1    6 1   
     2    1   14 1   
     3    2    3 1   
     4    2   25 1   
     5    4    5 1   
     6    5    6 1   
     7    6   27 1   
     8    7    8 1   
     9    8   10 1   
    10    9   13 1   
    11   10   28 1   
    12   11   12 1   
    13   11   29 1   
    14   12   13 1   
    15   13   31 1   
    16   14   15 1   
    17   14   16 1   
    18   17   18 1   
    19   17   32 1   
    20   18   19 1   
    21   18   22 1   
    22   18   40 1   
    23   19   20 1   
    24   19   21 1   
    25   19   36 1   
    26   20   33 1   
    27   20   34 1   
    28   20   35 1   
    29   21   37 1   
    30   21   38 1   
    31   21   39 1   
    32   22   23 1   
    33   22   24 1   
@<TRIPOS>SUBSTRUCTURE
     1 DSV         1 TEMP              0 ****  ****    0 ROOT
