@<TRIPOS>MOLECULE
DSV
   41    43     1     0     0
SMALL
bcc


@<TRIPOS>ATOM
      1 C1          0.1260   -0.0000    0.0130 ca        1 DSV     -0.500500
      2 C2          1.4470    0.4400    0.1840 ca        1 DSV      0.094000
      3 C3          2.0470    0.3930    1.4400 ca        1 DSV     -0.103100
      4 C4          2.1180   -0.0620    3.7580 cp        1 DSV     -0.090000
      5 C5         -0.0090   -0.5280    2.3980 ca        1 DSV     -0.116000
      6 C6         -0.5880   -0.4710    1.1480 ca        1 DSV     -0.033000
      7 S10         3.6090    0.8830    1.8660 ss        1 DSV      0.135200
      8 C11         3.4140    0.4630    3.4880 ca        1 DSV     -0.051100
      9 C12         1.3170   -0.0990    2.5610 cp        1 DSV      0.042000
     10 CY1         4.3440    0.5810    4.5270 ca        1 DSV     -0.106000
     11 CZ1         3.9860    0.1820    5.8070 ca        1 DSV     -0.094000
     12 CZ2         2.7070   -0.3350    6.0720 ca        1 DSV     -0.139000
     13 CY2         1.7710   -0.4590    5.0550 ca        1 DSV     -0.071000
     14 S21        -0.5910   -0.0450   -1.4360 sy        1 DSV      1.464200
     15 O22         0.2130   -0.5000   -2.4720 o         1 DSV     -0.604300
     16 O23        -1.9030   -0.5290   -1.3850 o         1 DSV     -0.604300
     17 N24        -0.8800    1.7280   -1.7500 n4        1 DSV     -0.714900
     18 C10         0.2060    2.4010   -2.5260 c3        1 DSV     -0.060500
     19 CBC        -0.2940    3.5020   -3.4660 c3        1 DSV     -0.064700
     20 CC1        -1.4310    3.0460   -4.3570 c3        1 DSV     -0.104100
     21 CC2         0.8730    3.9690   -4.3180 c3        1 DSV     -0.104100
     22 C37         1.2120    3.0600   -1.4730 c         1 DSV      0.911600
     23 O39         0.6600    3.6020   -0.4820 o         1 DSV     -0.770300
     24 O40         2.4270    2.9030   -1.7100 o         1 DSV     -0.770300
     25 H2          2.0190    0.8530   -0.6770 ha        1 DSV      0.199000
     26 H5         -0.5750   -0.9000    3.2660 ha        1 DSV      0.152000
     27 H6         -1.6320   -0.8080    1.0130 ha        1 DSV      0.158000
     28 HY1         5.3460    0.9890    4.3270 ha        1 DSV      0.148000
     29 HZ1         4.7120    0.2730    6.6300 ha        1 DSV      0.141000
     30 HZ2         2.4500   -0.6420    7.0960 ha        1 DSV      0.140000
     31 HY2         0.7670   -0.8610    5.2560 ha        1 DSV      0.138000
     32 HN24       -1.7720    1.8560   -2.2280 hn        1 DSV      0.461800
     33 HC1        -1.2220    2.0380   -4.7890 hc        1 DSV      0.044867
     34 HC1A       -2.4030    3.0120   -3.8070 hc        1 DSV      0.044867
     35 HC1B       -1.5560    3.7650   -5.2050 hc        1 DSV      0.044867
     36 HBC        -0.6450    4.3670   -2.8330 hc        1 DSV      0.074700
     37 HC2         1.1600    3.1810   -5.0550 hc        1 DSV      0.044867
     38 HC2A        0.5860    4.8930   -4.8750 hc        1 DSV      0.044867
     39 HC2B        1.7600    4.1930   -3.6730 hc        1 DSV      0.044867
     40 H10         0.7530    1.6200   -3.1280 hx        1 DSV      0.108700
     41 H242       -0.9360    2.2690   -0.8650 hn        1 DSV      0.461800
@<TRIPOS>BOND
     1    1    2 ar  
     2    1    6 ar  
     3    1   14 1   
     4    2    3 ar  
     5    2   25 1   
     6    3    7 1   
     7    3    9 ar  
     8    4    8 ar  
     9    4    9 1   
    10    4   13 ar  
    11    5    6 ar  
    12    5    9 ar  
    13    5   26 1   
    14    6   27 1   
    15    7    8 1   
    16    8   10 ar  
    17   10   11 ar  
    18   10   28 1   
    19   11   12 ar  
    20   11   29 1   
    21   12   13 ar  
    22   12   30 1   
    23   13   31 1   
    24   14   15 2   
    25   14   16 2   
    26   14   17 1   
    27   17   18 1   
    28   17   32 1   
    29   17   41 1   
    30   18   19 1   
    31   18   22 1   
    32   18   40 1   
    33   19   20 1   
    34   19   21 1   
    35   19   36 1   
    36   20   33 1   
    37   20   34 1   
    38   20   35 1   
    39   21   37 1   
    40   21   38 1   
    41   21   39 1   
    42   22   23 1   
    43   22   24 1   
@<TRIPOS>SUBSTRUCTURE
     1 DSV         1 TEMP              0 ****  ****    0 ROOT
