@<TRIPOS>MOLECULE
DSX
   66    67     1     0     0
SMALL
bcc


@<TRIPOS>ATOM
      1 C1          2.0960   -1.7580    0.1380 ca        1 DSX     -0.065000
      2 C2          3.4310   -1.4080    0.3620 ca        1 DSX     -0.105500
      3 C3          3.8190   -0.8830    1.5920 ca        1 DSX     -0.126000
      4 C4          2.8690   -0.7000    2.6110 ca        1 DSX     -0.215300
      5 C5          1.5320   -1.0490    2.3810 ca        1 DSX     -0.126000
      6 C6          1.1480   -1.5740    1.1470 ca        1 DSX     -0.105500
      7 C10         3.3070   -0.2620    3.9590 c3        1 DSX     -0.041100
      8 C13         3.1130    1.2630    4.1670 c3        1 DSX      0.047500
      9 C14         3.8440    1.7000    5.4430 c         1 DSX      0.511100
     10 O15         4.7410    2.5300    5.4800 o         1 DSX     -0.384100
     11 N16         3.4190    1.0400    6.7170 n4        1 DSX     -0.649800
     12 C17         4.1960    1.5020    7.9040 c3        1 DSX      0.078100
     13 N18         3.5900    2.0430    2.9760 n4        1 DSX     -0.693800
     14 C19         2.9240    3.3990    2.7630 c         1 DSX      0.562100
     15 O20         1.9990    3.6650    3.5100 o         1 DSX     -0.413100
     16 C21         3.5630    4.2500    1.6810 c3        1 DSX     -0.121700
     17 C22         4.8970    4.7820    2.2310 c3        1 DSX     -0.101400
     18 C23         6.1110    4.3600    1.4090 c3        1 DSX     -0.083700
     19 C24         7.3200    5.1510    1.8760 c3        1 DSX     -0.107100
     20 C25         6.3990    2.8790    1.5030 c3        1 DSX     -0.107100
     21 C27         2.6110    5.3950    1.2750 c3        1 DSX     -0.108700
     22 C28         1.2640    4.9010    0.7760 c3        1 DSX     -0.166300
     23 S29         0.1130    6.2500    0.5680 ss        1 DSX      0.106000
     24 C30        -0.6260    6.0070   -0.8720 cc        1 DSX     -0.339200
     25 S31        -2.2190    5.5090   -1.0040 ss        1 DSX      0.294200
     26 C32        -2.2900    5.6770   -2.6200 cc        1 DSX     -0.132100
     27 C33        -1.0780    6.1220   -3.1610 cd        1 DSX     -0.146000
     28 C34        -0.1190    6.3150   -2.1520 cd        1 DSX     -0.080000
     29 C35         3.2710    6.2060    0.1620 c         1 DSX      0.528100
     30 O36         4.2010    5.8460   -0.5400 o         1 DSX     -0.369100
     31 N37         2.6010    7.5320   -0.1050 n4        1 DSX     -0.526300
     32 O38         2.8820    7.8900   -1.3760 oh        1 DSX     -0.357300
     33 H1          1.7960   -2.2020   -0.8290 ha        1 DSX      0.184000
     34 H2          4.1840   -1.5790   -0.4270 ha        1 DSX      0.178000
     35 H3          4.8850   -0.6760    1.7800 ha        1 DSX      0.139000
     36 H5          0.7830   -0.9460    3.1820 ha        1 DSX      0.139000
     37 H6          0.0980   -1.8700    0.9780 ha        1 DSX      0.178000
     38 H101        2.6860   -0.7890    4.7350 hc        1 DSX      0.094200
     39 H102        4.3860   -0.5320    4.1210 hc        1 DSX      0.094200
     40 H13         2.0020    1.4800    4.2840 hx        1 DSX      0.161700
     41 HN6         2.4180    1.2330    6.8750 hn        1 DSX      0.484800
     42 H171        5.2880    1.2780    7.7540 hx        1 DSX      0.135700
     43 H172        4.0580    2.6100    8.0400 hx        1 DSX      0.135700
     44 H173        3.8140    0.9530    8.8120 hx        1 DSX      0.135700
     45 HN8         3.4100    1.4530    2.1330 hn        1 DSX      0.498300
     46 H21         3.7560    3.6190    0.7630 hc        1 DSX      0.131700
     47 H221        4.8590    5.9060    2.2420 hc        1 DSX      0.070700
     48 H222        5.0460    4.4680    3.2990 hc        1 DSX      0.070700
     49 H23         5.9200    4.6170    0.3260 hc        1 DSX      0.091700
     50 H241        7.1440    6.2480    1.7580 hc        1 DSX      0.052867
     51 H242        8.2140    4.8750    1.2640 hc        1 DSX      0.052867
     52 H243        7.5460    4.9380    2.9490 hc        1 DSX      0.052867
     53 H251        7.3330    2.6450    0.9280 hc        1 DSX      0.052867
     54 H252        5.5730    2.2720    1.0570 hc        1 DSX      0.052867
     55 H253        6.5730    2.5670    2.5630 hc        1 DSX      0.052867
     56 H27         2.4540    6.0520    2.1810 hc        1 DSX      0.114700
     57 H281        0.8110    4.2190    1.5400 h1        1 DSX      0.110200
     58 H282        1.3750    4.3210   -0.1740 h1        1 DSX      0.110200
     59 H32        -3.1830    5.4790   -3.2280 h4        1 DSX      0.221000
     60 H33        -0.9020    6.3040   -4.2270 ha        1 DSX      0.198000
     61 H34         0.8980    6.6670   -2.3490 ha        1 DSX      0.153000
     62 HN7         2.9580    8.2260    0.5700 hn        1 DSX      0.466800
     63 HO8         2.6170    8.8300   -1.5040 ho        1 DSX      0.480000
     64 H162        3.5380    0.0190    6.6150 hn        1 DSX      0.484800
     65 H182        4.6130    2.1970    3.0360 hn        1 DSX      0.498300
     66 H372        1.4510    7.3410    0.0320 hn        1 DSX      0.466800
@<TRIPOS>BOND
     1    1    2 ar  
     2    1    6 ar  
     3    1   33 1   
     4    2    3 ar  
     5    2   34 1   
     6    3    4 ar  
     7    3   35 1   
     8    4    5 ar  
     9    4    7 1   
    10    5    6 ar  
    11    5   36 1   
    12    6   37 1   
    13    7    8 1   
    14    7   38 1   
    15    7   39 1   
    16    8    9 1   
    17    8   13 1   
    18    8   40 1   
    19    9   10 2   
    20    9   11 1   
    21   11   12 1   
    22   11   41 1   
    23   11   64 1   
    24   12   42 1   
    25   12   43 1   
    26   12   44 1   
    27   13   14 1   
    28   13   45 1   
    29   13   65 1   
    30   14   15 2   
    31   14   16 1   
    32   16   17 1   
    33   16   21 1   
    34   16   46 1   
    35   17   18 1   
    36   17   47 1   
    37   17   48 1   
    38   18   19 1   
    39   18   20 1   
    40   18   49 1   
    41   19   50 1   
    42   19   51 1   
    43   19   52 1   
    44   20   53 1   
    45   20   54 1   
    46   20   55 1   
    47   21   22 1   
    48   21   29 1   
    49   21   56 1   
    50   22   23 1   
    51   22   57 1   
    52   22   58 1   
    53   23   24 1   
    54   24   25 1   
    55   24   28 2   
    56   25   26 1   
    57   26   27 2   
    58   26   59 1   
    59   27   28 1   
    60   27   60 1   
    61   28   61 1   
    62   29   30 2   
    63   29   31 1   
    64   31   32 1   
    65   31   62 1   
    66   31   66 1   
    67   32   63 1   
@<TRIPOS>SUBSTRUCTURE
     1 DSX         1 TEMP              0 ****  ****    0 ROOT
