@<TRIPOS>MOLECULE
DSX
   63    64     1     0     0
SMALL
bcc


@<TRIPOS>ATOM
      1 C1         -3.5200   -1.8930   -2.5470 ca        1 DSX     -0.127000
      2 C2         -3.0500   -2.7960   -1.5950 ca        1 DSX     -0.126000
      3 C3         -3.1710   -2.5070   -0.2360 ca        1 DSX     -0.129000
      4 C4         -3.7670   -1.3110    0.1800 ca        1 DSX     -0.090300
      5 C5         -4.2400   -0.4100   -0.7810 ca        1 DSX     -0.129000
      6 C6         -4.1170   -0.7000   -2.1380 ca        1 DSX     -0.126000
      7 C10        -3.9060   -1.0070    1.6290 c3        1 DSX     -0.045100
      8 C13        -2.8710    0.0280    2.1030 c3        1 DSX      0.040700
      9 C14        -3.1110    0.2810    3.6170 c         1 DSX      0.639100
     10 O15        -3.8550   -0.4680    4.2810 o         1 DSX     -0.617100
     11 N16        -2.4750    1.3670    4.1640 n         1 DSX     -0.566900
     12 C17        -2.6190    1.7400    5.5350 c3        1 DSX      0.077300
     13 N18        -1.5130   -0.3790    1.8410 n         1 DSX     -0.555900
     14 C19        -0.5000    0.5280    1.6260 c         1 DSX      0.663100
     15 O20        -0.6870    1.7540    1.7880 o         1 DSX     -0.628100
     16 C21         0.8720   -0.0300    1.2360 c3        1 DSX     -0.125700
     17 C22         1.7060   -0.1410    2.5100 c3        1 DSX     -0.080400
     18 C23         2.6170   -1.3630    2.5160 c3        1 DSX     -0.079700
     19 C24         3.7680   -1.1460    3.4770 c3        1 DSX     -0.090100
     20 C25         1.8460   -2.6120    2.8920 c3        1 DSX     -0.090100
     21 C27         1.5020    0.8960    0.1870 c3        1 DSX     -0.115700
     22 C28         0.6600    0.9250   -1.0760 c3        1 DSX     -0.047300
     23 S29         1.0780    2.3180   -2.0840 ss        1 DSX     -0.123000
     24 C30         1.4430    1.6660   -3.5720 cc        1 DSX     -0.089200
     25 S31         0.8610    2.3830   -4.9780 ss        1 DSX      0.061200
     26 C32         1.6420    1.3290   -5.9940 cc        1 DSX     -0.172100
     27 C33         2.3480    0.3730   -5.2910 cd        1 DSX     -0.159000
     28 C34         2.2400    0.5740   -3.8840 cd        1 DSX     -0.130000
     29 C35         2.9010    0.3850   -0.1430 c         1 DSX      0.605100
     30 O36         3.0910   -0.6030   -0.8730 o         1 DSX     -0.574100
     31 N37         4.0050    1.1660    0.3100 n         1 DSX     -0.343400
     32 O38         5.1710    0.5170    0.3470 oh        1 DSX     -0.437100
     33 H1         -3.4240   -2.1220   -3.6190 ha        1 DSX      0.135000
     34 H2         -2.5840   -3.7400   -1.9140 ha        1 DSX      0.134500
     35 H3         -2.8080   -3.2280    0.5120 ha        1 DSX      0.131500
     36 H5         -4.7140    0.5300   -0.4600 ha        1 DSX      0.131500
     37 H6         -4.4910    0.0130   -2.8870 ha        1 DSX      0.134500
     38 H101       -3.8110   -1.9410    2.2450 hc        1 DSX      0.079200
     39 H102       -4.9230   -0.5800    1.8410 hc        1 DSX      0.079200
     40 H13        -3.0620    1.0040    1.5560 h1        1 DSX      0.085700
     41 HN6        -1.8960    1.9340    3.5850 hn        1 DSX      0.338500
     42 H171       -1.6150    1.7430    6.0390 h1        1 DSX      0.043700
     43 H172       -3.0580    2.7720    5.6090 h1        1 DSX      0.043700
     44 H173       -3.2940    1.0180    6.0680 h1        1 DSX      0.043700
     45 HN8        -1.3550   -1.3450    1.6760 hn        1 DSX      0.324500
     46 H21         0.7660   -1.0500    0.7680 hc        1 DSX      0.083700
     47 H221        2.3170    0.7910    2.6350 hc        1 DSX      0.054200
     48 H222        1.0270   -0.1980    3.4030 hc        1 DSX      0.054200
     49 H23         3.0440   -1.5060    1.4810 hc        1 DSX      0.063700
     50 H241        4.3980   -2.0660    3.5360 hc        1 DSX      0.037033
     51 H242        4.4100   -0.3010    3.1270 hc        1 DSX      0.037033
     52 H243        3.3880   -0.9080    4.5000 hc        1 DSX      0.037033
     53 H251        1.4700   -2.5430    3.9410 hc        1 DSX      0.037033
     54 H252        0.9730   -2.7550    2.2110 hc        1 DSX      0.037033
     55 H253        2.5070   -3.5090    2.8120 hc        1 DSX      0.037033
     56 H27         1.5420    1.9400    0.6150 hc        1 DSX      0.103700
     57 H281        0.7780   -0.0330   -1.6410 h1        1 DSX      0.092700
     58 H282       -0.4180    1.0390   -0.7950 h1        1 DSX      0.092700
     59 H32         1.5960    1.4010   -7.0800 h4        1 DSX      0.171000
     60 H33         2.9310   -0.4360   -5.7350 ha        1 DSX      0.154000
     61 H34         2.7350   -0.0670   -3.1450 ha        1 DSX      0.173000
     62 HN7         3.8500    1.5800    1.2230 hn        1 DSX      0.301500
     63 HO8         5.4740    0.4630   -0.5820 ho        1 DSX      0.437000
@<TRIPOS>BOND
     1    1    2 ar  
     2    1    6 ar  
     3    1   33 1   
     4    2    3 ar  
     5    2   34 1   
     6    3    4 ar  
     7    3   35 1   
     8    4    5 ar  
     9    4    7 1   
    10    5    6 ar  
    11    5   36 1   
    12    6   37 1   
    13    7    8 1   
    14    7   38 1   
    15    7   39 1   
    16    8    9 1   
    17    8   13 1   
    18    8   40 1   
    19    9   10 2   
    20    9   11 1   
    21   11   12 1   
    22   11   41 1   
    23   12   42 1   
    24   12   43 1   
    25   12   44 1   
    26   13   14 1   
    27   13   45 1   
    28   14   15 2   
    29   14   16 1   
    30   16   17 1   
    31   16   21 1   
    32   16   46 1   
    33   17   18 1   
    34   17   47 1   
    35   17   48 1   
    36   18   19 1   
    37   18   20 1   
    38   18   49 1   
    39   19   50 1   
    40   19   51 1   
    41   19   52 1   
    42   20   53 1   
    43   20   54 1   
    44   20   55 1   
    45   21   22 1   
    46   21   29 1   
    47   21   56 1   
    48   22   23 1   
    49   22   57 1   
    50   22   58 1   
    51   23   24 1   
    52   24   25 1   
    53   24   28 2   
    54   25   26 1   
    55   26   27 2   
    56   26   59 1   
    57   27   28 1   
    58   27   60 1   
    59   28   61 1   
    60   29   30 2   
    61   29   31 1   
    62   31   32 1   
    63   31   62 1   
    64   32   63 1   
@<TRIPOS>SUBSTRUCTURE
     1 DSX         1 TEMP              0 ****  ****    0 ROOT
