@<TRIPOS>MOLECULE
DSX
   66    67     1     0     0
SMALL
bcc


@<TRIPOS>ATOM
      1 C1          2.0250   -1.7840    0.2220 ca        1 DSX     -0.065000
      2 C2          3.3650   -1.4490    0.4380 ca        1 DSX     -0.105500
      3 C3          3.7610   -0.9030    1.6560 ca        1 DSX     -0.125500
      4 C4          2.8140   -0.6830    2.6700 ca        1 DSX     -0.215300
      5 C5          1.4720   -1.0180    2.4480 ca        1 DSX     -0.125500
      6 C6          1.0800   -1.5630    1.2260 ca        1 DSX     -0.105500
      7 C10         3.2590   -0.2220    4.0090 c3        1 DSX     -0.041100
      8 C13         3.0870    1.3090    4.1830 c3        1 DSX      0.047500
      9 C14         3.8220    1.7630    5.4510 c         1 DSX      0.511100
     10 O15         4.7320    2.5790    5.4710 o         1 DSX     -0.384100
     11 N16         3.3850    1.1390    6.7390 ny        1 DSX     -0.649800
     12 C17         4.1650    1.6170    7.9170 c3        1 DSX      0.078100
     13 N18         3.5780    2.0560    2.9760 ny        1 DSX     -0.693800
     14 C19         2.9370    3.4190    2.7370 c         1 DSX      0.561100
     15 O20         2.0110    3.7120    3.4730 o         1 DSX     -0.413100
     16 C21         3.5950    4.2440    1.6460 c3        1 DSX     -0.120700
     17 C22         4.9350    4.7580    2.1950 c3        1 DSX     -0.101400
     18 C23         6.1450    4.3050    1.3830 c3        1 DSX     -0.082700
     19 C24         7.3670    5.0790    1.8470 c3        1 DSX     -0.107100
     20 C25         6.4050    2.8200    1.4970 c3        1 DSX     -0.107100
     21 C27         2.6630    5.3980    1.2230 c3        1 DSX     -0.104700
     22 C28         1.3150    4.9170    0.7100 c3        1 DSX     -0.175300
     23 S29         0.1670    6.2750    0.5350 ss        1 DSX      0.139000
     24 C30        -0.6440    6.0270   -0.8610 cc        1 DSX     -0.346200
     25 S31        -2.2130    5.4420   -0.9220 ss        1 DSX      0.279200
     26 C32        -2.3920    5.6740   -2.5230 cc        1 DSX     -0.124100
     27 C33        -1.2440    6.2180   -3.1120 cd        1 DSX     -0.149000
     28 C34        -0.2380    6.4230   -2.1540 cd        1 DSX     -0.065000
     29 C35         3.3340    6.2070    0.1200 c         1 DSX      0.507100
     30 O36         4.2920    5.8640   -0.5610 o         1 DSX     -0.412100
     31 N37         2.6610    7.5040   -0.2090 ny        1 DSX     -0.529300
     32 O38         2.8170    7.8670   -1.4900 oh        1 DSX     -0.348300
     33 H1          1.7190   -2.2450   -0.7350 ha        1 DSX      0.184000
     34 H2          4.1150   -1.6490   -0.3470 ha        1 DSX      0.178000
     35 H3          4.8300   -0.7080    1.8390 ha        1 DSX      0.138500
     36 H5          0.7250   -0.8850    3.2460 ha        1 DSX      0.138500
     37 H6          0.0260   -1.8480    1.0640 ha        1 DSX      0.178000
     38 H101        4.3340   -0.5050    4.1770 hc        1 DSX      0.094200
     39 H102        2.6300   -0.7230    4.7960 hc        1 DSX      0.094200
     40 H13         1.9800    1.5450    4.2940 hx        1 DSX      0.161700
     41 HN6         3.4890    0.1140    6.6600 hn        1 DSX      0.484800
     42 H171        3.7730    1.0950    8.8360 hx        1 DSX      0.136033
     43 H172        5.2540    1.3740    7.7750 hx        1 DSX      0.136033
     44 H173        4.0440    2.7290    8.0270 hx        1 DSX      0.136033
     45 HN8         3.3860    1.4520    2.1460 hn        1 DSX      0.498300
     46 H21         3.7800    3.5970    0.7370 hc        1 DSX      0.130700
     47 H221        5.0750    4.4560    3.2670 hc        1 DSX      0.070700
     48 H222        4.9180    5.8830    2.1920 hc        1 DSX      0.070700
     49 H23         5.9620    4.5510    0.2960 hc        1 DSX      0.089700
     50 H241        8.2580    4.7790    1.2410 hc        1 DSX      0.052700
     51 H242        7.5850    4.8730    2.9220 hc        1 DSX      0.052700
     52 H243        7.2110    6.1770    1.7160 hc        1 DSX      0.052700
     53 H251        6.5720    2.5180    2.5610 hc        1 DSX      0.052700
     54 H252        5.5690    2.2230    1.0570 hc        1 DSX      0.052700
     55 H253        7.3360    2.5610    0.9270 hc        1 DSX      0.052700
     56 H27         2.5010    6.0600    2.1250 hc        1 DSX      0.117700
     57 H281        1.4270    4.3570   -0.2530 h1        1 DSX      0.109200
     58 H282        0.8610    4.2170    1.4570 h1        1 DSX      0.109200
     59 H32        -3.3080    5.4490   -3.0860 h4        1 DSX      0.221000
     60 H33        -1.1470    6.4630   -4.1760 ha        1 DSX      0.199000
     61 H34         0.7390    6.8560   -2.3920 ha        1 DSX      0.161000
     62 HN7         1.4780    7.3190   -0.0640 hn        1 DSX      0.481300
     63 HO8         3.7760    7.9410   -1.7100 ho        1 DSX      0.474000
     64 H162        2.3860    1.3500    6.8890 hn        1 DSX      0.484800
     65 H182        4.6040    2.1920    3.0330 hn        1 DSX      0.498300
     66 H372        2.9880    8.2470    0.4290 hn        1 DSX      0.481300
@<TRIPOS>BOND
     1    1    2 ar  
     2    1    6 ar  
     3    1   33 1   
     4    2    3 ar  
     5    2   34 1   
     6    3    4 ar  
     7    3   35 1   
     8    4    5 ar  
     9    4    7 1   
    10    5    6 ar  
    11    5   36 1   
    12    6   37 1   
    13    7    8 1   
    14    7   38 1   
    15    7   39 1   
    16    8    9 1   
    17    8   13 1   
    18    8   40 1   
    19    9   10 2   
    20    9   11 1   
    21   11   12 1   
    22   11   41 1   
    23   11   64 1   
    24   12   42 1   
    25   12   43 1   
    26   12   44 1   
    27   13   14 1   
    28   13   45 1   
    29   13   65 1   
    30   14   15 2   
    31   14   16 1   
    32   16   17 1   
    33   16   21 1   
    34   16   46 1   
    35   17   18 1   
    36   17   47 1   
    37   17   48 1   
    38   18   19 1   
    39   18   20 1   
    40   18   49 1   
    41   19   50 1   
    42   19   51 1   
    43   19   52 1   
    44   20   53 1   
    45   20   54 1   
    46   20   55 1   
    47   21   22 1   
    48   21   29 1   
    49   21   56 1   
    50   22   23 1   
    51   22   57 1   
    52   22   58 1   
    53   23   24 1   
    54   24   25 1   
    55   24   28 2   
    56   25   26 1   
    57   26   27 2   
    58   26   59 1   
    59   27   28 1   
    60   27   60 1   
    61   28   61 1   
    62   29   30 2   
    63   29   31 1   
    64   31   32 1   
    65   31   62 1   
    66   31   66 1   
    67   32   63 1   
@<TRIPOS>SUBSTRUCTURE
     1 DSX         1 TEMP              0 ****  ****    0 ROOT
