@<TRIPOS>MOLECULE
DSX
   66    67     1     0     0
SMALL
bcc


@<TRIPOS>ATOM
      1 C1          1.8020   -1.8980    0.4520 ca        1 DSX     -0.065000
      2 C2          3.1550   -1.5680    0.5740 ca        1 DSX     -0.106000
      3 C3          3.6290   -0.9800    1.7440 ca        1 DSX     -0.125000
      4 C4          2.7470   -0.7130    2.8040 ca        1 DSX     -0.215300
      5 C5          1.3910   -1.0420    2.6770 ca        1 DSX     -0.125000
      6 C6          0.9220   -1.6300    1.5030 ca        1 DSX     -0.106000
      7 C10         3.2760   -0.2030    4.0940 c3        1 DSX     -0.041100
      8 C13         3.1150    1.3340    4.2200 c3        1 DSX      0.047500
      9 C14         3.9220    1.8340    5.4250 c         1 DSX      0.511100
     10 O15         4.8320    2.6480    5.3620 o         1 DSX     -0.384100
     11 N16         3.5590    1.2600    6.7580 n4        1 DSX     -0.650800
     12 C17         4.4020    1.7860    7.8720 c3        1 DSX      0.079100
     13 N18         3.5340    2.0340    2.9590 n4        1 DSX     -0.693800
     14 C19         2.8790    3.3890    2.7090 c         1 DSX      0.562100
     15 O20         1.9660    3.6900    3.4580 o         1 DSX     -0.411100
     16 C21         3.5050    4.1910    1.5850 c3        1 DSX     -0.121700
     17 C22         4.8800    4.6890    2.0580 c3        1 DSX     -0.106400
     18 C23         6.0310    4.2210    1.1740 c3        1 DSX     -0.081700
     19 C24         7.2890    4.9800    1.5570 c3        1 DSX     -0.106600
     20 C25         6.2780    2.7320    1.2760 c3        1 DSX     -0.106600
     21 C27         2.5810    5.3630    1.1990 c3        1 DSX     -0.105700
     22 C28         1.2120    4.9130    0.7130 c3        1 DSX     -0.159300
     23 S29         0.1320    6.2940    0.3740 ss        1 DSX      0.086000
     24 C30        -0.4950    6.0290   -1.1170 cc        1 DSX     -0.337200
     25 S31        -2.0920    5.5980   -1.3570 ss        1 DSX      0.311200
     26 C32        -2.0330    5.7070   -2.9770 cc        1 DSX     -0.140100
     27 C33        -0.7630    6.0780   -3.4370 cd        1 DSX     -0.142000
     28 C34         0.1220    6.2660   -2.3630 cd        1 DSX     -0.089000
     29 C35         3.2330    6.1690    0.0880 c         1 DSX      0.552100
     30 O36         4.0610    5.7960   -0.7250 o         1 DSX     -0.392100
     31 N37         2.6760    7.5710   -0.0700 n4        1 DSX     -0.525300
     32 O38         3.0970    8.3010    0.9850 oh        1 DSX     -0.380300
     33 H1          1.4340   -2.3910   -0.4660 ha        1 DSX      0.184000
     34 H2          3.8550   -1.8040   -0.2470 ha        1 DSX      0.178000
     35 H3          4.7070   -0.7870    1.8540 ha        1 DSX      0.139000
     36 H5          0.6950   -0.8720    3.5130 ha        1 DSX      0.139000
     37 H6         -0.1430   -1.9100    1.4160 ha        1 DSX      0.178000
     38 H101        4.3590   -0.4820    4.2050 hc        1 DSX      0.093700
     39 H102        2.6970   -0.6730    4.9370 hc        1 DSX      0.093700
     40 H13         2.0150    1.5750    4.3860 hx        1 DSX      0.162700
     41 HN6         3.6640    0.2330    6.7150 hn        1 DSX      0.484800
     42 H171        5.4820    1.5410    7.6790 hx        1 DSX      0.135700
     43 H172        4.2810    2.9020    7.9450 hx        1 DSX      0.135700
     44 H173        4.0640    1.3000    8.8310 hx        1 DSX      0.135700
     45 HN8         4.5610    2.1670    2.9490 hn        1 DSX      0.497300
     46 H21         3.6320    3.5320    0.6750 hc        1 DSX      0.128700
     47 H221        5.0780    4.3820    3.1200 hc        1 DSX      0.075200
     48 H222        4.8770    5.8150    2.0610 hc        1 DSX      0.075200
     49 H23         5.7830    4.4680    0.1010 hc        1 DSX      0.085700
     50 H241        7.5720    4.7740    2.6180 hc        1 DSX      0.052867
     51 H242        7.1390    6.0800    1.4340 hc        1 DSX      0.052867
     52 H243        8.1370    4.6680    0.8980 hc        1 DSX      0.052867
     53 H251        7.1630    2.4570    0.6440 hc        1 DSX      0.052867
     54 H252        6.5140    2.4330    2.3280 hc        1 DSX      0.052867
     55 H253        5.4040    2.1450    0.9010 hc        1 DSX      0.052867
     56 H27         2.4560    6.0250    2.1090 hc        1 DSX      0.131700
     57 H281        1.3020    4.2500   -0.1830 h1        1 DSX      0.111200
     58 H282        0.7120    4.3260    1.5270 h1        1 DSX      0.111200
     59 H32        -2.8850    5.5270   -3.6460 h4        1 DSX      0.222000
     60 H33        -0.4990    6.2110   -4.4920 ha        1 DSX      0.197000
     61 H34         1.1650    6.5630   -2.4940 ha        1 DSX      0.136000
     62 HN7         3.0060    7.9740   -0.9630 hn        1 DSX      0.475300
     63 HO8         2.8500    9.2430    0.8290 ho        1 DSX      0.490000
     64 H162        2.5700    1.4740    6.9560 hn        1 DSX      0.484800
     65 H182        3.2910    1.4010    2.1650 hn        1 DSX      0.497300
     66 H372        1.5250    7.4220   -0.0370 hn        1 DSX      0.475300
@<TRIPOS>BOND
     1    1    2 ar  
     2    1    6 ar  
     3    1   33 1   
     4    2    3 ar  
     5    2   34 1   
     6    3    4 ar  
     7    3   35 1   
     8    4    5 ar  
     9    4    7 1   
    10    5    6 ar  
    11    5   36 1   
    12    6   37 1   
    13    7    8 1   
    14    7   38 1   
    15    7   39 1   
    16    8    9 1   
    17    8   13 1   
    18    8   40 1   
    19    9   10 2   
    20    9   11 1   
    21   11   12 1   
    22   11   41 1   
    23   11   64 1   
    24   12   42 1   
    25   12   43 1   
    26   12   44 1   
    27   13   14 1   
    28   13   45 1   
    29   13   65 1   
    30   14   15 2   
    31   14   16 1   
    32   16   17 1   
    33   16   21 1   
    34   16   46 1   
    35   17   18 1   
    36   17   47 1   
    37   17   48 1   
    38   18   19 1   
    39   18   20 1   
    40   18   49 1   
    41   19   50 1   
    42   19   51 1   
    43   19   52 1   
    44   20   53 1   
    45   20   54 1   
    46   20   55 1   
    47   21   22 1   
    48   21   29 1   
    49   21   56 1   
    50   22   23 1   
    51   22   57 1   
    52   22   58 1   
    53   23   24 1   
    54   24   25 1   
    55   24   28 2   
    56   25   26 1   
    57   26   27 2   
    58   26   59 1   
    59   27   28 1   
    60   27   60 1   
    61   28   61 1   
    62   29   30 2   
    63   29   31 1   
    64   31   32 1   
    65   31   62 1   
    66   31   66 1   
    67   32   63 1   
@<TRIPOS>SUBSTRUCTURE
     1 DSX         1 TEMP              0 ****  ****    0 ROOT
