@<TRIPOS>MOLECULE
DSX
   63    58     1     0     0
SMALL
bcc


@<TRIPOS>ATOM
      1 C1         -2.3940   -6.6480    3.8540 c1        1 DSX     -0.129000
      2 C2         -1.6260   -6.8430    2.7250 c1        1 DSX     -0.129000
      3 C3         -0.9620   -5.7800    2.1470 c1        1 DSX     -0.129000
      4 C4         -1.0660   -4.5150    2.6980 c1        1 DSX     -0.088000
      5 C5         -1.8310   -4.3120    3.8240 c1        1 DSX     -0.114000
      6 C6         -2.4980   -5.3750    4.4070 c1        1 DSX     -0.129000
      7 C10        -0.1610   -3.3670    2.1620 c3        1 DSX     -0.125000
      8 C13        -0.9940   -2.4080    1.3380 c3        1 DSX      0.010000
      9 C14        -1.6360   -1.4020    2.2400 c2        1 DSX      0.280000
     10 O15        -0.9370   -0.5610    2.8260 o         1 DSX     -0.382000
     11 N16        -3.0560   -1.4790    2.5150 n         1 DSX     -0.372000
     12 C17        -3.6760   -0.4900    3.3280 c3        1 DSX     -0.079000
     13 N18        -0.1390   -1.7250    0.3830 n         1 DSX     -0.366000
     14 C19        -0.5620   -0.4550   -0.1960 c2        1 DSX      0.311000
     15 O20        -1.7810   -0.1340   -0.1830 o         1 DSX     -0.415000
     16 C21         0.4530    0.4270   -0.9380 c3        1 DSX     -0.107000
     17 C22         1.4090    1.1120    0.0970 c3        1 DSX     -0.177000
     18 C23         2.8420    1.2610   -0.5220 c3        1 DSX     -0.108000
     19 C24         3.5410    2.4870    0.0920 c3        1 DSX     -0.215000
     20 C25         3.6720   -0.0060   -0.2200 c3        1 DSX     -0.215000
     21 C27        -0.2750    1.4760   -1.7150 c3        1 DSX     -0.098000
     22 C28         0.4850    1.7700   -3.0310 c3        1 DSX     -0.303000
     23 S29        -0.3350    3.1340   -3.9130 ss        1 DSX      0.266000
     24 C30         0.8900    4.1120   -4.7500 c2        1 DSX     -0.606000
     25 S31         2.0230    4.9200   -4.0740 ss        1 DSX      0.638000
     26 C32         2.7530    5.7160   -5.1840 c1        1 DSX     -0.440000
     27 C33         2.1120    5.4150   -6.4400 c1        1 DSX     -0.173000
     28 C34         0.9260    4.3940   -6.1620 c1        1 DSX     -0.102000
     29 C35        -0.3620    2.7450   -0.8910 c2        1 DSX      0.248000
     30 O36         0.6570    3.3200   -0.5640 o         1 DSX     -0.340000
     31 N37        -1.6470    3.3870   -0.6810 n         1 DSX     -0.186000
     32 O38        -1.6930    4.6460   -0.1610 oh        1 DSX     -0.241000
     33 H1         -2.8810   -7.4270    4.2770 ha        1 DSX      0.131250
     34 H2         -1.5470   -7.7660    2.3190 ha        1 DSX      0.131250
     35 H3         -0.4030   -5.9240    1.3260 ha        1 DSX      0.131250
     36 H5         -1.9050   -3.3760    4.2290 ha        1 DSX      0.157000
     37 H6         -3.0440   -5.2300    5.2110 ha        1 DSX      0.131250
     38 H101        0.2340   -2.8920    2.9080 hc        1 DSX      0.108500
     39 H102        0.5310   -3.7360    1.6180 hc        1 DSX      0.108500
     40 H13        -1.6820   -2.9040    0.8610 h1        1 DSX      0.137000
     41 HN6        -3.5570   -2.1870    2.1810 hn        1 DSX      0.248000
     42 H171       -3.0180   -0.1600    4.0100 h1        1 DSX      0.085333
     43 H172       -4.4590   -0.8820    3.7890 h1        1 DSX      0.085333
     44 H173       -3.9710    0.2660    2.7620 h1        1 DSX      0.085333
     45 HN8         0.6090   -2.1280    0.0840 hn        1 DSX      0.240000
     46 H21         0.9910   -0.1410   -1.5680 hc        1 DSX      0.124000
     47 H221        1.4590    0.5620    0.9120 hc        1 DSX      0.112500
     48 H222        1.0570    2.0080    0.3260 hc        1 DSX      0.112500
     49 H23         2.7660    1.3820   -1.5070 hc        1 DSX      0.087000
     50 H241        2.9700    3.2700   -0.0030 hc        1 DSX      0.077667
     51 H242        4.3840    2.6430   -0.3680 hc        1 DSX      0.077667
     52 H243        3.7150    2.3220    1.0510 hc        1 DSX      0.077667
     53 H251        3.3390   -0.7560   -0.7680 hc        1 DSX      0.077667
     54 H252        3.5920   -0.2320    0.7240 hc        1 DSX      0.077667
     55 H253        4.6310    0.1660   -0.4410 hc        1 DSX      0.077667
     56 H27        -1.1510    1.1680   -1.9180 hc        1 DSX      0.136000
     57 H281        0.4850    0.9500   -3.6070 h1        1 DSX      0.121000
     58 H282        1.3870    2.0170   -2.8300 h1        1 DSX      0.121000
     59 H32         3.5010    6.3070   -5.0580 DU        1 DSX      0.160667
     60 H33         2.3550    5.7650   -7.2850 DU        1 DSX      0.160667
     61 H34         0.3380    4.0300   -6.8190 DU        1 DSX      0.160667
     62 HN7        -2.4040    2.9950   -0.9810 hn        1 DSX      0.244000
     63 HO8        -2.4580    5.0690   -0.4480 ho        1 DSX      0.230000
@<TRIPOS>BOND
     1    1    6 1   
     2    1   33 1   
     3    2    3 1   
     4    2   34 1   
     5    3   35 1   
     6    4    5 1   
     7    4    7 1   
     8    5   36 1   
     9    6   37 1   
    10    7    8 1   
    11    7   38 1   
    12    7   39 1   
    13    8    9 1   
    14    8   13 1   
    15    8   40 1   
    16    9   10 1   
    17    9   11 1   
    18   11   12 1   
    19   11   41 1   
    20   12   42 1   
    21   12   43 1   
    22   12   44 1   
    23   13   14 1   
    24   13   45 1   
    25   14   15 1   
    26   14   16 1   
    27   16   17 1   
    28   16   21 1   
    29   16   46 1   
    30   17   18 1   
    31   17   47 1   
    32   17   48 1   
    33   18   19 1   
    34   18   20 1   
    35   18   49 1   
    36   19   50 1   
    37   19   51 1   
    38   19   52 1   
    39   20   53 1   
    40   20   54 1   
    41   20   55 1   
    42   21   22 1   
    43   21   29 1   
    44   21   56 1   
    45   22   23 1   
    46   22   57 1   
    47   22   58 1   
    48   23   24 1   
    49   24   25 1   
    50   24   28 1   
    51   25   26 1   
    52   26   27 1   
    53   27   28 1   
    54   29   30 1   
    55   29   31 1   
    56   31   32 1   
    57   31   62 1   
    58   32   63 1   
@<TRIPOS>SUBSTRUCTURE
     1 DSX         1 TEMP              0 ****  ****    0 ROOT
