@<TRIPOS>MOLECULE
DSY
   30    31     1     0     0
SMALL
bcc


@<TRIPOS>ATOM
      1 C1         -0.0060    0.0230   -0.0360 ca        1 DSY     -0.017000
      2 C2          1.3630    0.0170   -0.0620 ca        1 DSY     -0.204500
      3 C3          2.0780   -0.0160    1.1520 ca        1 DSY      0.035000
      4 C4          1.4260   -0.0180    2.3670 ca        1 DSY     -0.238000
      5 C4A         0.0090    0.0110    2.4250 ca        1 DSY      0.010000
      6 C5         -0.7570    0.0270    3.6350 ca        1 DSY     -0.082400
      7 C6         -2.1480    0.0330    3.6190 ca        1 DSY     -0.085000
      8 C7         -2.8340    0.0320    2.3960 ca        1 DSY     -0.170000
      9 C8         -2.1340    0.0290    1.2080 ca        1 DSY     -0.030000
     10 C8A        -0.7200    0.0210    1.1970 ca        1 DSY     -0.060000
     11 N          -0.0560    0.0390    4.9340 n4        1 DSY     -0.541800
     12 CM1        -0.3890    1.2600    5.7130 c3        1 DSY      0.090100
     13 CM2        -0.3450   -1.1940    5.7110 c3        1 DSY      0.090100
     14 S           2.2850    0.0460   -1.6440 s6        1 DSY      1.464100
     15 O1S         2.5200    1.4130   -1.8380 o         1 DSY     -0.726533
     16 O2S         3.4230   -0.7130   -1.3310 o         1 DSY     -0.726533
     17 O3S         1.3730   -0.5390   -2.5350 o         1 DSY     -0.726533
     18 H1         -0.5730    0.0180   -0.9850 ha        1 DSY      0.173000
     19 H3          3.1830   -0.0570    1.1020 ha        1 DSY      0.172000
     20 H4          2.0460   -0.0510    3.2730 ha        1 DSY      0.097000
     21 H6         -2.7360    0.0390    4.5510 ha        1 DSY      0.128000
     22 H7         -3.9350    0.0360    2.4010 ha        1 DSY      0.151000
     23 H8         -2.6680    0.0330    0.2420 ha        1 DSY      0.160000
     24 HM11       -0.1530    2.1650    5.0910 hx        1 DSY      0.096367
     25 HM12        0.2180    1.2710    6.6560 hx        1 DSY      0.096367
     26 HM13       -1.4820    1.2610    5.9660 hx        1 DSY      0.096367
     27 HM21       -0.0580   -2.0880    5.0930 hx        1 DSY      0.096367
     28 HM22       -1.4400   -1.2440    5.9450 hx        1 DSY      0.096367
     29 HM23        0.2480   -1.1770    6.6630 hx        1 DSY      0.096367
     30 HN1         0.9580    0.0600    4.7440 hn        1 DSY      0.459800
@<TRIPOS>BOND
     1    1    2 ar  
     2    1   10 ar  
     3    1   18 1   
     4    2    3 ar  
     5    2   14 1   
     6    3    4 ar  
     7    3   19 1   
     8    4    5 ar  
     9    4   20 1   
    10    5    6 ar  
    11    5   10 ar  
    12    6    7 ar  
    13    6   11 1   
    14    7    8 ar  
    15    7   21 1   
    16    8    9 ar  
    17    8   22 1   
    18    9   10 ar  
    19    9   23 1   
    20   11   12 1   
    21   11   13 1   
    22   11   30 1   
    23   12   24 1   
    24   12   25 1   
    25   12   26 1   
    26   13   27 1   
    27   13   28 1   
    28   13   29 1   
    29   14   15 1   
    30   14   16 1   
    31   14   17 1   
@<TRIPOS>SUBSTRUCTURE
     1 DSY         1 TEMP              0 ****  ****    0 ROOT
