@<TRIPOS>MOLECULE
DSY
   29    24     1     0     0
SMALL
bcc


@<TRIPOS>ATOM
      1 C1          0.0380    0.0010   -2.5200 c1        1 DSY      0.017500
      2 C2          1.4270    0.0010   -2.5200 c1        1 DSY     -0.230400
      3 C3          2.1230    0.0010   -1.3160 c1        1 DSY     -0.076750
      4 C4          1.4300    0.0010   -0.1120 c1        1 DSY     -0.076750
      5 C4A         0.0220    0.0010   -0.1110 cg        1 DSY     -0.011000
      6 C5         -0.6820    0.0010    1.1080 c1        1 DSY      0.084800
      7 C6         -2.0700    0.0010    1.1080 c1        1 DSY     -0.076750
      8 C7         -2.7670    0.0010   -0.0970 c1        1 DSY     -0.076750
      9 C8         -2.0730    0.0010   -1.3000 c1        1 DSY     -0.056500
     10 C8A        -0.6660    0.0010   -1.3020 cg        1 DSY     -0.055000
     11 N          -0.4030   -0.0160    2.4980 n3        1 DSY     -0.608200
     12 CM1        -0.1520    1.2030    3.1890 c3        1 DSY      0.170600
     13 CM2        -0.3830   -1.2520    3.2050 c3        1 DSY      0.170600
     14 S           2.2740    0.0740   -4.0760 s4        1 DSY      1.630200
     15 O1S         3.5730   -0.6950   -4.0290 o         1 DSY     -0.675900
     16 O2S         2.5020    1.5110   -4.4810 os        1 DSY     -1.063000
     17 O3S         1.5240   -0.6840   -5.1450 o         1 DSY     -0.675900
     18 H1         -0.4500    0.0010   -3.3660 ha        1 DSY      0.090500
     19 H3          3.0990    0.0010   -1.3160 ha        1 DSY      0.068000
     20 H4          1.9180    0.0010    0.7320 ha        1 DSY      0.068000
     21 H6         -2.5580    0.0010    1.9530 ha        1 DSY      0.068000
     22 H7         -3.7430    0.0010   -0.0960 ha        1 DSY      0.068000
     23 H8         -2.5620   -0.0000   -2.1450 ha        1 DSY      0.070500
     24 HM11       -0.7480    1.2680    3.9600 h1        1 DSY      0.029867
     25 HM12        0.7750    1.2200    3.4920 h1        1 DSY      0.029867
     26 HM13       -0.3130    1.9560    2.5890 h1        1 DSY      0.029867
     27 HM21       -1.0800   -1.2470    3.8880 h1        1 DSY      0.029867
     28 HM22        0.4880   -1.3710    3.6290 h1        1 DSY      0.029867
     29 HM23       -0.5440   -1.9860    2.5810 h1        1 DSY      0.029867
@<TRIPOS>BOND
     1    1    2 3   
     2    1   18 1   
     3    2   14 1   
     4    3    4 3   
     5    3   19 1   
     6    4   20 1   
     7    5    6 3   
     8    5   10 1   
     9    6   11 1   
    10    7    8 3   
    11    7   21 1   
    12    8   22 1   
    13    9   10 3   
    14    9   23 1   
    15   11   12 1   
    16   11   13 1   
    17   12   24 1   
    18   12   25 1   
    19   12   26 1   
    20   13   27 1   
    21   13   28 1   
    22   13   29 1   
    23   14   15 1   
    24   14   17 1   
@<TRIPOS>SUBSTRUCTURE
     1 DSY         1 TEMP              0 ****  ****    0 ROOT
