@<TRIPOS>MOLECULE
DSY
   29    30     1     0     0
SMALL
bcc


@<TRIPOS>ATOM
      1 C1         -0.0220    0.0330   -0.0100 ca        1 DSY     -0.040000
      2 C2          1.3430    0.1700    0.0050 ca        1 DSY     -0.244500
      3 C3          2.0140    0.1420    1.2490 ca        1 DSY     -0.040000
      4 C4          1.3250    0.0170    2.4320 ca        1 DSY     -0.164000
      5 C4A        -0.0920   -0.0910    2.4410 ca        1 DSY     -0.011000
      6 C5         -0.8700   -0.1980    3.6530 ca        1 DSY      0.110600
      7 C6         -2.2470   -0.3540    3.5630 ca        1 DSY     -0.185000
      8 C7         -2.8970   -0.3990    2.3110 ca        1 DSY     -0.148000
      9 C8         -2.1810   -0.2670    1.1510 ca        1 DSY     -0.114000
     10 C8A        -0.7700   -0.1060    1.1930 ca        1 DSY     -0.055000
     11 N          -0.1910   -0.1800    4.9120 nh        1 DSY     -0.634000
     12 CM1         0.2950    1.1260    5.3020 c3        1 DSY      0.170600
     13 CM2        -0.8530   -0.8820    5.9840 c3        1 DSY      0.170600
     14 S           2.2720    0.3830   -1.5000 s6        1 DSY      1.459100
     15 O1S         3.5070   -0.2570   -1.2480 o         1 DSY     -0.743200
     16 O2S         2.3840    1.7820   -1.6570 o         1 DSY     -0.743200
     17 O3S         1.4830   -0.2380   -2.4940 o         1 DSY     -0.743200
     18 H1         -0.5590    0.0180   -0.9740 ha        1 DSY      0.148000
     19 H3          3.1150    0.2080    1.2420 ha        1 DSY      0.147000
     20 H4          1.8780   -0.0220    3.3820 ha        1 DSY      0.127000
     21 H6         -2.8670   -0.4450    4.4670 ha        1 DSY      0.114000
     22 H7         -3.9880   -0.5320    2.2880 ha        1 DSY      0.114000
     23 H8         -2.6780   -0.2870    0.1700 ha        1 DSY      0.128000
     24 HM11        0.7490    1.6390    4.4140 h1        1 DSY      0.029867
     25 HM12       -0.5130    1.7850    5.7240 h1        1 DSY      0.029867
     26 HM13        1.0830    0.9850    6.0880 h1        1 DSY      0.029867
     27 HM21       -0.1060   -1.0430    6.8050 h1        1 DSY      0.029867
     28 HM22       -1.2090   -1.8780    5.6130 h1        1 DSY      0.029867
     29 HM23       -1.7300   -0.3240    6.4150 h1        1 DSY      0.029867
@<TRIPOS>BOND
     1    1    2 ar  
     2    1   10 ar  
     3    1   18 1   
     4    2    3 ar  
     5    2   14 1   
     6    3    4 ar  
     7    3   19 1   
     8    4    5 ar  
     9    4   20 1   
    10    5    6 ar  
    11    5   10 ar  
    12    6    7 ar  
    13    6   11 1   
    14    7    8 ar  
    15    7   21 1   
    16    8    9 ar  
    17    8   22 1   
    18    9   10 ar  
    19    9   23 1   
    20   11   12 1   
    21   11   13 1   
    22   12   24 1   
    23   12   25 1   
    24   12   26 1   
    25   13   27 1   
    26   13   28 1   
    27   13   29 1   
    28   14   15 1   
    29   14   16 1   
    30   14   17 1   
@<TRIPOS>SUBSTRUCTURE
     1 DSY         1 TEMP              0 ****  ****    0 ROOT
