@<TRIPOS>MOLECULE
DSY
   29    30     1     0     0
SMALL
bcc


@<TRIPOS>ATOM
      1 C1         -0.0160    0.0450   -0.0090 ca        1 DSY     -0.040000
      2 C2          1.3500    0.1720    0.0100 ca        1 DSY     -0.244500
      3 C3          2.0180    0.1320    1.2540 ca        1 DSY     -0.040000
      4 C4          1.3250    0.0040    2.4350 ca        1 DSY     -0.164000
      5 C4A        -0.0930   -0.0930    2.4400 ca        1 DSY     -0.011000
      6 C5         -0.8740   -0.2020    3.6490 ca        1 DSY      0.110600
      7 C6         -2.2520   -0.3470    3.5560 ca        1 DSY     -0.185000
      8 C7         -2.9000   -0.3800    2.3020 ca        1 DSY     -0.148000
      9 C8         -2.1790   -0.2470    1.1440 ca        1 DSY     -0.114000
     10 C8A        -0.7670   -0.0960    1.1900 ca        1 DSY     -0.055000
     11 N          -0.1980   -0.1970    4.9100 nh        1 DSY     -0.634000
     12 CM1         0.2960    1.1030    5.3100 c3        1 DSY      0.170600
     13 CM2        -0.8680   -0.9010    5.9760 c3        1 DSY      0.170600
     14 S           2.2850    0.3880   -1.4920 s6        1 DSY      1.459100
     15 O1S         3.5130   -0.2660   -1.2420 o         1 DSY     -0.743200
     16 O2S         2.4100    1.7870   -1.6390 o         1 DSY     -0.743200
     17 O3S         1.4920   -0.2190   -2.4920 o         1 DSY     -0.743200
     18 H1         -0.5500    0.0400   -0.9750 ha        1 DSY      0.148000
     19 H3          3.1200    0.1900    1.2510 ha        1 DSY      0.147000
     20 H4          1.8760   -0.0440    3.3860 ha        1 DSY      0.127000
     21 H6         -2.8750   -0.4400    4.4580 ha        1 DSY      0.114000
     22 H7         -3.9920   -0.5060    2.2760 ha        1 DSY      0.114000
     23 H8         -2.6750   -0.2570    0.1620 ha        1 DSY      0.128000
     24 HM11        1.0810    0.9520    6.0970 h1        1 DSY      0.029867
     25 HM12        0.7560    1.6190    4.4260 h1        1 DSY      0.029867
     26 HM13       -0.5090    1.7660    5.7330 h1        1 DSY      0.029867
     27 HM21       -1.7420   -0.3390    6.4090 h1        1 DSY      0.029867
     28 HM22       -1.2300   -1.8920    5.5980 h1        1 DSY      0.029867
     29 HM23       -0.1230   -1.0730    6.7980 h1        1 DSY      0.029867
@<TRIPOS>BOND
     1    1    2 ar  
     2    1   10 ar  
     3    1   18 1   
     4    2    3 ar  
     5    2   14 1   
     6    3    4 ar  
     7    3   19 1   
     8    4    5 ar  
     9    4   20 1   
    10    5    6 ar  
    11    5   10 ar  
    12    6    7 ar  
    13    6   11 1   
    14    7    8 ar  
    15    7   21 1   
    16    8    9 ar  
    17    8   22 1   
    18    9   10 ar  
    19    9   23 1   
    20   11   12 1   
    21   11   13 1   
    22   12   24 1   
    23   12   25 1   
    24   12   26 1   
    25   13   27 1   
    26   13   28 1   
    27   13   29 1   
    28   14   15 1   
    29   14   16 1   
    30   14   17 1   
@<TRIPOS>SUBSTRUCTURE
     1 DSY         1 TEMP              0 ****  ****    0 ROOT
