@<TRIPOS>MOLECULE
DSY
   29    30     1     0     0
SMALL
bcc


@<TRIPOS>ATOM
      1 C1         -1.0820   -0.0280   -0.9030 ca        1 DSY     -0.040000
      2 C2          0.1300    0.1330   -1.5250 ca        1 DSY     -0.244500
      3 C3          1.2990    0.1680   -0.7320 ca        1 DSY     -0.039000
      4 C4          1.2410    0.0550    0.6370 ca        1 DSY     -0.164000
      5 C4A        -0.0060   -0.0990    1.3020 ca        1 DSY     -0.010000
      6 C5         -0.1290   -0.2040    2.7360 ca        1 DSY      0.109600
      7 C6         -1.3860   -0.3940    3.2970 ca        1 DSY     -0.185000
      8 C7         -2.5410   -0.4750    2.4900 ca        1 DSY     -0.148000
      9 C8         -2.4480   -0.3480    1.1290 ca        1 DSY     -0.113000
     10 C8A        -1.1830   -0.1560    0.5110 ca        1 DSY     -0.056000
     11 N           1.0560   -0.1480    3.5370 nh        1 DSY     -0.634000
     12 CM1         1.6210    1.1770    3.6640 c3        1 DSY      0.170600
     13 CM2         0.9900   -0.8590    4.7910 c3        1 DSY      0.170600
     14 S           0.2540    0.2860   -3.2950 s6        1 DSY      1.459100
     15 O1S         0.4890   -1.0270   -3.7580 o         1 DSY     -0.743533
     16 O2S         1.3460    1.1610   -3.4980 o         1 DSY     -0.743533
     17 O3S        -0.9970    0.8110   -3.6920 o         1 DSY     -0.743533
     18 H1         -2.0070   -0.0470   -1.5060 ha        1 DSY      0.148000
     19 H3          2.2670    0.3020   -1.2450 ha        1 DSY      0.146000
     20 H4          2.1720    0.0660    1.2230 ha        1 DSY      0.127000
     21 H6         -1.5120   -0.4850    4.3860 ha        1 DSY      0.114000
     22 H7         -3.5140   -0.6330    2.9770 ha        1 DSY      0.114000
     23 H8         -3.3430   -0.3960    0.4910 ha        1 DSY      0.128000
     24 HM11        2.6870    1.0730    3.9970 h1        1 DSY      0.029533
     25 HM12        1.5950    1.6940    2.6690 h1        1 DSY      0.029533
     26 HM13        1.0760    1.8150    4.4130 h1        1 DSY      0.029533
     27 HM21        0.5340   -1.8690    4.6230 h1        1 DSY      0.029533
     28 HM22        2.0380   -0.9890    5.1700 h1        1 DSY      0.029533
     29 HM23        0.3960   -0.3230    5.5830 h1        1 DSY      0.029533
@<TRIPOS>BOND
     1    1    2 ar  
     2    1   10 ar  
     3    1   18 1   
     4    2    3 ar  
     5    2   14 1   
     6    3    4 ar  
     7    3   19 1   
     8    4    5 ar  
     9    4   20 1   
    10    5    6 ar  
    11    5   10 ar  
    12    6    7 ar  
    13    6   11 1   
    14    7    8 ar  
    15    7   21 1   
    16    8    9 ar  
    17    8   22 1   
    18    9   10 ar  
    19    9   23 1   
    20   11   12 1   
    21   11   13 1   
    22   12   24 1   
    23   12   25 1   
    24   12   26 1   
    25   13   27 1   
    26   13   28 1   
    27   13   29 1   
    28   14   15 1   
    29   14   16 1   
    30   14   17 1   
@<TRIPOS>SUBSTRUCTURE
     1 DSY         1 TEMP              0 ****  ****    0 ROOT
