@<TRIPOS>MOLECULE
DSZ
   51    53     1     0     0
SMALL
bcc


@<TRIPOS>ATOM
      1 C          -0.5960   -0.5420    0.1170 c         1 DSZ      0.486100
      2 N           0.7110    0.7900   -1.5140 n3        1 DSZ     -0.904800
      3 O          -1.7250   -0.0850    0.0310 o         1 DSZ     -0.426100
      4 N1          0.0570    0.6810   -9.9080 nb        1 DSZ     -0.782000
      5 C2         -1.1370    0.9440   -9.3250 ca        1 DSZ      0.708900
      6 N3         -1.5230    0.8220   -8.0280 nb        1 DSZ     -0.771000
      7 C4         -0.5180    0.3640   -7.2280 ca        1 DSZ      0.467800
      8 C5          0.8210    0.0380   -7.7020 ca        1 DSZ     -0.240200
      9 C6          1.0790    0.2130   -9.1060 ca        1 DSZ      0.778200
     10 N6          2.3020   -0.0840   -9.6290 nh        1 DSZ     -0.943500
     11 N7          1.6200   -0.3910   -6.6310 nc        1 DSZ     -0.517100
     12 C8          0.8280   -0.3340   -5.5550 cd        1 DSZ      0.392700
     13 N9         -0.4970    0.0900   -5.8480 na        1 DSZ     -0.316000
     14 CA          0.7290    0.2180   -0.2130 c3        1 DSZ      0.187500
     15 CB          0.9250    1.2630    0.9000 c3        1 DSZ     -0.203400
     16 CG          1.2040    0.6140    2.2230 c         1 DSZ      0.653100
     17 C1'        -1.5400    0.4390   -4.9160 c3        1 DSZ      0.242800
     18 C2'        -2.9270   -0.2040   -5.2490 c3        1 DSZ      0.089100
     19 O2'        -3.9260    0.7450   -4.9460 oh        1 DSZ     -0.597800
     20 C3'        -3.0610   -1.3830   -4.2590 c3        1 DSZ      0.132100
     21 O3'        -4.3090   -1.4880   -3.6320 oh        1 DSZ     -0.573800
     22 C4'        -1.9400   -1.1560   -3.2160 c3        1 DSZ      0.072100
     23 O4'        -1.1850   -0.0020   -3.5910 os        1 DSZ     -0.433600
     24 C5'        -1.0180   -2.3700   -3.1320 c3        1 DSZ      0.161400
     25 O5'        -0.0920   -2.1650   -2.0600 os        1 DSZ     -0.591500
     26 NAT        -0.4850   -1.9770    0.5340 n4        1 DSZ     -0.653700
     27 OAX        -0.8270   -4.1240   -0.8080 o         1 DSZ     -0.557800
     28 OAY         1.4460   -3.2260   -0.5450 o         1 DSZ     -0.557800
     29 SBE         0.1060   -3.1300   -0.7710 s6        1 DSZ      1.630400
     30 OD1         1.7050    1.3400    3.2470 oh        1 DSZ     -0.524100
     31 OD2         1.0020   -0.5760    2.5020 o         1 DSZ     -0.565000
     32 HN          0.6780    0.1100   -2.2500 hn        1 DSZ      0.410800
     33 HNA         1.8530    2.2620    2.9780 ho        1 DSZ      0.452000
     34 HN6         2.4900    0.0530  -10.5920 hn        1 DSZ      0.458300
     35 HN6A        3.0260   -0.3870   -9.0240 hn        1 DSZ      0.458300
     36 HA          1.5860   -0.5230   -0.1640 h1        1 DSZ      0.105700
     37 HB          0.0150    1.9160    0.9980 hc        1 DSZ      0.120200
     38 HBA         1.7930    1.9240    0.6170 hc        1 DSZ      0.120200
     39 H1'        -1.6290    1.5660   -4.8370 h2        1 DSZ      0.116700
     40 H2'        -3.0010   -0.5630   -6.3080 h1        1 DSZ      0.112700
     41 HO2'       -4.2320    1.1230   -5.7810 ho        1 DSZ      0.446000
     42 H3'        -2.9210   -2.3620   -4.7970 h1        1 DSZ      0.097700
     43 HO3'       -4.6640   -0.5980   -3.4820 ho        1 DSZ      0.441000
     44 H4'        -2.3760   -0.9160   -2.2060 h1        1 DSZ      0.085700
     45 H5'        -1.6100   -3.3080   -2.9580 h1        1 DSZ      0.100700
     46 H5'A       -0.3730   -2.4570   -4.0520 h1        1 DSZ      0.100700
     47 HNAT       -1.3940   -2.2840    0.8980 hn        1 DSZ      0.494800
     48 H8          1.1210   -0.5780   -4.5270 h5        1 DSZ      0.066800
     49 HN3         0.0230    1.5030   -1.6420 hn        1 DSZ      0.410800
     50 HAT2        0.1740   -1.9810    1.3360 hn        1 DSZ      0.494800
     51 H2         -1.9210    1.3210  -10.0200 h5        1 DSZ      0.063100
@<TRIPOS>BOND
     1    1    3 2   
     2    1   14 1   
     3    1   26 1   
     4    2   14 1   
     5    2   32 1   
     6    2   49 1   
     7    4    5 ar  
     8    4    9 ar  
     9    5    6 ar  
    10    5   51 1   
    11    6    7 ar  
    12    7    8 ar  
    13    7   13 1   
    14    8    9 ar  
    15    8   11 1   
    16    9   10 1   
    17   10   34 1   
    18   10   35 1   
    19   11   12 2   
    20   12   13 1   
    21   12   48 1   
    22   13   17 1   
    23   14   15 1   
    24   14   36 1   
    25   15   16 1   
    26   15   37 1   
    27   15   38 1   
    28   16   30 1   
    29   16   31 2   
    30   17   18 1   
    31   17   23 1   
    32   17   39 1   
    33   18   19 1   
    34   18   20 1   
    35   18   40 1   
    36   19   41 1   
    37   20   21 1   
    38   20   22 1   
    39   20   42 1   
    40   21   43 1   
    41   22   23 1   
    42   22   24 1   
    43   22   44 1   
    44   24   25 1   
    45   24   45 1   
    46   24   46 1   
    47   25   29 1   
    48   26   29 1   
    49   26   47 1   
    50   26   50 1   
    51   27   29 2   
    52   28   29 2   
    53   30   33 1   
@<TRIPOS>SUBSTRUCTURE
     1 DSZ         1 TEMP              0 ****  ****    0 ROOT
