@<TRIPOS>MOLECULE
DSZ
   51    53     1     0     0
SMALL
bcc


@<TRIPOS>ATOM
      1 C          -0.6070   -0.5960    0.1140 c         1 DSZ      0.486100
      2 N           0.6390    0.8230   -1.4910 n8        1 DSZ     -0.904800
      3 O          -1.7580   -0.1950    0.0270 o         1 DSZ     -0.426100
      4 N1          0.0410    0.7970   -9.8890 nb        1 DSZ     -0.782000
      5 C2         -1.1680    0.9910   -9.3110 ca        1 DSZ      0.708900
      6 N3         -1.5550    0.8320   -8.0180 nb        1 DSZ     -0.771000
      7 C4         -0.5330    0.4140   -7.2170 ca        1 DSZ      0.467800
      8 C5          0.8230    0.1630   -7.6870 ca        1 DSZ     -0.240200
      9 C6          1.0800    0.3710   -9.0860 ca        1 DSZ      0.778200
     10 N6          2.3200    0.1430   -9.6050 nv        1 DSZ     -0.943500
     11 N7          1.6370   -0.2400   -6.6160 nc        1 DSZ     -0.517100
     12 C8          0.8370   -0.2380   -5.5450 cd        1 DSZ      0.392700
     13 N9         -0.5060    0.1220   -5.8410 na        1 DSZ     -0.316000
     14 CA          0.6790    0.2350   -0.1970 c3        1 DSZ      0.187500
     15 CB          0.8150    1.2740    0.9310 c3        1 DSZ     -0.203400
     16 CG          1.1190    0.6220    2.2470 c         1 DSZ      0.653100
     17 C1'        -1.5710    0.4050   -4.9120 c3        1 DSZ      0.242800
     18 C2'        -2.9210   -0.3040   -5.2620 c3        1 DSZ      0.089100
     19 O2'        -3.9690    0.5890   -4.9530 oh        1 DSZ     -0.597800
     20 C3'        -3.0010   -1.5020   -4.2890 c3        1 DSZ      0.132100
     21 O3'        -4.2460   -1.6790   -3.6710 oh        1 DSZ     -0.573800
     22 C4'        -1.8990   -1.2320   -3.2350 c3        1 DSZ      0.072100
     23 O4'        -1.2020   -0.0360   -3.5900 os        1 DSZ     -0.433600
     24 C5'        -0.9170   -2.3980   -3.1620 c3        1 DSZ      0.161400
     25 O5'        -0.0090   -2.1610   -2.0810 os        1 DSZ     -0.591500
     26 NAT        -0.4260   -2.0290    0.5130 ny        1 DSZ     -0.653700
     27 OAX        -0.6510   -4.1720   -0.8600 o         1 DSZ     -0.557800
     28 OAY         1.5720   -3.1640   -0.5700 o         1 DSZ     -0.557800
     29 SBE         0.2300   -3.1330   -0.8040 s6        1 DSZ      1.630400
     30 OD1         1.5760    1.3590    3.2830 oh        1 DSZ     -0.524100
     31 OD2         0.9760   -0.5800    2.5090 o         1 DSZ     -0.565000
     32 HN          0.6450    0.1520   -2.2360 hn        1 DSZ      0.410800
     33 HNA         1.6780    2.2900    3.0270 ho        1 DSZ      0.452000
     34 HN6         3.0550   -0.1310   -9.0010 hn        1 DSZ      0.458300
     35 HN6A        2.5070    0.3020  -10.5660 hn        1 DSZ      0.458300
     36 HA          1.5730   -0.4620   -0.1530 h1        1 DSZ      0.105700
     37 HB         -0.1280    1.8780    1.0310 hc        1 DSZ      0.120200
     38 HBA         1.6500    1.9820    0.6620 hc        1 DSZ      0.120200
     39 H1'        -1.7180    1.5240   -4.8180 h2        1 DSZ      0.116700
     40 H2'        -2.9710   -0.6510   -6.3270 h1        1 DSZ      0.112700
     41 HO2'       -4.2900    0.9630   -5.7850 ho        1 DSZ      0.446000
     42 H3'        -2.8080   -2.4650   -4.8390 h1        1 DSZ      0.097700
     43 HO3'       -4.6460   -0.8100   -3.5130 ho        1 DSZ      0.441000
     44 H4'        -2.3530   -1.0280   -2.2250 h1        1 DSZ      0.085700
     45 H5'        -0.2640   -2.4400   -4.0790 h1        1 DSZ      0.100700
     46 H5'A       -1.4610   -3.3680   -3.0040 h1        1 DSZ      0.100700
     47 HNAT       -1.3200   -2.3870    0.8670 hn        1 DSZ      0.494800
     48 H8          1.1360   -0.4810   -4.5190 h5        1 DSZ      0.066800
     49 HN3        -0.0840    1.5020   -1.6130 hn        1 DSZ      0.410800
     50 HAT2        0.2280   -2.0100    1.3190 hn        1 DSZ      0.494800
     51 H2         -1.9660    1.3370  -10.0060 h5        1 DSZ      0.063100
@<TRIPOS>BOND
     1    1    3 2   
     2    1   14 1   
     3    1   26 1   
     4    2   14 1   
     5    2   32 1   
     6    2   49 1   
     7    4    5 ar  
     8    4    9 ar  
     9    5    6 ar  
    10    5   51 1   
    11    6    7 ar  
    12    7    8 ar  
    13    7   13 1   
    14    8    9 ar  
    15    8   11 1   
    16    9   10 1   
    17   10   34 1   
    18   10   35 1   
    19   11   12 2   
    20   12   13 1   
    21   12   48 1   
    22   13   17 1   
    23   14   15 1   
    24   14   36 1   
    25   15   16 1   
    26   15   37 1   
    27   15   38 1   
    28   16   30 1   
    29   16   31 2   
    30   17   18 1   
    31   17   23 1   
    32   17   39 1   
    33   18   19 1   
    34   18   20 1   
    35   18   40 1   
    36   19   41 1   
    37   20   21 1   
    38   20   22 1   
    39   20   42 1   
    40   21   43 1   
    41   22   23 1   
    42   22   24 1   
    43   22   44 1   
    44   24   25 1   
    45   24   45 1   
    46   24   46 1   
    47   25   29 1   
    48   26   29 1   
    49   26   47 1   
    50   26   50 1   
    51   27   29 2   
    52   28   29 2   
    53   30   33 1   
@<TRIPOS>SUBSTRUCTURE
     1 DSZ         1 TEMP              0 ****  ****    0 ROOT
