@<TRIPOS>MOLECULE
DSZ
   52    54     1     0     0
SMALL
bcc


@<TRIPOS>ATOM
      1 C          -0.5870   -1.4110    1.7240 c         1 DSZ      0.478100
      2 N          -2.1760    0.3800    2.3600 n3        1 DSZ     -0.925800
      3 O          -1.0220   -2.4020    2.2900 o         1 DSZ     -0.419100
      4 N1         -1.6770   -0.8150  -11.0760 nb        1 DSZ     -0.665000
      5 C2         -2.5140   -0.4920  -10.0470 ca        1 DSZ      0.686900
      6 N3         -2.1950   -0.1700   -8.7650 nb        1 DSZ     -0.647000
      7 C4         -0.8640   -0.1790   -8.5110 ca        1 DSZ      0.452800
      8 C5          0.1550   -0.5150   -9.5310 ca        1 DSZ     -0.131200
      9 C6         -0.3470   -0.8230  -10.8090 ca        1 DSZ      0.537200
     10 N6          0.6050   -1.1520  -11.8860 n4        1 DSZ     -0.818300
     11 N7          1.4360   -0.4350   -8.9740 nc        1 DSZ     -0.568100
     12 C8          1.2390   -0.0670   -7.6960 cd        1 DSZ      0.523700
     13 N9         -0.1250    0.0860   -7.3460 na        1 DSZ     -0.278000
     14 CA         -0.8060    0.0700    2.1730 c3        1 DSZ      0.203500
     15 CB          0.0460    0.2700    3.4410 c3        1 DSZ     -0.206400
     16 CG          1.5090    0.2670    3.1120 c         1 DSZ      0.653100
     17 C1'        -0.6630    0.6530   -6.1280 c3        1 DSZ      0.223800
     18 C2'        -1.8170   -0.1920   -5.4620 c3        1 DSZ      0.101100
     19 O2'        -2.8800    0.6740   -5.1450 oh        1 DSZ     -0.591800
     20 C3'        -1.1850   -0.6530   -4.1370 c3        1 DSZ      0.097100
     21 O3'        -2.0230   -0.7290   -3.0060 oh        1 DSZ     -0.666800
     22 C4'        -0.1020    0.4170   -3.8820 c3        1 DSZ      0.053100
     23 O4'         0.4190    0.7600   -5.1700 os        1 DSZ     -0.395600
     24 C5'         0.9840   -0.0980   -2.9460 c3        1 DSZ      0.204400
     25 O5'         0.4220   -0.1560   -1.6390 os        1 DSZ     -0.576500
     26 NAT         0.1960   -1.6440    0.4690 n4        1 DSZ     -0.649700
     27 OAX        -1.7840   -0.5230   -0.6250 o         1 DSZ     -0.574800
     28 OAY        -0.5860   -2.3700   -1.8280 o         1 DSZ     -0.574800
     29 SBE        -0.7100   -1.2220   -1.1010 s6        1 DSZ      1.671400
     30 OD1         2.4170    0.6780    4.0220 oh        1 DSZ     -0.522100
     31 OD2         2.0040   -0.0990    2.0360 o         1 DSZ     -0.573000
     32 HN         -2.7080    0.4000    1.5150 hn        1 DSZ      0.416800
     33 HNA         1.9830    0.9580    4.8460 ho        1 DSZ      0.455000
     34 HN6         1.2470   -1.8810  -11.5480 hn        1 DSZ      0.484800
     35 HN6A        1.1450   -0.3060  -12.1170 hn        1 DSZ      0.484800
     36 HA         -0.4010    0.7490    1.3600 h1        1 DSZ      0.097700
     37 HB         -0.2290    1.2580    3.9080 hc        1 DSZ      0.123200
     38 HBA        -0.1670   -0.5350    4.1970 hc        1 DSZ      0.123200
     39 H1'        -1.0270    1.7060   -6.3380 h2        1 DSZ      0.123700
     40 H2'        -2.1480   -1.0560   -6.0910 h1        1 DSZ      0.101700
     41 HO2'       -3.5250    0.6390   -5.8660 ho        1 DSZ      0.453000
     42 H3'        -0.7510   -1.6880   -4.2490 h1        1 DSZ      0.122700
     43 HO3'       -2.7340   -0.0680   -3.0660 ho        1 DSZ      0.490000
     44 H4'        -0.5680    1.3470   -3.4410 h1        1 DSZ      0.103700
     45 H5'         1.3610   -1.1120   -3.2440 h1        1 DSZ      0.102700
     46 H5'A        1.8330    0.6350   -2.8490 h1        1 DSZ      0.102700
     47 HNAT        1.0540   -1.0700    0.5540 hn        1 DSZ      0.490800
     48 H8          2.0370    0.1120   -6.9520 h5        1 DSZ      0.120800
     49 HN3        -2.6250   -0.1090    3.1040 hn        1 DSZ      0.416800
     50 H63         0.1150   -1.4850  -12.7290 hn        1 DSZ      0.484800
     51 HAT2        0.4970   -2.6240    0.4450 hn        1 DSZ      0.490800
     52 H2         -3.6020   -0.4930  -10.3020 h5        1 DSZ      0.109100
@<TRIPOS>BOND
     1    1    3 2   
     2    1   14 1   
     3    1   26 1   
     4    2   14 1   
     5    2   32 1   
     6    2   49 1   
     7    4    5 ar  
     8    4    9 ar  
     9    5    6 ar  
    10    5   52 1   
    11    6    7 ar  
    12    7    8 ar  
    13    7   13 1   
    14    8    9 ar  
    15    8   11 1   
    16    9   10 1   
    17   10   34 1   
    18   10   35 1   
    19   10   50 1   
    20   11   12 2   
    21   12   13 1   
    22   12   48 1   
    23   13   17 1   
    24   14   15 1   
    25   14   36 1   
    26   15   16 1   
    27   15   37 1   
    28   15   38 1   
    29   16   30 1   
    30   16   31 2   
    31   17   18 1   
    32   17   23 1   
    33   17   39 1   
    34   18   19 1   
    35   18   20 1   
    36   18   40 1   
    37   19   41 1   
    38   20   21 1   
    39   20   22 1   
    40   20   42 1   
    41   21   43 1   
    42   22   23 1   
    43   22   24 1   
    44   22   44 1   
    45   24   25 1   
    46   24   45 1   
    47   24   46 1   
    48   25   29 1   
    49   26   29 1   
    50   26   47 1   
    51   26   51 1   
    52   27   29 2   
    53   28   29 2   
    54   30   33 1   
@<TRIPOS>SUBSTRUCTURE
     1 DSZ         1 TEMP              0 ****  ****    0 ROOT
