@<TRIPOS>MOLECULE
DSZ
   49    51     1     0     0
SMALL
bcc


@<TRIPOS>ATOM
      1 C          -4.4040    0.7090   -1.2370 c         1 DSZ      0.661100
      2 N          -6.5460    1.7660   -0.5320 n3        1 DSZ     -0.886800
      3 O          -5.0020    0.1060   -2.1510 o         1 DSZ     -0.633100
      4 N1          6.8790    1.3080    0.4820 nb        1 DSZ     -0.798000
      5 C2          6.5480    0.1280    1.0720 ca        1 DSZ      0.673900
      6 N3          5.4300   -0.6240    0.9560 nb        1 DSZ     -0.749000
      7 C4          4.5160   -0.0730    0.0980 ca        1 DSZ      0.437800
      8 C5          4.7270    1.1840   -0.6130 ca        1 DSZ     -0.212200
      9 C6          5.9710    1.8590   -0.3900 ca        1 DSZ      0.740200
     10 N6          6.2630    3.0140   -1.0840 nh        1 DSZ     -0.945500
     11 N7          3.6030    1.4820   -1.3990 nc        1 DSZ     -0.562100
     12 C8          2.7450    0.4710   -1.1880 cd        1 DSZ      0.447700
     13 N9          3.2410   -0.5050   -0.2890 na        1 DSZ     -0.288000
     14 CA         -5.1360    1.6320   -0.2290 c3        1 DSZ      0.128500
     15 CB         -4.8670    1.1380    1.1990 c3        1 DSZ     -0.207400
     16 CG         -3.6220    1.8020    1.8130 c         1 DSZ      0.911600
     17 C1'         2.6390   -1.7580    0.1140 c3        1 DSZ      0.217800
     18 C2'         2.3130   -1.8400    1.6460 c3        1 DSZ      0.075100
     19 O2'         2.9300   -2.9880    2.1870 oh        1 DSZ     -0.590800
     20 C3'         0.7780   -2.0210    1.7210 c3        1 DSZ      0.129100
     21 O3'         0.3970   -3.2860    2.2010 oh        1 DSZ     -0.569800
     22 C4'         0.2930   -1.7790    0.2750 c3        1 DSZ      0.053100
     23 O4'         1.4220   -1.9850   -0.5920 os        1 DSZ     -0.390600
     24 C5'        -0.2620   -0.3610    0.1270 c3        1 DSZ      0.142400
     25 O5'        -0.5460   -0.0770   -1.2190 os        1 DSZ     -0.561500
     26 NAT        -3.0270    0.5660   -1.1150 n         1 DSZ     -0.721300
     27 OAX        -1.8040   -0.0270   -3.2430 o         1 DSZ     -0.657800
     28 OAY        -2.2270   -1.7600   -1.6500 o         1 DSZ     -0.657800
     29 SBE        -2.0430   -0.4140   -1.9350 s6        1 DSZ      1.718100
     30 OD1        -3.7780    2.7910    2.5700 o         1 DSZ     -0.836800
     31 OD2        -2.4770    1.3050    1.5460 o         1 DSZ     -0.836800
     32 HN         -6.6770    1.8980   -1.5170 hn        1 DSZ      0.348800
     33 HNA        -7.0450    0.9430   -0.2530 hn        1 DSZ      0.348800
     34 HN6         7.0280    3.5710   -0.7890 hn        1 DSZ      0.434300
     35 HN6A        5.5050    3.4690   -1.5360 hn        1 DSZ      0.434300
     36 HA         -4.6810    2.6630   -0.3430 h1        1 DSZ      0.096700
     37 HB         -5.7380    1.3920    1.8590 hc        1 DSZ      0.052200
     38 HBA        -4.7350    0.0280    1.2060 hc        1 DSZ      0.052200
     39 H1'         3.3350   -2.5970   -0.1910 h2        1 DSZ      0.095700
     40 H2'         2.6330   -0.9180    2.1990 h1        1 DSZ      0.077700
     41 HO2'        3.8710   -2.7820    2.2680 ho        1 DSZ      0.423000
     42 H3'         0.3140   -1.2910    2.4390 h1        1 DSZ      0.114700
     43 HO3'        0.9050   -3.9500    1.7160 ho        1 DSZ      0.413000
     44 H4'        -0.4630   -2.5420   -0.0620 h1        1 DSZ      0.124700
     45 H5'        -1.1720   -0.2380    0.7810 h1        1 DSZ      0.090700
     46 H5'A        0.5100    0.3980    0.4330 h1        1 DSZ      0.090700
     47 HNAT       -2.6540    1.0840   -0.3140 hn        1 DSZ      0.405500
     48 H2          7.3210   -0.2740    1.7620 h5        1 DSZ      0.042100
     49 H8          1.7370    0.3600   -1.6300 h5        1 DSZ      0.121800
@<TRIPOS>BOND
     1    1    3 2   
     2    1   14 1   
     3    1   26 1   
     4    2   14 1   
     5    2   32 1   
     6    2   33 1   
     7    4    5 ar  
     8    4    9 ar  
     9    5    6 ar  
    10    5   48 1   
    11    6    7 ar  
    12    7    8 ar  
    13    7   13 1   
    14    8    9 ar  
    15    8   11 1   
    16    9   10 1   
    17   10   34 1   
    18   10   35 1   
    19   11   12 2   
    20   12   13 1   
    21   12   49 1   
    22   13   17 1   
    23   14   15 1   
    24   14   36 1   
    25   15   16 1   
    26   15   37 1   
    27   15   38 1   
    28   16   30 1   
    29   16   31 1   
    30   17   18 1   
    31   17   23 1   
    32   17   39 1   
    33   18   19 1   
    34   18   20 1   
    35   18   40 1   
    36   19   41 1   
    37   20   21 1   
    38   20   22 1   
    39   20   42 1   
    40   21   43 1   
    41   22   23 1   
    42   22   24 1   
    43   22   44 1   
    44   24   25 1   
    45   24   45 1   
    46   24   46 1   
    47   25   29 1   
    48   26   29 1   
    49   26   47 1   
    50   27   29 2   
    51   28   29 2   
@<TRIPOS>SUBSTRUCTURE
     1 DSZ         1 TEMP              0 ****  ****    0 ROOT
