@<TRIPOS>MOLECULE
DT1
   51    54     1     0     0
SMALL
bcc


@<TRIPOS>ATOM
      1 O3          0.4170   -0.2170    0.4980 o         1 DT1     -0.579300
      2 S1          1.7310    0.1830    0.3670 sy        1 DT1      1.515200
      3 O2          2.6340    0.0270    1.3980 o         1 DT1     -0.579300
      4 N6          2.3610   -1.2540   -0.8000 n4        1 DT1     -0.781500
      5 C16         1.9980    1.3820   -0.6110 ca        1 DT1     -0.650500
      6 C15         1.0040    1.8390   -1.5190 ca        1 DT1      0.055000
      7 C17         3.2160    2.1140   -0.5820 ca        1 DT1      0.055000
      8 C18         3.4460    3.1880   -1.4010 ca        1 DT1     -0.213000
      9 C14         1.2050    2.9080   -2.3530 ca        1 DT1     -0.213000
     10 C13         2.4470    3.6180   -2.3350 ca        1 DT1      0.330600
     11 N5          2.6810    4.7120   -3.1210 nh        1 DT1     -0.608000
     12 C9          1.8900    5.0590   -4.2490 cc        1 DT1      0.224300
     13 N2          1.7030    4.1460   -5.2930 na        1 DT1     -0.041800
     14 C10         0.9390    4.5540   -6.4920 cc        1 DT1      0.448500
     15 N1          0.3920    5.8140   -6.6150 nc        1 DT1     -0.684000
     16 N4          0.9290    3.4770   -7.3400 nd        1 DT1     -0.337300
     17 C11         1.6580    2.5010   -6.6540 cd        1 DT1      0.546200
     18 N3          2.1280    2.8770   -5.4260 nc        1 DT1     -0.611100
     19 C8          1.3270    6.3180   -4.3730 cd        1 DT1     -0.265300
     20 C7          0.5900    6.6440   -5.5840 cd        1 DT1      0.691600
     21 C20        -0.6410    8.3750   -6.7250 c3        1 DT1      0.136400
     22 O1          0.1030    7.9180   -5.5680 os        1 DT1     -0.431100
     23 C1         -1.0390    9.8110   -6.4040 c3        1 DT1     -0.072700
     24 C2         -1.4100   10.5250   -7.6970 c3        1 DT1     -0.073900
     25 C3         -1.8460   11.9490   -7.4190 c3        1 DT1     -0.076400
     26 C4         -2.9870   11.9970   -6.4230 c3        1 DT1     -0.080400
     27 C5         -2.6280   11.2730   -5.1410 c3        1 DT1     -0.076400
     28 C6         -2.1960    9.8480   -5.4170 c3        1 DT1     -0.073900
     29 H6N1        1.6130   -1.9210   -0.9680 hn        1 DT1      0.448133
     30 H6N2        3.1310   -1.7500   -0.3610 hn        1 DT1      0.448133
     31 H15         0.0270    1.3170   -1.5380 ha        1 DT1      0.167000
     32 H17         3.9990    1.8070    0.1400 ha        1 DT1      0.167000
     33 H18         4.4080    3.7240   -1.3390 ha        1 DT1      0.174000
     34 H14         0.3990    3.2230   -3.0360 ha        1 DT1      0.174000
     35 H5          3.5760    5.1600   -3.0720 hn        1 DT1      0.475800
     36 H11         1.8370    1.5080   -7.0880 h5        1 DT1      0.090800
     37 H8          1.4220    7.0880   -3.5940 ha        1 DT1      0.196000
     38 H201       -1.5360    7.7170   -6.8680 h1        1 DT1      0.068700
     39 H202        0.0260    8.3270   -7.6250 h1        1 DT1      0.068700
     40 H1         -0.1550   10.3340   -5.9400 hc        1 DT1      0.068700
     41 H2C1       -0.5300   10.5310   -8.3910 hc        1 DT1      0.044450
     42 H2C2       -2.2410    9.9690   -8.2050 hc        1 DT1      0.044450
     43 H3C1       -0.9770   12.5350   -7.0200 hc        1 DT1      0.045700
     44 H3C2       -2.1660   12.4320   -8.3790 hc        1 DT1      0.045700
     45 H4C1       -3.2390   13.0650   -6.1930 hc        1 DT1      0.046200
     46 H4C2       -3.8980   11.5260   -6.8750 hc        1 DT1      0.046200
     47 H5C1       -3.5130   11.2670   -4.4520 hc        1 DT1      0.045700
     48 H5C2       -1.7990   11.8220   -4.6200 hc        1 DT1      0.045700
     49 H6C1       -1.8820    9.3520   -4.4630 hc        1 DT1      0.044450
     50 H6C2       -3.0620    9.2690   -5.8330 hc        1 DT1      0.044450
     51 H63         2.6790   -0.9020   -1.6960 hn        1 DT1      0.448133
@<TRIPOS>BOND
     1    1    2 2   
     2    2    3 2   
     3    2    4 1   
     4    2    5 1   
     5    4   29 1   
     6    4   30 1   
     7    4   51 1   
     8    5    6 ar  
     9    5    7 ar  
    10    6    9 ar  
    11    6   31 1   
    12    7    8 ar  
    13    7   32 1   
    14    8   10 ar  
    15    8   33 1   
    16    9   10 ar  
    17    9   34 1   
    18   10   11 1   
    19   11   12 1   
    20   11   35 1   
    21   12   13 1   
    22   12   19 2   
    23   13   14 1   
    24   13   18 1   
    25   14   15 1   
    26   14   16 2   
    27   15   20 2   
    28   16   17 1   
    29   17   18 2   
    30   17   36 1   
    31   19   20 1   
    32   19   37 1   
    33   20   22 1   
    34   21   22 1   
    35   21   23 1   
    36   21   38 1   
    37   21   39 1   
    38   23   24 1   
    39   23   28 1   
    40   23   40 1   
    41   24   25 1   
    42   24   41 1   
    43   24   42 1   
    44   25   26 1   
    45   25   43 1   
    46   25   44 1   
    47   26   27 1   
    48   26   45 1   
    49   26   46 1   
    50   27   28 1   
    51   27   47 1   
    52   27   48 1   
    53   28   49 1   
    54   28   50 1   
@<TRIPOS>SUBSTRUCTURE
     1 DT1         1 TEMP              0 ****  ****    0 ROOT
