@<TRIPOS>MOLECULE
DT1
   52    55     1     0     0
SMALL
bcc


@<TRIPOS>ATOM
      1 O3          0.8270    0.5800    1.1980 o         1 DT1     -0.531300
      2 S1          1.6940    0.2490    0.1840 sy        1 DT1      1.462200
      3 O2          2.7370   -0.6380    0.2950 o         1 DT1     -0.531300
      4 N6          0.5430   -0.7060   -0.9640 n4        1 DT1     -0.801500
      5 C16         2.0470    1.5270   -0.7900 ca        1 DT1     -0.462500
      6 C15         1.3070    2.7210   -0.7050 ca        1 DT1      0.021500
      7 C17         3.1740    1.5030   -1.6290 ca        1 DT1      0.021500
      8 C18         3.5660    2.6270   -2.3570 ca        1 DT1     -0.104000
      9 C14         1.6760    3.8570   -1.4200 ca        1 DT1     -0.104000
     10 C13         2.8160    3.8090   -2.2430 ca        1 DT1      0.074600
     11 N5          3.2460    5.0170   -2.9670 n4        1 DT1     -0.529800
     12 C9          2.4260    5.2920   -4.1760 cc        1 DT1      0.092300
     13 N2          2.4370    4.3810   -5.2160 na        1 DT1     -0.047800
     14 C10         1.6840    4.7030   -6.4690 cc        1 DT1      0.482500
     15 N1          0.9350    5.8500   -6.5750 nc        1 DT1     -0.651000
     16 N4          1.9350    3.6770   -7.3350 nd        1 DT1     -0.301300
     17 C11         2.7970    2.8260   -6.6340 cd        1 DT1      0.596200
     18 N3          3.1140    3.2250   -5.3640 nc        1 DT1     -0.648100
     19 C8          1.6770    6.4480   -4.2790 cd        1 DT1     -0.239300
     20 C7          0.9400    6.6790   -5.5230 cd        1 DT1      0.709600
     21 C20        -0.4940    8.2370   -6.6910 c3        1 DT1      0.139400
     22 O1          0.2500    7.8420   -5.4970 os        1 DT1     -0.420100
     23 C1         -1.1240    9.5770   -6.3320 c3        1 DT1     -0.075700
     24 C2         -1.4850   10.3090   -7.6190 c3        1 DT1     -0.073400
     25 C3         -2.1460   11.6380   -7.3100 c3        1 DT1     -0.077400
     26 C4         -3.3600   11.4620   -6.4220 c3        1 DT1     -0.082400
     27 C5         -3.0100   10.7170   -5.1510 c3        1 DT1     -0.077400
     28 C6         -2.3540    9.3860   -5.4580 c3        1 DT1     -0.073400
     29 H6N1        0.3980   -0.2670   -1.8700 hn        1 DT1      0.471800
     30 H6N2        0.9110   -1.6460   -1.1370 hn        1 DT1      0.471800
     31 H15         0.4240    2.7790   -0.0350 ha        1 DT1      0.199500
     32 H17         3.7930    0.5840   -1.7020 ha        1 DT1      0.199500
     33 H18         4.4560    2.5580   -3.0130 ha        1 DT1      0.199000
     34 H14         1.0690    4.7760   -1.3200 ha        1 DT1      0.199000
     35 H5          4.2340    4.9040   -3.2600 hn        1 DT1      0.490800
     36 H11         3.1900    1.9040   -7.0950 h5        1 DT1      0.114800
     37 H8          1.6130    7.2200   -3.4970 ha        1 DT1      0.204000
     38 H201       -1.2620    7.4520   -6.9080 h1        1 DT1      0.077700
     39 H202        0.2300    8.3310   -7.5410 h1        1 DT1      0.077700
     40 H1         -0.3700   10.1920   -5.7650 hc        1 DT1      0.070700
     41 H2C1       -2.1820    9.6740   -8.2270 hc        1 DT1      0.044200
     42 H2C2       -0.5600   10.4830   -8.2280 hc        1 DT1      0.044200
     43 H3C1       -2.4510   12.1280   -8.2720 hc        1 DT1      0.051200
     44 H3C2       -1.4070   12.3150   -6.8060 hc        1 DT1      0.051200
     45 H4C1       -4.1540   10.9000   -6.9800 hc        1 DT1      0.054200
     46 H4C2       -3.7810   12.4690   -6.1620 hc        1 DT1      0.054200
     47 H5C1       -2.3170   11.3420   -4.5280 hc        1 DT1      0.051200
     48 H5C2       -3.9400   10.5420   -4.5490 hc        1 DT1      0.051200
     49 H6C1       -3.0890    8.7210   -5.9840 hc        1 DT1      0.044200
     50 H6C2       -2.0560    8.8780   -4.5050 hc        1 DT1      0.044200
     51 H63        -0.3780   -0.8220   -0.5310 hn        1 DT1      0.471800
     52 H52         3.1750    5.8340   -2.3390 hn        1 DT1      0.490800
@<TRIPOS>BOND
     1    1    2 2   
     2    2    3 2   
     3    2    4 1   
     4    2    5 1   
     5    4   29 1   
     6    4   30 1   
     7    4   51 1   
     8    5    6 ar  
     9    5    7 ar  
    10    6    9 ar  
    11    6   31 1   
    12    7    8 ar  
    13    7   32 1   
    14    8   10 ar  
    15    8   33 1   
    16    9   10 ar  
    17    9   34 1   
    18   10   11 1   
    19   11   12 1   
    20   11   35 1   
    21   11   52 1   
    22   12   13 1   
    23   12   19 2   
    24   13   14 1   
    25   13   18 1   
    26   14   15 1   
    27   14   16 2   
    28   15   20 2   
    29   16   17 1   
    30   17   18 2   
    31   17   36 1   
    32   19   20 1   
    33   19   37 1   
    34   20   22 1   
    35   21   22 1   
    36   21   23 1   
    37   21   38 1   
    38   21   39 1   
    39   23   24 1   
    40   23   28 1   
    41   23   40 1   
    42   24   25 1   
    43   24   41 1   
    44   24   42 1   
    45   25   26 1   
    46   25   43 1   
    47   25   44 1   
    48   26   27 1   
    49   26   45 1   
    50   26   46 1   
    51   27   28 1   
    52   27   47 1   
    53   27   48 1   
    54   28   49 1   
    55   28   50 1   
@<TRIPOS>SUBSTRUCTURE
     1 DT1         1 TEMP              0 ****  ****    0 ROOT
