@<TRIPOS>MOLECULE
DT1
   51    54     1     0     0
SMALL
bcc


@<TRIPOS>ATOM
      1 O3          0.4060   -0.2230    0.4910 o         1 DT1     -0.579300
      2 S1          1.7180    0.1810    0.3690 sy        1 DT1      1.515200
      3 O2          2.6160    0.0280    1.4060 o         1 DT1     -0.579300
      4 N6          2.3610   -1.2520   -0.7950 nz        1 DT1     -0.781500
      5 C16         1.9880    1.3820   -0.6060 ca        1 DT1     -0.650500
      6 C15         0.9990    1.8370   -1.5200 ca        1 DT1      0.055000
      7 C17         3.2030    2.1180   -0.5690 ca        1 DT1      0.055000
      8 C18         3.4350    3.1930   -1.3860 ca        1 DT1     -0.213000
      9 C14         1.2010    2.9080   -2.3510 ca        1 DT1     -0.213000
     10 C13         2.4400    3.6210   -2.3250 ca        1 DT1      0.330600
     11 N5          2.6760    4.7170   -3.1080 nu        1 DT1     -0.608000
     12 C9          1.8910    5.0630   -4.2410 cc        1 DT1      0.224300
     13 N2          1.7120    4.1500   -5.2870 na        1 DT1     -0.041800
     14 C10         0.9550    4.5570   -6.4890 cc        1 DT1      0.448500
     15 N1          0.4050    5.8170   -6.6150 nc        1 DT1     -0.684000
     16 N4          0.9520    3.4810   -7.3390 nd        1 DT1     -0.337300
     17 C11         1.6790    2.5060   -6.6490 cd        1 DT1      0.546200
     18 N3          2.1410    2.8820   -5.4180 nc        1 DT1     -0.611100
     19 C8          1.3260    6.3210   -4.3670 cd        1 DT1     -0.265300
     20 C7          0.5950    6.6450   -5.5820 cd        1 DT1      0.691600
     21 C20        -0.6340    8.3750   -6.7290 c3        1 DT1      0.136400
     22 O1          0.1050    7.9180   -5.5680 os        1 DT1     -0.431100
     23 C1         -1.0370    9.8100   -6.4090 c3        1 DT1     -0.072700
     24 C2         -1.4030   10.5240   -7.7030 c3        1 DT1     -0.073900
     25 C3         -1.8450   11.9460   -7.4260 c3        1 DT1     -0.076400
     26 C4         -2.9900   11.9900   -6.4360 c3        1 DT1     -0.080400
     27 C5         -2.6360   11.2670   -5.1530 c3        1 DT1     -0.076400
     28 C6         -2.1990    9.8430   -5.4280 c3        1 DT1     -0.073900
     29 H6N1        3.1300   -1.7470   -0.3520 hn        1 DT1      0.448133
     30 H6N2        2.6840   -0.8990   -1.6890 hn        1 DT1      0.448133
     31 H15         0.0220    1.3130   -1.5450 ha        1 DT1      0.167000
     32 H17         3.9830    1.8130    0.1570 ha        1 DT1      0.167000
     33 H18         4.3950    3.7320   -1.3170 ha        1 DT1      0.174000
     34 H14         0.3980    3.2210   -3.0390 ha        1 DT1      0.174000
     35 H5          3.5690    5.1670   -3.0540 hn        1 DT1      0.475800
     36 H11         1.8630    1.5140   -7.0840 h5        1 DT1      0.090800
     37 H8          1.4140    7.0900   -3.5870 ha        1 DT1      0.196000
     38 H201        0.0380    8.3290   -7.6250 h1        1 DT1      0.068700
     39 H202       -1.5260    7.7150   -6.8780 h1        1 DT1      0.068700
     40 H1         -0.1570   10.3340   -5.9400 hc        1 DT1      0.068700
     41 H2C1       -0.5190   10.5320   -8.3930 hc        1 DT1      0.044450
     42 H2C2       -2.2300    9.9650   -8.2160 hc        1 DT1      0.044450
     43 H3C1       -0.9790   12.5340   -7.0230 hc        1 DT1      0.045700
     44 H3C2       -2.1610   12.4290   -8.3880 hc        1 DT1      0.045700
     45 H4C1       -3.8990   11.5170   -6.8940 hc        1 DT1      0.046200
     46 H4C2       -3.2470   13.0570   -6.2070 hc        1 DT1      0.046200
     47 H5C1       -1.8120   11.8170   -4.6280 hc        1 DT1      0.045700
     48 H5C2       -3.5250   11.2580   -4.4690 hc        1 DT1      0.045700
     49 H6C1       -3.0610    9.2610   -5.8490 hc        1 DT1      0.044450
     50 H6C2       -1.8890    9.3470   -4.4720 hc        1 DT1      0.044450
     51 H63         1.6160   -1.9220   -0.9690 hn        1 DT1      0.448133
@<TRIPOS>BOND
     1    1    2 2   
     2    2    3 2   
     3    2    4 1   
     4    2    5 1   
     5    4   29 1   
     6    4   30 1   
     7    4   51 1   
     8    5    6 ar  
     9    5    7 ar  
    10    6    9 ar  
    11    6   31 1   
    12    7    8 ar  
    13    7   32 1   
    14    8   10 ar  
    15    8   33 1   
    16    9   10 ar  
    17    9   34 1   
    18   10   11 1   
    19   11   12 1   
    20   11   35 1   
    21   12   13 1   
    22   12   19 2   
    23   13   14 1   
    24   13   18 1   
    25   14   15 1   
    26   14   16 2   
    27   15   20 2   
    28   16   17 1   
    29   17   18 2   
    30   17   36 1   
    31   19   20 1   
    32   19   37 1   
    33   20   22 1   
    34   21   22 1   
    35   21   23 1   
    36   21   38 1   
    37   21   39 1   
    38   23   24 1   
    39   23   28 1   
    40   23   40 1   
    41   24   25 1   
    42   24   41 1   
    43   24   42 1   
    44   25   26 1   
    45   25   43 1   
    46   25   44 1   
    47   26   27 1   
    48   26   45 1   
    49   26   46 1   
    50   27   28 1   
    51   27   47 1   
    52   27   48 1   
    53   28   49 1   
    54   28   50 1   
@<TRIPOS>SUBSTRUCTURE
     1 DT1         1 TEMP              0 ****  ****    0 ROOT
