@<TRIPOS>MOLECULE
DT1
   50    53     1     0     0
SMALL
bcc


@<TRIPOS>ATOM
      1 O3          3.8820    3.8810    0.2810 o         1 DT1     -0.658800
      2 S1          4.7260    2.8230   -0.1180 sy        1 DT1      1.532200
      3 O2          5.5600    3.0300   -1.2380 o         1 DT1     -0.658800
      4 N6          5.6270    2.3730    1.1280 n3        1 DT1     -1.027700
      5 C16         3.7680    1.4680   -0.4160 ca        1 DT1     -0.419500
      6 C15         2.5240    1.3130    0.2040 ca        1 DT1      0.018000
      7 C17         4.1810    0.4790   -1.3190 ca        1 DT1      0.018000
      8 C18         3.3950   -0.6290   -1.5920 ca        1 DT1     -0.208000
      9 C14         1.7130    0.2160   -0.0490 ca        1 DT1     -0.208000
     10 C13         2.1320   -0.7780   -0.9620 ca        1 DT1      0.219600
     11 N5          1.3530   -1.8910   -1.3000 nh        1 DT1     -0.633000
     12 C9          0.0780   -2.1250   -0.7620 cc        1 DT1      0.291300
     13 N2         -0.2430   -3.3870   -0.2330 na        1 DT1     -0.044800
     14 C10        -1.6090   -3.6610    0.2500 cc        1 DT1      0.448500
     15 N1         -2.5940   -2.6940    0.2560 nc        1 DT1     -0.717000
     16 N4         -1.6360   -4.9720    0.6550 nd        1 DT1     -0.367300
     17 C11        -0.3370   -5.4260    0.4000 cd        1 DT1      0.536200
     18 N3          0.5100   -4.4980   -0.1360 nc        1 DT1     -0.597100
     19 C8         -0.9380   -1.1710   -0.7810 cd        1 DT1     -0.339300
     20 C7         -2.2380   -1.5060   -0.2510 cd        1 DT1      0.697600
     21 C20        -4.4620   -0.6770    0.1650 c3        1 DT1      0.137400
     22 O1         -3.1170   -0.4560   -0.3160 os        1 DT1     -0.438100
     23 C1         -5.1900    0.6470   -0.0450 c3        1 DT1     -0.072700
     24 C2         -6.6920    0.4080    0.0210 c3        1 DT1     -0.073900
     25 C3         -7.4530    1.7080   -0.1460 c3        1 DT1     -0.075900
     26 C4         -7.0200    2.7400    0.8750 c3        1 DT1     -0.078400
     27 C5         -5.5240    2.9700    0.8220 c3        1 DT1     -0.075900
     28 C6         -4.7610    1.6730    0.9930 c3        1 DT1     -0.073900
     29 H6N1        5.3700    2.5220    2.0710 hn        1 DT1      0.447800
     30 H6N2        6.5130    1.9440    1.0360 hn        1 DT1      0.447800
     31 H15         2.1710    2.0930    0.9040 ha        1 DT1      0.157000
     32 H17         5.1500    0.5960   -1.8380 ha        1 DT1      0.157000
     33 H18         3.7540   -1.3840   -2.3080 ha        1 DT1      0.150000
     34 H14         0.7480    0.1300    0.4740 ha        1 DT1      0.150000
     35 H5          1.8620   -2.6920   -1.6190 hn        1 DT1      0.461800
     36 H11        -0.0320   -6.4560    0.6210 h5        1 DT1      0.082800
     37 H8         -0.7800   -0.1700   -1.2060 ha        1 DT1      0.190000
     38 H201       -4.9340   -1.4970   -0.4350 h1        1 DT1      0.062700
     39 H202       -4.4270   -0.9620    1.2470 h1        1 DT1      0.062700
     40 H1         -4.9270    1.0420   -1.0670 hc        1 DT1      0.067700
     41 H2C1       -6.9950   -0.3100   -0.7840 hc        1 DT1      0.044700
     42 H2C2       -6.9520   -0.0570    1.0080 hc        1 DT1      0.044700
     43 H3C1       -7.2820    2.1100   -1.1790 hc        1 DT1      0.042200
     44 H3C2       -8.5510    1.5100   -0.0380 hc        1 DT1      0.042200
     45 H4C1       -7.5560    3.7050    0.6820 hc        1 DT1      0.041200
     46 H4C2       -7.3090    2.3930    1.9020 hc        1 DT1      0.041200
     47 H5C1       -5.2510    3.4380   -0.1610 hc        1 DT1      0.042200
     48 H5C2       -5.2250    3.6870    1.6310 hc        1 DT1      0.042200
     49 H6C1       -4.9440    1.2640    2.0210 hc        1 DT1      0.044700
     50 H6C2       -3.6610    1.8590    0.8920 hc        1 DT1      0.044700
@<TRIPOS>BOND
     1    1    2 2   
     2    2    3 2   
     3    2    4 1   
     4    2    5 1   
     5    4   29 1   
     6    4   30 1   
     7    5    6 ar  
     8    5    7 ar  
     9    6    9 ar  
    10    6   31 1   
    11    7    8 ar  
    12    7   32 1   
    13    8   10 ar  
    14    8   33 1   
    15    9   10 ar  
    16    9   34 1   
    17   10   11 1   
    18   11   12 1   
    19   11   35 1   
    20   12   13 1   
    21   12   19 2   
    22   13   14 1   
    23   13   18 1   
    24   14   15 1   
    25   14   16 2   
    26   15   20 2   
    27   16   17 1   
    28   17   18 2   
    29   17   36 1   
    30   19   20 1   
    31   19   37 1   
    32   20   22 1   
    33   21   22 1   
    34   21   23 1   
    35   21   38 1   
    36   21   39 1   
    37   23   24 1   
    38   23   28 1   
    39   23   40 1   
    40   24   25 1   
    41   24   41 1   
    42   24   42 1   
    43   25   26 1   
    44   25   43 1   
    45   25   44 1   
    46   26   27 1   
    47   26   45 1   
    48   26   46 1   
    49   27   28 1   
    50   27   47 1   
    51   27   48 1   
    52   28   49 1   
    53   28   50 1   
@<TRIPOS>SUBSTRUCTURE
     1 DT1         1 TEMP              0 ****  ****    0 ROOT
