@<TRIPOS>MOLECULE
DT1
   50    44     1     0     0
SMALL
bcc


@<TRIPOS>ATOM
      1 O3          6.3070   -1.8100    2.3900 o         1 DT1     -0.938000
      2 S1          5.8670   -2.8670    1.5590 ss        1 DT1      2.871000
      3 O2          6.4330   -2.4570    0.2430 o         1 DT1     -0.938000
      4 N6          6.4620   -4.2660    2.0410 n2        1 DT1     -0.954000
      5 C16         4.1210   -2.9520    1.4970 c1        1 DT1     -0.863000
      6 C15         3.3520   -2.1900    2.3750 c1        1 DT1      0.019000
      7 C17         3.5090   -3.7480    0.5510 c2        1 DT1      0.015000
      8 C18         2.1240   -3.7950    0.4690 c1        1 DT1     -0.202000
      9 C14         1.9660   -2.2310    2.2990 c1        1 DT1     -0.210000
     10 C13         1.3470   -3.0330    1.3470 c1        1 DT1      0.137000
     11 N5         -0.1130   -3.0820    1.2650 n3        1 DT1     -0.265000
     12 C9         -0.7990   -2.4100    0.1820 c2        1 DT1      0.239000
     13 N2         -0.9530   -3.0190   -1.0320 n2        1 DT1     -0.161000
     14 C10        -1.6090   -2.3800   -2.0300 c1        1 DT1      0.098000
     15 N1         -2.1260   -1.0990   -1.8180 n1        1 DT1     -0.192000
     16 N4         -1.6180   -3.2000   -3.1170 n1        1 DT1     -0.138500
     17 C11        -0.9630   -4.3510   -2.7820 c1        1 DT1     -0.098000
     18 N3         -0.5540   -4.2420   -1.5020 n1        1 DT1     -0.138500
     19 C8         -1.3120   -1.1440    0.3880 c1        1 DT1     -0.281000
     20 C7         -1.9750   -0.5000   -0.6270 c1        1 DT1      0.201000
     21 C20        -2.2480    1.7860   -1.2420 c3        1 DT1     -0.013000
     22 O1         -2.6960    0.7090   -0.4330 os        1 DT1     -0.198000
     23 C1         -2.6890    3.0910   -0.6280 c3        1 DT1     -0.112000
     24 C2         -1.5350    3.6710    0.1710 c3        1 DT1     -0.152500
     25 C3         -1.8220    5.0640    0.6680 c3        1 DT1     -0.154500
     26 C4         -2.2820    5.9870   -0.4300 c3        1 DT1     -0.157000
     27 C5         -3.4380    5.4090   -1.2310 c3        1 DT1     -0.154500
     28 C6         -3.1520    4.0180   -1.7320 c3        1 DT1     -0.152500
     29 H6N1        6.4470   -4.4810    2.9030 hn        1 DT1      0.243000
     30 H6N2        6.8250   -4.8780    1.4000 hn        1 DT1      0.243000
     31 H15         3.7960   -1.6160    3.0560 ha        1 DT1      0.158000
     32 H17         4.0470   -4.2730   -0.0570 ha        1 DT1      0.157000
     33 H18         1.6970   -4.3540   -0.1960 ha        1 DT1      0.147000
     34 H14         1.4170   -1.6860    2.9270 ha        1 DT1      0.154000
     35 H5         -0.6200   -3.5480    1.9420 hn        1 DT1      0.259000
     36 H11        -0.7420   -5.0730   -3.3870 DU        1 DT1      0.213000
     37 H8         -1.1990   -0.6980    1.2740 ha        1 DT1      0.187000
     38 H201       -2.6360    1.7010   -2.1480 h1        1 DT1      0.102000
     39 H202       -1.2380    1.7660   -1.3040 h1        1 DT1      0.102000
     40 H1         -3.4470    2.9190   -0.0170 hc        1 DT1      0.106000
     41 H2C1       -1.3530    3.0760    0.9600 hc        1 DT1      0.084500
     42 H2C2       -0.7210    3.6970   -0.4110 hc        1 DT1      0.084500
     43 H3C1       -0.9790    5.4400    1.0780 hc        1 DT1      0.081000
     44 H3C2       -2.4740    5.0220    1.3140 hc        1 DT1      0.081000
     45 H4C1       -1.5600    6.1510   -1.0110 hc        1 DT1      0.081000
     46 H4C2       -2.5640    6.8240   -0.0370 hc        1 DT1      0.081000
     47 H5C1       -3.6010    5.9550   -1.9490 hc        1 DT1      0.081000
     48 H5C2       -4.2680    5.3840   -0.6420 hc        1 DT1      0.081000
     49 H6C1       -3.9630    3.6540   -2.1290 hc        1 DT1      0.084500
     50 H6C2       -2.4660    4.0610   -2.4090 hc        1 DT1      0.084500
@<TRIPOS>BOND
     1    1    2 1   
     2    2    3 1   
     3    4   29 1   
     4    4   30 1   
     5    5    6 1   
     6    5    7 1   
     7    6   31 1   
     8    7    8 1   
     9    7   32 1   
    10    8   33 1   
    11    9   10 1   
    12    9   34 1   
    13   10   11 1   
    14   11   12 1   
    15   11   35 1   
    16   12   13 1   
    17   12   19 1   
    18   13   14 1   
    19   15   20 1   
    20   16   17 1   
    21   17   18 1   
    22   19   37 1   
    23   20   22 1   
    24   21   22 1   
    25   21   23 1   
    26   21   38 1   
    27   21   39 1   
    28   23   24 1   
    29   23   28 1   
    30   23   40 1   
    31   24   25 1   
    32   24   41 1   
    33   24   42 1   
    34   25   26 1   
    35   25   43 1   
    36   25   44 1   
    37   26   27 1   
    38   26   45 1   
    39   26   46 1   
    40   27   28 1   
    41   27   47 1   
    42   27   48 1   
    43   28   49 1   
    44   28   50 1   
@<TRIPOS>SUBSTRUCTURE
     1 DT1         1 TEMP              0 ****  ****    0 ROOT
