@<TRIPOS>MOLECULE
DT2
   51    54     1     0     0
SMALL
bcc


@<TRIPOS>ATOM
      1 O2          2.2720    0.5780    1.4730 o         1 DT2     -0.516300
      2 S1          2.8870    0.2620    0.2870 sy        1 DT2      1.448200
      3 O3          4.1210   -0.3180    0.1320 o         1 DT2     -0.516300
      4 N6          1.7680   -1.0960   -0.3500 n4        1 DT2     -0.808500
      5 C16         2.6280    1.4480   -0.8580 ca        1 DT2     -0.426500
      6 C15         1.6930    2.4720   -0.6260 ca        1 DT2      0.025500
      7 C14         1.6210    3.5940   -1.4510 ca        1 DT2     -0.105000
      8 C13         2.5070    3.7000   -2.5380 ca        1 DT2      0.044600
      9 C18         3.4100    2.6640   -2.8280 ca        1 DT2     -0.105000
     10 C17         3.4620    1.5530   -1.9820 ca        1 DT2      0.025500
     11 N5          2.5660    4.9520   -3.3210 n4        1 DT2     -0.528800
     12 C9          1.4860    5.1350   -4.3230 cc        1 DT2      0.125300
     13 N2          1.3020    4.1840   -5.3060 na        1 DT2      0.001200
     14 N3          1.9380    3.0360   -5.5580 nc        1 DT2     -0.580100
     15 C11         1.3430    2.5610   -6.7050 cd        1 DT2      0.616200
     16 C10         0.2620    4.4290   -6.3670 cc        1 DT2      0.426500
     17 N4          0.3240    3.3670   -7.2220 nd        1 DT2     -0.218300
     18 N1         -0.5120    5.5630   -6.3490 nc        1 DT2     -0.521000
     19 C7         -0.2940    6.4450   -5.3700 cd        1 DT2      0.549200
     20 C8          0.6930    6.2830   -4.3210 cd        1 DT2     -0.251300
     21 N7         -1.1270    7.6670   -5.3740 n4        1 DT2     -0.768700
     22 C1         -0.7800    8.6410   -6.5100 c3        1 DT2      0.134500
     23 C2         -1.9110    9.6660   -6.6590 c3        1 DT2     -0.103400
     24 C3         -1.5850   10.5810   -7.8290 c3        1 DT2     -0.078400
     25 C4         -0.2480   11.2650   -7.6460 c3        1 DT2     -0.097400
     26 C5          0.8620   10.2610   -7.4220 c3        1 DT2     -0.078400
     27 C6          0.5510    9.3440   -6.2480 c3        1 DT2     -0.103400
     28 H6N1        2.3110   -1.9470   -0.5400 hn        1 DT2      0.478133
     29 H6N2        1.0710   -1.3490    0.3590 hn        1 DT2      0.478133
     30 H15         1.0190    2.4200    0.2570 ha        1 DT2      0.208500
     31 H14         0.8880    4.3840   -1.2120 ha        1 DT2      0.194500
     32 H18         4.0960    2.7040   -3.6970 ha        1 DT2      0.194500
     33 H17         4.2170    0.7650   -2.1950 ha        1 DT2      0.208500
     34 H5          3.4750    4.9790   -3.8250 hn        1 DT2      0.497300
     35 H11         1.6430    1.6150   -7.2010 h5        1 DT2      0.146800
     36 H8          0.8190    7.0650   -3.5540 ha        1 DT2      0.199000
     37 H7         -1.0160    8.1520   -4.4760 hn        1 DT2      0.477300
     38 H1         -0.7140    8.0210   -7.4550 hx        1 DT2      0.131700
     39 H2C1       -2.8890    9.1540   -6.8570 hc        1 DT2      0.063200
     40 H2C2       -2.0100   10.2800   -5.7250 hc        1 DT2      0.063200
     41 H3C1       -1.5890    9.9910   -8.7840 hc        1 DT2      0.081950
     42 H3C2       -2.3980   11.3530   -7.9100 hc        1 DT2      0.081950
     43 H4C1       -0.0160   11.8740   -8.5610 hc        1 DT2      0.082700
     44 H4C2       -0.2990   11.9760   -6.7800 hc        1 DT2      0.082700
     45 H5C1        1.8230   10.8000   -7.2090 hc        1 DT2      0.081950
     46 H5C2        1.0170    9.6480   -8.3490 hc        1 DT2      0.081950
     47 H6C1        0.4910    9.9590   -5.3110 hc        1 DT2      0.063200
     48 H6C2        1.3740    8.5930   -6.1310 hc        1 DT2      0.063200
     49 H63         1.2600   -0.8710   -1.2020 hn        1 DT2      0.478133
     50 H52         2.5310    5.7480   -2.6610 hn        1 DT2      0.497300
     51 H72        -2.1230    7.4040   -5.4870 hn        1 DT2      0.477300
@<TRIPOS>BOND
     1    1    2 2   
     2    2    3 2   
     3    2    4 1   
     4    2    5 1   
     5    4   28 1   
     6    4   29 1   
     7    4   49 1   
     8    5    6 ar  
     9    5   10 ar  
    10    6    7 ar  
    11    6   30 1   
    12    7    8 ar  
    13    7   31 1   
    14    8    9 ar  
    15    8   11 1   
    16    9   10 ar  
    17    9   32 1   
    18   10   33 1   
    19   11   12 1   
    20   11   34 1   
    21   11   50 1   
    22   12   13 1   
    23   12   20 2   
    24   13   14 1   
    25   13   16 1   
    26   14   15 2   
    27   15   17 1   
    28   15   35 1   
    29   16   17 2   
    30   16   18 1   
    31   18   19 2   
    32   19   20 1   
    33   19   21 1   
    34   20   36 1   
    35   21   22 1   
    36   21   37 1   
    37   21   51 1   
    38   22   23 1   
    39   22   27 1   
    40   22   38 1   
    41   23   24 1   
    42   23   39 1   
    43   23   40 1   
    44   24   25 1   
    45   24   41 1   
    46   24   42 1   
    47   25   26 1   
    48   25   43 1   
    49   25   44 1   
    50   26   27 1   
    51   26   45 1   
    52   26   46 1   
    53   27   47 1   
    54   27   48 1   
@<TRIPOS>SUBSTRUCTURE
     1 DT2         1 TEMP              0 ****  ****    0 ROOT
