@<TRIPOS>MOLECULE
DT2
   48    51     1     0     0
SMALL
bcc


@<TRIPOS>ATOM
      1 O2          4.5990   -3.1760   -1.2370 o         1 DT2     -0.659800
      2 S1          5.1930   -2.1570   -0.4620 sy        1 DT2      1.533200
      3 O3          6.0120   -2.5450    0.6210 o         1 DT2     -0.659800
      4 N6          6.0270   -1.1860   -1.4270 n3        1 DT2     -1.026700
      5 C16         3.9690   -1.1620    0.1300 ca        1 DT2     -0.422500
      6 C15         2.7460   -1.0480   -0.5400 ca        1 DT2      0.018500
      7 C14         1.7170   -0.2560   -0.0510 ca        1 DT2     -0.209500
      8 C13         1.8850    0.4560    1.1590 ca        1 DT2      0.219600
      9 C18         3.1260    0.3510    1.8390 ca        1 DT2     -0.209500
     10 C17         4.1330   -0.4500    1.3250 ca        1 DT2      0.018500
     11 N5          0.8750    1.2330    1.7400 nh        1 DT2     -0.632000
     12 C9         -0.3930    1.3930    1.1510 cc        1 DT2      0.292300
     13 N2         -0.9250    2.6740    0.9590 na        1 DT2     -0.047800
     14 N3         -0.4040    3.8830    1.2510 nc        1 DT2     -0.606100
     15 C11        -1.3970    4.7560    0.9140 cd        1 DT2      0.539200
     16 C10        -2.2950    2.8240    0.4410 cc        1 DT2      0.456500
     17 N4         -2.5670    4.1730    0.4170 nd        1 DT2     -0.379300
     18 N1         -3.0720    1.7510    0.0770 nc        1 DT2     -0.716000
     19 C7         -2.5250    0.5220    0.2360 cd        1 DT2      0.713200
     20 C8         -1.1970    0.3120    0.8020 cd        1 DT2     -0.371300
     21 N7         -3.1970   -0.6130   -0.2070 nh        1 DT2     -0.834900
     22 C1         -4.6000   -0.5880   -0.5870 c3        1 DT2      0.208500
     23 C2         -4.9580   -1.8510   -1.3940 c3        1 DT2     -0.093400
     24 C3         -6.3910   -1.7700   -1.8760 c3        1 DT2     -0.074900
     25 C4         -7.3570   -1.6040   -0.7210 c3        1 DT2     -0.081400
     26 C5         -6.9960   -0.3990    0.1220 c3        1 DT2     -0.074900
     27 C6         -5.5630   -0.4690    0.6070 c3        1 DT2     -0.093400
     28 H6N1        6.8020   -0.6500   -1.1270 hn        1 DT2      0.447800
     29 H6N2        5.8390   -1.0790   -2.3910 hn        1 DT2      0.447800
     30 H15         2.5900   -1.6150   -1.4760 ha        1 DT2      0.156500
     31 H14         0.7770   -0.1820   -0.6200 ha        1 DT2      0.150500
     32 H18         3.2940    0.8950    2.7810 ha        1 DT2      0.150500
     33 H17         5.0840   -0.5460    1.8810 ha        1 DT2      0.156500
     34 H5          1.1950    1.9820    2.3240 hn        1 DT2      0.459800
     35 H11        -1.2950    5.8440    1.0180 h5        1 DT2      0.079800
     36 H8         -0.8250   -0.7110    0.9590 ha        1 DT2      0.171000
     37 H7         -2.8900   -1.4660    0.2100 hn        1 DT2      0.419800
     38 H1         -4.7590    0.3090   -1.2580 h1        1 DT2      0.092700
     39 H2C1       -4.2730   -1.9470   -2.2770 hc        1 DT2      0.047950
     40 H2C2       -4.8260   -2.7630   -0.7560 hc        1 DT2      0.047950
     41 H3C1       -6.5010   -0.9050   -2.5830 hc        1 DT2      0.046450
     42 H3C2       -6.6410   -2.7040   -2.4440 hc        1 DT2      0.046450
     43 H4C1       -8.3990   -1.4880   -1.1170 hc        1 DT2      0.042200
     44 H4C2       -7.3400   -2.5270   -0.0830 hc        1 DT2      0.042200
     45 H5C1       -7.1410    0.5370   -0.4790 hc        1 DT2      0.046450
     46 H5C2       -7.6820   -0.3400    1.0070 hc        1 DT2      0.046450
     47 H6C1       -5.4380   -1.3530    1.2860 hc        1 DT2      0.047950
     48 H6C2       -5.3270    0.4550    1.1960 hc        1 DT2      0.047950
@<TRIPOS>BOND
     1    1    2 2   
     2    2    3 2   
     3    2    4 1   
     4    2    5 1   
     5    4   28 1   
     6    4   29 1   
     7    5    6 ar  
     8    5   10 ar  
     9    6    7 ar  
    10    6   30 1   
    11    7    8 ar  
    12    7   31 1   
    13    8    9 ar  
    14    8   11 1   
    15    9   10 ar  
    16    9   32 1   
    17   10   33 1   
    18   11   12 1   
    19   11   34 1   
    20   12   13 1   
    21   12   20 2   
    22   13   14 1   
    23   13   16 1   
    24   14   15 2   
    25   15   17 1   
    26   15   35 1   
    27   16   17 2   
    28   16   18 1   
    29   18   19 2   
    30   19   20 1   
    31   19   21 1   
    32   20   36 1   
    33   21   22 1   
    34   21   37 1   
    35   22   23 1   
    36   22   27 1   
    37   22   38 1   
    38   23   24 1   
    39   23   39 1   
    40   23   40 1   
    41   24   25 1   
    42   24   41 1   
    43   24   42 1   
    44   25   26 1   
    45   25   43 1   
    46   25   44 1   
    47   26   27 1   
    48   26   45 1   
    49   26   46 1   
    50   27   47 1   
    51   27   48 1   
@<TRIPOS>SUBSTRUCTURE
     1 DT2         1 TEMP              0 ****  ****    0 ROOT
