@<TRIPOS>MOLECULE
DT2
   49    52     1     0     0
SMALL
bcc


@<TRIPOS>ATOM
      1 O2          0.3690   -0.3020    0.4180 o         1 DT2     -0.579800
      2 S1          1.6980    0.0270    0.2460 sy        1 DT2      1.516200
      3 O3          2.6390   -0.2640    1.2120 o         1 DT2     -0.579800
      4 N6          2.1750   -1.3510   -1.0590 n4        1 DT2     -0.781500
      5 C16         1.9940    1.2780   -0.6540 ca        1 DT2     -0.651500
      6 C15         0.9910    1.8560   -1.4810 ca        1 DT2      0.054000
      7 C14         1.2230    2.9650   -2.2520 ca        1 DT2     -0.212500
      8 C13         2.5070    3.5950   -2.2490 ca        1 DT2      0.330600
      9 C18         3.5160    3.0460   -1.3900 ca        1 DT2     -0.212500
     10 C17         3.2540    1.9340   -0.6330 ca        1 DT2      0.054000
     11 N5          2.7750    4.7220   -2.9750 nh        1 DT2     -0.609000
     12 C9          1.9690    5.1620   -4.0640 cc        1 DT2      0.234300
     13 N2          1.6980    4.3080   -5.1310 na        1 DT2     -0.049800
     14 N3          2.0480    3.0230   -5.3350 nc        1 DT2     -0.627100
     15 C11         1.5230    2.7370   -6.5640 cd        1 DT2      0.551200
     16 C10         0.9280    4.8190   -6.2850 cc        1 DT2      0.465500
     17 N4          0.8340    3.7830   -7.1830 nd        1 DT2     -0.356300
     18 N1          0.4570    6.1060   -6.3430 nc        1 DT2     -0.697000
     19 C7          0.7010    6.9050   -5.2750 cd        1 DT2      0.718200
     20 C8          1.4770    6.4550   -4.1130 cd        1 DT2     -0.311300
     21 N7          0.1660    8.1750   -5.2120 nh        1 DT2     -0.833900
     22 C1         -0.5080    8.8180   -6.3300 c3        1 DT2      0.212500
     23 C2         -1.3650    9.9970   -5.8330 c3        1 DT2     -0.092400
     24 C3         -2.1380   10.5960   -6.9890 c3        1 DT2     -0.076400
     25 C4         -1.2140   11.0550   -8.0970 c3        1 DT2     -0.083400
     26 C5         -0.3220    9.9260   -8.5660 c3        1 DT2     -0.076400
     27 C6          0.4570    9.3190   -7.4180 c3        1 DT2     -0.092400
     28 H6N1        2.9330   -1.9250   -0.7020 hn        1 DT2      0.448133
     29 H6N2        1.3780   -1.9570   -1.2350 hn        1 DT2      0.448133
     30 H15        -0.0170    1.3970   -1.4860 ha        1 DT2      0.166000
     31 H14         0.4090    3.3740   -2.8740 ha        1 DT2      0.174000
     32 H18         4.5110    3.5190   -1.3380 ha        1 DT2      0.174000
     33 H17         4.0470    1.5320    0.0290 ha        1 DT2      0.166000
     34 H5          3.7010    5.1010   -2.9500 hn        1 DT2      0.472800
     35 H11         1.6320    1.7580   -7.0500 h5        1 DT2      0.085800
     36 H8          1.6620    7.1510   -3.2810 ha        1 DT2      0.174000
     37 H7          0.5600    8.7850   -4.5300 hn        1 DT2      0.433800
     38 H1         -1.2030    8.0560   -6.7980 h1        1 DT2      0.093700
     39 H2C1       -2.0820    9.6460   -5.0460 hc        1 DT2      0.048700
     40 H2C2       -0.7070   10.7810   -5.3750 hc        1 DT2      0.048700
     41 H3C1       -2.8600    9.8370   -7.3910 hc        1 DT2      0.051950
     42 H3C2       -2.7390   11.4660   -6.6140 hc        1 DT2      0.051950
     43 H4C1       -1.8230   11.4350   -8.9590 hc        1 DT2      0.049200
     44 H4C2       -0.5830   11.9070   -7.7310 hc        1 DT2      0.049200
     45 H5C1        0.3990   10.3100   -9.3350 hc        1 DT2      0.051950
     46 H5C2       -0.9450    9.1320   -9.0570 hc        1 DT2      0.051950
     47 H6C1        1.1510   10.0870   -6.9860 hc        1 DT2      0.048700
     48 H6C2        1.0770    8.4680   -7.8010 hc        1 DT2      0.048700
     49 H63         2.4690   -0.9500   -1.9420 hn        1 DT2      0.448133
@<TRIPOS>BOND
     1    1    2 2   
     2    2    3 2   
     3    2    4 1   
     4    2    5 1   
     5    4   28 1   
     6    4   29 1   
     7    4   49 1   
     8    5    6 ar  
     9    5   10 ar  
    10    6    7 ar  
    11    6   30 1   
    12    7    8 ar  
    13    7   31 1   
    14    8    9 ar  
    15    8   11 1   
    16    9   10 ar  
    17    9   32 1   
    18   10   33 1   
    19   11   12 1   
    20   11   34 1   
    21   12   13 1   
    22   12   20 2   
    23   13   14 1   
    24   13   16 1   
    25   14   15 2   
    26   15   17 1   
    27   15   35 1   
    28   16   17 2   
    29   16   18 1   
    30   18   19 2   
    31   19   20 1   
    32   19   21 1   
    33   20   36 1   
    34   21   22 1   
    35   21   37 1   
    36   22   23 1   
    37   22   27 1   
    38   22   38 1   
    39   23   24 1   
    40   23   39 1   
    41   23   40 1   
    42   24   25 1   
    43   24   41 1   
    44   24   42 1   
    45   25   26 1   
    46   25   43 1   
    47   25   44 1   
    48   26   27 1   
    49   26   45 1   
    50   26   46 1   
    51   27   47 1   
    52   27   48 1   
@<TRIPOS>SUBSTRUCTURE
     1 DT2         1 TEMP              0 ****  ****    0 ROOT
