@<TRIPOS>MOLECULE
DT2
   48    42     1     0     0
SMALL
bcc


@<TRIPOS>ATOM
      1 O2         -0.8560    2.5110    7.5540 o         1 DT2     -0.939000
      2 S1          0.2690    1.7140    7.1450 ss        1 DT2      2.872000
      3 O3          0.1760    0.6170    8.0520 o         1 DT2     -0.939000
      4 N6          1.6620    2.5220    7.3370 n2        1 DT2     -0.953000
      5 C16         0.0980    1.1690    5.4490 c1        1 DT2     -0.868000
      6 C15         0.5190   -0.1080    5.0800 c1        1 DT2      0.018000
      7 C14         0.3890   -0.5300    3.7600 c1        1 DT2     -0.205000
      8 C13        -0.1640    0.3250    2.8060 c1        1 DT2      0.141000
      9 C18        -0.5840    1.5980    3.1730 c1        1 DT2     -0.216000
     10 C17        -0.4530    2.0220    4.4960 c2        1 DT2      0.020000
     11 N5         -0.3470   -0.1270    1.4700 n3        1 DT2     -0.265000
     12 C9          0.5530    0.3230    0.4210 c2        1 DT2      0.235000
     13 N2          1.5460    1.2470    0.2940 n2        1 DT2     -0.164000
     14 N3          2.2820    1.9250    1.2140 n1        1 DT2     -0.149500
     15 C11         3.1510    2.7360    0.5440 c1        1 DT2     -0.097000
     16 C10         1.9530    1.6330   -0.9300 c1        1 DT2      0.106000
     17 N4          2.9520    2.5590   -0.7720 n1        1 DT2     -0.149500
     18 N1          1.3570    1.0860   -2.0710 n1        1 DT2     -0.193000
     19 C7          0.3840    0.1810   -1.9480 c1        1 DT2      0.193000
     20 C8         -0.0330   -0.2140   -0.7020 c1        1 DT2     -0.305000
     21 N7         -0.1990   -0.8240   -2.7750 n3        1 DT2     -0.277000
     22 C1         -0.4290   -0.5620   -4.1730 c3        1 DT2      0.016000
     23 C2          0.2830   -1.6250   -4.9930 c3        1 DT2     -0.174500
     24 C3         -0.3510   -2.9930   -4.8440 c3        1 DT2     -0.158500
     25 C4         -1.8410   -2.9690   -5.0940 c3        1 DT2     -0.160000
     26 C5         -2.5520   -1.9060   -4.2730 c3        1 DT2     -0.158500
     27 C6         -1.9160   -0.5380   -4.4240 c3        1 DT2     -0.174500
     28 H6N1        1.6500    3.4280    7.4710 hn        1 DT2      0.242500
     29 H6N2        2.4580    2.0590    7.3960 hn        1 DT2      0.242500
     30 H15         0.9060   -0.7070    5.7490 ha        1 DT2      0.157000
     31 H14         0.6810   -1.4150    3.5050 ha        1 DT2      0.147000
     32 H18        -0.9700    2.1950    2.5060 ha        1 DT2      0.150000
     33 H17        -0.7490    2.9180    4.7540 ha        1 DT2      0.155000
     34 H5         -0.9930   -0.7580    1.2830 hn        1 DT2      0.256000
     35 H11         3.7740    3.3810    0.9540 DU        1 DT2      0.209000
     36 H8         -0.7490   -0.8790   -0.6130 ha        1 DT2      0.172000
     37 H7         -0.5040   -1.5930   -2.4030 hn        1 DT2      0.218000
     38 H1         -0.0480    0.3310   -4.4010 h1        1 DT2      0.129000
     39 H2C1        1.1980   -1.6740   -4.7100 hc        1 DT2      0.096250
     40 H2C2        0.2570   -1.3650   -5.9370 hc        1 DT2      0.096250
     41 H3C1        0.0620   -3.6000   -5.4750 hc        1 DT2      0.078750
     42 H3C2       -0.1880   -3.3180   -3.9420 hc        1 DT2      0.078750
     43 H4C1       -2.2070   -3.8270   -4.8740 hc        1 DT2      0.083500
     44 H4C2       -2.0020   -2.7890   -6.0630 hc        1 DT2      0.083500
     45 H5C1       -3.4840   -1.8550   -4.5610 hc        1 DT2      0.078750
     46 H5C2       -2.5260   -2.1700   -3.3130 hc        1 DT2      0.078750
     47 H6C1       -2.3340    0.0770   -3.7870 hc        1 DT2      0.096250
     48 H6C2       -2.0790   -0.2100   -5.3340 hc        1 DT2      0.096250
@<TRIPOS>BOND
     1    1    2 1   
     2    2    3 1   
     3    4   28 1   
     4    4   29 1   
     5    5    6 1   
     6    5   10 1   
     7    6   30 1   
     8    7    8 1   
     9    7   31 1   
    10    8   11 1   
    11    9   10 1   
    12    9   32 1   
    13   10   33 1   
    14   11   12 1   
    15   11   34 1   
    16   12   13 1   
    17   12   20 1   
    18   13   16 1   
    19   14   15 1   
    20   15   17 1   
    21   18   19 1   
    22   19   21 1   
    23   20   36 1   
    24   21   22 1   
    25   21   37 1   
    26   22   23 1   
    27   22   27 1   
    28   22   38 1   
    29   23   24 1   
    30   23   39 1   
    31   23   40 1   
    32   24   25 1   
    33   24   41 1   
    34   24   42 1   
    35   25   26 1   
    36   25   43 1   
    37   25   44 1   
    38   26   27 1   
    39   26   45 1   
    40   26   46 1   
    41   27   47 1   
    42   27   48 1   
@<TRIPOS>SUBSTRUCTURE
     1 DT2         1 TEMP              0 ****  ****    0 ROOT
