@<TRIPOS>MOLECULE
DT2
   49    52     1     0     0
SMALL
bcc


@<TRIPOS>ATOM
      1 O2          0.3640   -0.3100    0.4100 o         1 DT2     -0.579800
      2 S1          1.6920    0.0220    0.2420 sy        1 DT2      1.516200
      3 O3          2.6300   -0.2680    1.2110 o         1 DT2     -0.579800
      4 N6          2.1750   -1.3520   -1.0630 nz        1 DT2     -0.781500
      5 C16         1.9880    1.2750   -0.6540 ca        1 DT2     -0.651500
      6 C15         0.9880    1.8530   -1.4840 ca        1 DT2      0.054000
      7 C14         1.2190    2.9630   -2.2520 ca        1 DT2     -0.212500
      8 C13         2.5020    3.5950   -2.2450 ca        1 DT2      0.330600
      9 C18         3.5090    3.0470   -1.3830 ca        1 DT2     -0.212500
     10 C17         3.2480    1.9340   -0.6280 ca        1 DT2      0.054000
     11 N5          2.7710    4.7240   -2.9690 nu        1 DT2     -0.609000
     12 C9          1.9680    5.1640   -4.0600 cc        1 DT2      0.234300
     13 N2          1.7000    4.3100   -5.1280 na        1 DT2     -0.049800
     14 N3          2.0530    3.0250   -5.3320 nc        1 DT2     -0.627100
     15 C11         1.5320    2.7400   -6.5640 cd        1 DT2      0.551200
     16 C10         0.9340    4.8210   -6.2840 cc        1 DT2      0.465500
     17 N4          0.8440    3.7860   -7.1840 nd        1 DT2     -0.356300
     18 N1          0.4610    6.1070   -6.3430 nc        1 DT2     -0.697000
     19 C7          0.7010    6.9060   -5.2740 cd        1 DT2      0.718200
     20 C8          1.4740    6.4560   -4.1090 cd        1 DT2     -0.311300
     21 N7          0.1650    8.1750   -5.2110 nu        1 DT2     -0.833900
     22 C1         -0.5070    8.8180   -6.3320 c3        1 DT2      0.212500
     23 C2         -1.3660    9.9960   -5.8350 c3        1 DT2     -0.092400
     24 C3         -2.1370   10.5950   -6.9940 c3        1 DT2     -0.076400
     25 C4         -1.2110   11.0560   -8.0990 c3        1 DT2     -0.083400
     26 C5         -0.3150    9.9280   -8.5660 c3        1 DT2     -0.076400
     27 C6          0.4610    9.3210   -7.4160 c3        1 DT2     -0.092400
     28 H6N1        2.9340   -1.9260   -0.7050 hn        1 DT2      0.448133
     29 H6N2        2.4710   -0.9490   -1.9450 hn        1 DT2      0.448133
     30 H15        -0.0200    1.3920   -1.4920 ha        1 DT2      0.166000
     31 H14         0.4070    3.3720   -2.8770 ha        1 DT2      0.174000
     32 H18         4.5030    3.5220   -1.3280 ha        1 DT2      0.174000
     33 H17         4.0390    1.5320    0.0350 ha        1 DT2      0.166000
     34 H5          3.6960    5.1050   -2.9410 hn        1 DT2      0.472800
     35 H11         1.6430    1.7610   -7.0500 h5        1 DT2      0.085800
     36 H8          1.6550    7.1510   -3.2760 ha        1 DT2      0.174000
     37 H7          0.5560    8.7850   -4.5280 hn        1 DT2      0.433800
     38 H1         -1.2000    8.0560   -6.8020 h1        1 DT2      0.093700
     39 H2C1       -2.0860    9.6440   -5.0510 hc        1 DT2      0.048700
     40 H2C2       -0.7100   10.7810   -5.3750 hc        1 DT2      0.048700
     41 H3C1       -2.7400   11.4640   -6.6200 hc        1 DT2      0.051950
     42 H3C2       -2.8570    9.8350   -7.3980 hc        1 DT2      0.051950
     43 H4C1       -0.5810   11.9080   -7.7300 hc        1 DT2      0.049200
     44 H4C2       -1.8170   11.4350   -8.9620 hc        1 DT2      0.049200
     45 H5C1        0.4070   10.3130   -9.3330 hc        1 DT2      0.051950
     46 H5C2       -0.9360    9.1340   -9.0590 hc        1 DT2      0.051950
     47 H6C1        1.1530   10.0890   -6.9820 hc        1 DT2      0.048700
     48 H6C2        1.0830    8.4700   -7.7980 hc        1 DT2      0.048700
     49 H63         1.3810   -1.9600   -1.2420 hn        1 DT2      0.448133
@<TRIPOS>BOND
     1    1    2 2   
     2    2    3 2   
     3    2    4 1   
     4    2    5 1   
     5    4   28 1   
     6    4   29 1   
     7    4   49 1   
     8    5    6 ar  
     9    5   10 ar  
    10    6    7 ar  
    11    6   30 1   
    12    7    8 ar  
    13    7   31 1   
    14    8    9 ar  
    15    8   11 1   
    16    9   10 ar  
    17    9   32 1   
    18   10   33 1   
    19   11   12 1   
    20   11   34 1   
    21   12   13 1   
    22   12   20 2   
    23   13   14 1   
    24   13   16 1   
    25   14   15 2   
    26   15   17 1   
    27   15   35 1   
    28   16   17 2   
    29   16   18 1   
    30   18   19 2   
    31   19   20 1   
    32   19   21 1   
    33   20   36 1   
    34   21   22 1   
    35   21   37 1   
    36   22   23 1   
    37   22   27 1   
    38   22   38 1   
    39   23   24 1   
    40   23   39 1   
    41   23   40 1   
    42   24   25 1   
    43   24   41 1   
    44   24   42 1   
    45   25   26 1   
    46   25   43 1   
    47   25   44 1   
    48   26   27 1   
    49   26   45 1   
    50   26   46 1   
    51   27   47 1   
    52   27   48 1   
@<TRIPOS>SUBSTRUCTURE
     1 DT2         1 TEMP              0 ****  ****    0 ROOT
