@<TRIPOS>MOLECULE
DT3
   20    19     1     0     0
SMALL
bcc


@<TRIPOS>ATOM
      1 C2          1.5260    0.0040   -0.1360 c3        1 DT3      0.139100
      2 O2         -0.3270    1.3950    0.4450 oh        1 DT3     -0.639800
      3 C3         -0.0130    0.0980   -0.0380 c3        1 DT3      0.213100
      4 O3          2.0610    0.0380    1.1790 oh        1 DT3     -0.577800
      5 C4         -0.5810   -1.0080    0.8170 c3        1 DT3     -0.331600
      6 S2         -2.3350   -1.2530    0.6170 s6        1 DT3      1.430800
      7 O4         -2.4820   -1.7920   -0.6810 o         1 DT3     -0.749867
      8 O5         -2.8680    0.0570    0.7550 o         1 DT3     -0.749867
      9 O6         -2.6910   -2.1390    1.6560 o         1 DT3     -0.749867
     10 C1          2.0610    1.1550   -0.9760 c3        1 DT3     -0.011300
     11 S1          3.8250    1.1560   -1.1860 sh        1 DT3     -0.435900
     12 H2          1.7860   -0.9780   -0.6240 h1        1 DT3      0.039700
     13 HO2        -1.2530    1.3730    0.7380 ho        1 DT3      0.451000
     14 H3         -0.4180    0.0040   -1.0900 h1        1 DT3      0.039700
     15 HO3         2.9840   -0.2320    1.0960 ho        1 DT3      0.380000
     16 H41        -0.3570   -0.7860    1.8890 h1        1 DT3      0.083200
     17 H42        -0.0610   -1.9640    0.5700 h1        1 DT3      0.083200
     18 H11         1.7240    2.1200   -0.5240 h1        1 DT3      0.091200
     19 H12         1.6460    1.0800   -2.0100 h1        1 DT3      0.091200
     20 HS1         4.1840    1.6120    0.0020 hs        1 DT3      0.203800
@<TRIPOS>BOND
     1    1    3 1   
     2    1    4 1   
     3    1   10 1   
     4    1   12 1   
     5    2    3 1   
     6    2   13 1   
     7    3    5 1   
     8    3   14 1   
     9    4   15 1   
    10    5    6 1   
    11    5   16 1   
    12    5   17 1   
    13    6    7 1   
    14    6    8 1   
    15    6    9 1   
    16   10   11 1   
    17   10   18 1   
    18   10   19 1   
    19   11   20 1   
@<TRIPOS>SUBSTRUCTURE
     1 DT3         1 TEMP              0 ****  ****    0 ROOT
