@<TRIPOS>MOLECULE
DT3
   20    19     1     0     0
SMALL
bcc


@<TRIPOS>ATOM
      1 C2          1.7320   -0.5790    0.2970 c3        1 DT3      0.144100
      2 O2          0.2680    0.9060    1.4030 oh        1 DT3     -0.659800
      3 C3          0.4140    0.2120    0.1680 c3        1 DT3      0.165100
      4 O3          1.7710   -1.3450    1.4890 oh        1 DT3     -0.609800
      5 C4         -0.7560   -0.6920   -0.1300 c3        1 DT3     -0.332600
      6 S2         -2.2200    0.1840   -0.6600 s6        1 DT3      1.431800
      7 O4         -1.8860    0.7090   -1.9280 o         1 DT3     -0.748533
      8 O5         -2.3800    1.1770    0.3440 o         1 DT3     -0.748533
      9 O6         -3.2330   -0.7950   -0.6780 o         1 DT3     -0.748533
     10 C1          2.9360    0.3570    0.2700 c3        1 DT3     -0.016300
     11 S1          3.5180    0.7430   -1.3550 sh        1 DT3     -0.428900
     12 H2          1.8080   -1.3350   -0.5350 h1        1 DT3      0.077700
     13 HO2        -0.6440    1.2410    1.4400 ho        1 DT3      0.460000
     14 H3          0.5180    0.9710   -0.6610 h1        1 DT3      0.042700
     15 HO3         1.3360   -0.8260    2.1790 ho        1 DT3      0.419000
     16 H41        -0.4710   -1.4110   -0.9340 h1        1 DT3      0.081700
     17 H42        -0.9960   -1.2940    0.7780 h1        1 DT3      0.081700
     18 H11         2.6900    1.2920    0.8290 h1        1 DT3      0.079200
     19 H12         3.8040   -0.1400    0.7700 h1        1 DT3      0.079200
     20 HS1         2.3980    1.2040   -1.8970 hs        1 DT3      0.227800
@<TRIPOS>BOND
     1    1    3 1   
     2    1    4 1   
     3    1   10 1   
     4    1   12 1   
     5    2    3 1   
     6    2   13 1   
     7    3    5 1   
     8    3   14 1   
     9    4   15 1   
    10    5    6 1   
    11    5   16 1   
    12    5   17 1   
    13    6    7 1   
    14    6    8 1   
    15    6    9 1   
    16   10   11 1   
    17   10   18 1   
    18   10   19 1   
    19   11   20 1   
@<TRIPOS>SUBSTRUCTURE
     1 DT3         1 TEMP              0 ****  ****    0 ROOT
