@<TRIPOS>MOLECULE
DT3
   20    18     1     0     0
SMALL
bcc


@<TRIPOS>ATOM
      1 C2          1.1160    0.0760    0.1110 c3        1 DT3      0.139100
      2 O2         -0.8430    0.5910    1.3680 oh        1 DT3     -0.639800
      3 C3         -0.3950    0.1140    0.1220 c3        1 DT3      0.213100
      4 O3          1.5940    0.0440    1.4350 oh        1 DT3     -0.577800
      5 C4         -0.9360   -1.2790   -0.1100 c3        1 DT3     -0.366100
      6 S2         -2.7080   -1.2300   -0.1250 s4        1 DT3      1.650500
      7 O4         -3.2890   -2.5490   -0.5740 o         1 DT3     -0.682400
      8 O5         -3.1920   -0.0940   -0.9940 os        1 DT3     -1.070000
      9 O6         -3.2660   -1.1240    1.2740 o         1 DT3     -0.682400
     10 C1          1.6460    1.3080   -0.5870 c3        1 DT3     -0.011300
     11 S1          3.4190    1.2720   -0.5830 sh        1 DT3     -0.435900
     12 H2          1.4180   -0.7230   -0.3640 h1        1 DT3      0.039700
     13 HO2        -1.2770    1.3580    1.2540 ho        1 DT3      0.451000
     14 H3         -0.7110    0.7080   -0.5870 h1        1 DT3      0.039700
     15 HO3         2.1770   -0.6220    1.5230 ho        1 DT3      0.380000
     16 H41        -0.6320   -1.8700    0.6080 h1        1 DT3      0.083200
     17 H42        -0.6120   -1.6160   -0.9690 h1        1 DT3      0.083200
     18 H11         1.3350    2.1080   -0.1170 h1        1 DT3      0.091200
     19 H12         1.3220    1.3250   -1.5090 h1        1 DT3      0.091200
     20 HS1         3.8310    2.2020   -1.1770 hs        1 DT3      0.203800
@<TRIPOS>BOND
     1    1    3 1   
     2    1    4 1   
     3    1   10 1   
     4    1   12 1   
     5    2    3 1   
     6    2   13 1   
     7    3    5 1   
     8    3   14 1   
     9    4   15 1   
    10    5    6 1   
    11    5   16 1   
    12    5   17 1   
    13    6    7 1   
    14    6    9 1   
    15   10   11 1   
    16   10   18 1   
    17   10   19 1   
    18   11   20 1   
@<TRIPOS>SUBSTRUCTURE
     1 DT3         1 TEMP              0 ****  ****    0 ROOT
