@<TRIPOS>MOLECULE
DT3
   20    19     1     0     0
SMALL
bcc


@<TRIPOS>ATOM
      1 C2          1.5220    0.0130   -0.1510 c3        1 DT3      0.139100
      2 O2         -0.3320    1.3880    0.4640 oh        1 DT3     -0.639800
      3 C3         -0.0150    0.0960   -0.0310 c3        1 DT3      0.213100
      4 O3          2.0750    0.0420    1.1570 oh        1 DT3     -0.577800
      5 C4         -0.5640   -1.0190    0.8240 c3        1 DT3     -0.331600
      6 S2         -2.3190   -1.2750    0.6460 s6        1 DT3      1.430800
      7 O4         -2.4810   -1.8060   -0.6530 o         1 DT3     -0.749867
      8 O5         -2.8590    0.0310    0.8010 o         1 DT3     -0.749867
      9 O6         -2.6550   -2.1700    1.6840 o         1 DT3     -0.749867
     10 C1          2.0380    1.1730   -0.9910 c3        1 DT3     -0.011300
     11 S1          3.7990    1.1880   -1.2250 sh        1 DT3     -0.435900
     12 H2          1.7820   -0.9640   -0.6480 h1        1 DT3      0.039700
     13 HO2        -1.2540    1.3580    0.7700 ho        1 DT3      0.451000
     14 H3         -0.4340    0.0060   -1.0790 h1        1 DT3      0.039700
     15 HO3         2.9990   -0.2210    1.0590 ho        1 DT3      0.380000
     16 H41        -0.3270   -0.8030    1.8940 h1        1 DT3      0.083200
     17 H42        -0.0420   -1.9700    0.5640 h1        1 DT3      0.083200
     18 H11         1.7010    2.1320   -0.5290 h1        1 DT3      0.091200
     19 H12         1.6090    1.1010   -2.0200 h1        1 DT3      0.091200
     20 HS1         4.1710    1.6380   -0.0390 hs        1 DT3      0.203800
@<TRIPOS>BOND
     1    1    3 1   
     2    1    4 1   
     3    1   10 1   
     4    1   12 1   
     5    2    3 1   
     6    2   13 1   
     7    3    5 1   
     8    3   14 1   
     9    4   15 1   
    10    5    6 1   
    11    5   16 1   
    12    5   17 1   
    13    6    7 1   
    14    6    8 1   
    15    6    9 1   
    16   10   11 1   
    17   10   18 1   
    18   10   19 1   
    19   11   20 1   
@<TRIPOS>SUBSTRUCTURE
     1 DT3         1 TEMP              0 ****  ****    0 ROOT
