@<TRIPOS>MOLECULE
DT4
   52    55     1     0     0
SMALL
bcc


@<TRIPOS>ATOM
      1 O2         -0.5090    0.3070    0.1710 o         1 DT4     -0.569800
      2 S1          0.8680    0.2810    0.1950 sy        1 DT4      1.506200
      3 O3          1.5760   -0.0480    1.3310 o         1 DT4     -0.569800
      4 N6          1.1540   -1.3460   -0.8230 n4        1 DT4     -0.784500
      5 C16         1.5870    1.2960   -0.7850 ca        1 DT4     -0.622500
      6 C15         0.8740    1.9750   -1.8050 ca        1 DT4      0.054000
      7 C14         1.4530    2.9510   -2.5790 ca        1 DT4     -0.203000
      8 C13         2.8140    3.3340   -2.3650 ca        1 DT4      0.314600
      9 C18         3.5520    2.6350   -1.3660 ca        1 DT4     -0.203000
     10 C17         2.9470    1.6600   -0.6080 ca        1 DT4      0.054000
     11 N5          3.3790    4.3000   -3.1690 nh        1 DT4     -0.622000
     12 C9          4.5240    5.0600   -2.8130 cc        1 DT4      0.262300
     13 N2          4.6440    5.6330   -1.5480 na        1 DT4     -0.041800
     14 N3          3.8320    5.5710   -0.4760 nc        1 DT4     -0.595100
     15 C11         4.4580    6.3460    0.4590 cd        1 DT4      0.560200
     16 C10         5.8130    6.4850   -1.2460 cc        1 DT4      0.445500
     17 N4          5.6650    6.9230    0.0440 nd        1 DT4     -0.344300
     18 N1          6.7940    6.7400   -2.1760 nc        1 DT4     -0.704000
     19 C7          6.6690    6.1460   -3.3810 cd        1 DT4      0.701200
     20 C8          5.5330    5.3000   -3.7380 cd        1 DT4     -0.321300
     21 N7          7.6810    6.2740   -4.3360 nh        1 DT4     -0.839900
     22 C1          8.8090    7.1600   -4.1280 c3        1 DT4      0.212500
     23 C2          9.9610    6.8160   -5.0920 c3        1 DT4     -0.099900
     24 C3         11.1840    7.6490   -4.7630 c3        1 DT4     -0.099400
     25 C4         10.8470    9.1390   -4.8870 c3        1 DT4      0.115500
     26 N8         12.0580    9.9920   -4.6040 n4        1 DT4     -0.842600
     27 C5          9.6900    9.5040   -3.9510 c3        1 DT4     -0.099400
     28 C6          8.4790    8.6560   -4.2830 c3        1 DT4     -0.099900
     29 H6N1        1.6820   -2.0170   -0.2680 hn        1 DT4      0.452133
     30 H6N2        1.6610   -1.1810   -1.6850 hn        1 DT4      0.452133
     31 H15        -0.1960    1.7280   -1.9610 ha        1 DT4      0.170000
     32 H14         0.8500    3.4580   -3.3520 ha        1 DT4      0.172500
     33 H18         4.6120    2.8810   -1.1830 ha        1 DT4      0.172500
     34 H17         3.5340    1.1540    0.1830 ha        1 DT4      0.170000
     35 H5          2.7920    4.7350   -3.8540 hn        1 DT4      0.470800
     36 H11         4.0540    6.5180    1.4680 h5        1 DT4      0.101800
     37 H8          5.4830    4.8450   -4.7390 ha        1 DT4      0.178000
     38 H7          7.3850    6.1660   -5.2820 hn        1 DT4      0.431800
     39 H1          9.1830    6.9910   -3.0710 h1        1 DT4      0.098700
     40 H2C1        9.6480    6.9960   -6.1540 hc        1 DT4      0.078200
     41 H2C2       10.2330    5.7310   -4.9950 hc        1 DT4      0.078200
     42 H3C1       11.5270    7.4140   -3.7200 hc        1 DT4      0.075700
     43 H3C2       12.0100    7.3750   -5.4720 hc        1 DT4      0.075700
     44 H4         10.5480    9.3660   -5.9560 hx        1 DT4      0.113700
     45 H8N1       12.3800    9.8350   -3.6430 hn        1 DT4      0.462467
     46 H8N2       11.8180   10.9820   -4.7160 hn        1 DT4      0.462467
     47 H5C1        9.4200   10.5870   -4.0670 hc        1 DT4      0.075700
     48 H5C2        9.9840    9.3300   -2.8810 hc        1 DT4      0.075700
     49 H6C1        8.1340    8.8710   -5.3280 hc        1 DT4      0.078200
     50 H6C2        7.6490    8.9430   -3.5820 hc        1 DT4      0.078200
     51 H63         0.2610   -1.7730   -1.0580 hn        1 DT4      0.452133
     52 H83        12.8140    9.7490   -5.2510 hn        1 DT4      0.462467
@<TRIPOS>BOND
     1    1    2 2   
     2    2    3 2   
     3    2    4 1   
     4    2    5 1   
     5    4   29 1   
     6    4   30 1   
     7    4   51 1   
     8    5    6 ar  
     9    5   10 ar  
    10    6    7 ar  
    11    6   31 1   
    12    7    8 ar  
    13    7   32 1   
    14    8    9 ar  
    15    8   11 1   
    16    9   10 ar  
    17    9   33 1   
    18   10   34 1   
    19   11   12 1   
    20   11   35 1   
    21   12   13 1   
    22   12   20 2   
    23   13   14 1   
    24   13   16 1   
    25   14   15 2   
    26   15   17 1   
    27   15   36 1   
    28   16   17 2   
    29   16   18 1   
    30   18   19 2   
    31   19   20 1   
    32   19   21 1   
    33   20   37 1   
    34   21   22 1   
    35   21   38 1   
    36   22   23 1   
    37   22   28 1   
    38   22   39 1   
    39   23   24 1   
    40   23   40 1   
    41   23   41 1   
    42   24   25 1   
    43   24   42 1   
    44   24   43 1   
    45   25   26 1   
    46   25   27 1   
    47   25   44 1   
    48   26   45 1   
    49   26   46 1   
    50   26   52 1   
    51   27   28 1   
    52   27   47 1   
    53   27   48 1   
    54   28   49 1   
    55   28   50 1   
@<TRIPOS>SUBSTRUCTURE
     1 DT4         1 TEMP              0 ****  ****    0 ROOT
