@<TRIPOS>MOLECULE
DT4
   50    53     1     0     0
SMALL
bcc


@<TRIPOS>ATOM
      1 O2         -6.7760    1.7470   -0.2300 o         1 DT4     -0.658800
      2 S1         -5.5170    2.2860   -0.5700 sy        1 DT4      1.532200
      3 O3         -5.2650    2.5730   -1.9290 o         1 DT4     -0.658800
      4 N6         -5.2630    3.6090    0.2980 n3        1 DT4     -1.027700
      5 C16        -4.3240    1.2280   -0.0230 ca        1 DT4     -0.420500
      6 C15        -4.5690    0.3600    1.0490 ca        1 DT4      0.017500
      7 C14        -3.6070   -0.5290    1.5000 ca        1 DT4     -0.208000
      8 C13        -2.3320   -0.5730    0.8760 ca        1 DT4      0.217600
      9 C18        -2.0910    0.2810   -0.2230 ca        1 DT4     -0.208000
     10 C17        -3.0760    1.1590   -0.6520 ca        1 DT4      0.017500
     11 N5         -1.3690   -1.4440    1.4030 nh        1 DT4     -0.631000
     12 C9         -0.0740   -1.5570    0.8650 cc        1 DT4      0.295300
     13 N2          0.4530   -2.8170    0.5520 na        1 DT4     -0.047800
     14 N3         -0.0980   -4.0410    0.6730 nc        1 DT4     -0.603100
     15 C11         0.9000   -4.8880    0.2870 cd        1 DT4      0.540200
     16 C10         1.8460   -2.9310    0.0900 cc        1 DT4      0.455500
     17 N4          2.1020   -4.2710   -0.0770 nd        1 DT4     -0.378300
     18 N1          2.6540   -1.8360   -0.1040 nc        1 DT4     -0.716000
     19 C7          2.1150   -0.6250    0.1700 cd        1 DT4      0.713200
     20 C8          0.7620   -0.4580    0.6860 cd        1 DT4     -0.374300
     21 N7          2.8250    0.5420   -0.1010 nh        1 DT4     -0.834900
     22 C1          4.2430    0.5310   -0.4180 c3        1 DT4      0.207500
     23 C2          4.6650    1.8750   -1.0390 c3        1 DT4     -0.091400
     24 C3          6.1140    1.8220   -1.4690 c3        1 DT4     -0.093400
     25 C4          7.0300    1.5320   -0.2700 c3        1 DT4      0.161500
     26 N8          8.4330    1.6070   -0.6330 n3        1 DT4     -0.901800
     27 C5          6.5990    0.1980    0.3650 c3        1 DT4     -0.093400
     28 C6          5.1490    0.2400    0.7900 c3        1 DT4     -0.091400
     29 H6N1       -4.6820    4.3530    0.0040 hn        1 DT4      0.446800
     30 H6N2       -5.6990    3.7850    1.1670 hn        1 DT4      0.446800
     31 H15        -5.5630    0.3720    1.5330 ha        1 DT4      0.157000
     32 H14        -3.8400   -1.2000    2.3410 ha        1 DT4      0.150500
     33 H18        -1.1310    0.2440   -0.7630 ha        1 DT4      0.150500
     34 H17        -2.8800    1.8040   -1.5280 ha        1 DT4      0.157000
     35 H5         -1.7370   -2.2580    1.8570 hn        1 DT4      0.459800
     36 H11         0.7790   -5.9780    0.2560 h5        1 DT4      0.080800
     37 H8          0.3950    0.5460    0.9410 ha        1 DT4      0.168000
     38 H7          2.5160    1.3410    0.4100 hn        1 DT4      0.418800
     39 H1          4.4150   -0.2780   -1.1910 h1        1 DT4      0.093700
     40 H2C1        4.5210    2.7030   -0.2970 hc        1 DT4      0.049700
     41 H2C2        4.0250    2.1000   -1.9320 hc        1 DT4      0.049700
     42 H3C1        6.3960    2.8050   -1.9300 hc        1 DT4      0.050200
     43 H3C2        6.2490    1.0290   -2.2500 hc        1 DT4      0.050200
     44 H4          6.8620    2.3460    0.4990 h1        1 DT4      0.057700
     45 H8N1        9.0040    1.3450    0.1470 hn        1 DT4      0.347300
     46 H8N2        8.6350    0.9960   -1.4000 hn        1 DT4      0.347300
     47 H5C1        6.7520   -0.6370   -0.3680 hc        1 DT4      0.050200
     48 H5C2        7.2360   -0.0180    1.2620 hc        1 DT4      0.050200
     49 H6C1        5.0070    1.0320    1.5720 hc        1 DT4      0.049700
     50 H6C2        4.8710   -0.7460    1.2460 hc        1 DT4      0.049700
@<TRIPOS>BOND
     1    1    2 2   
     2    2    3 2   
     3    2    4 1   
     4    2    5 1   
     5    4   29 1   
     6    4   30 1   
     7    5    6 ar  
     8    5   10 ar  
     9    6    7 ar  
    10    6   31 1   
    11    7    8 ar  
    12    7   32 1   
    13    8    9 ar  
    14    8   11 1   
    15    9   10 ar  
    16    9   33 1   
    17   10   34 1   
    18   11   12 1   
    19   11   35 1   
    20   12   13 1   
    21   12   20 2   
    22   13   14 1   
    23   13   16 1   
    24   14   15 2   
    25   15   17 1   
    26   15   36 1   
    27   16   17 2   
    28   16   18 1   
    29   18   19 2   
    30   19   20 1   
    31   19   21 1   
    32   20   37 1   
    33   21   22 1   
    34   21   38 1   
    35   22   23 1   
    36   22   28 1   
    37   22   39 1   
    38   23   24 1   
    39   23   40 1   
    40   23   41 1   
    41   24   25 1   
    42   24   42 1   
    43   24   43 1   
    44   25   26 1   
    45   25   27 1   
    46   25   44 1   
    47   26   45 1   
    48   26   46 1   
    49   27   28 1   
    50   27   47 1   
    51   27   48 1   
    52   28   49 1   
    53   28   50 1   
@<TRIPOS>SUBSTRUCTURE
     1 DT4         1 TEMP              0 ****  ****    0 ROOT
