@<TRIPOS>MOLECULE
DT4
   52    55     1     0     0
SMALL
bcc


@<TRIPOS>ATOM
      1 O2         -0.5090    0.3100    0.1760 o         1 DT4     -0.569800
      2 S1          0.8680    0.2820    0.1950 sy        1 DT4      1.506200
      3 O3          1.5790   -0.0530    1.3280 o         1 DT4     -0.569800
      4 N6          1.1480   -1.3430   -0.8280 nz        1 DT4     -0.784500
      5 C16         1.5860    1.2980   -0.7840 ca        1 DT4     -0.622500
      6 C15         0.8700    1.9810   -1.8000 ca        1 DT4      0.054000
      7 C14         1.4490    2.9590   -2.5720 ca        1 DT4     -0.203000
      8 C13         2.8110    3.3390   -2.3610 ca        1 DT4      0.314600
      9 C18         3.5520    2.6350   -1.3670 ca        1 DT4     -0.203000
     10 C17         2.9470    1.6590   -0.6110 ca        1 DT4      0.054000
     11 N5          3.3760    4.3070   -3.1640 nu        1 DT4     -0.622000
     12 C9          4.5230    5.0630   -2.8100 cc        1 DT4      0.262300
     13 N2          4.6480    5.6320   -1.5420 na        1 DT4     -0.041800
     14 N3          3.8390    5.5670   -0.4680 nc        1 DT4     -0.595100
     15 C11         4.4710    6.3380    0.4670 cd        1 DT4      0.560200
     16 C10         5.8200    6.4800   -1.2420 cc        1 DT4      0.445500
     17 N4          5.6770    6.9140    0.0510 nd        1 DT4     -0.344300
     18 N1          6.7980    6.7370   -2.1750 nc        1 DT4     -0.704000
     19 C7          6.6680    6.1470   -3.3800 cd        1 DT4      0.701200
     20 C8          5.5290    5.3040   -3.7370 cd        1 DT4     -0.321300
     21 N7          7.6780    6.2770   -4.3380 nu        1 DT4     -0.839900
     22 C1          8.8080    7.1600   -4.1310 c3        1 DT4      0.212500
     23 C2          9.9560    6.8170   -5.1010 c3        1 DT4     -0.099900
     24 C3         11.1810    7.6460   -4.7730 c3        1 DT4     -0.099400
     25 C4         10.8480    9.1370   -4.8880 c3        1 DT4      0.115500
     26 N8         12.0610    9.9860   -4.6060 nz        1 DT4     -0.842600
     27 C5          9.6940    9.5000   -3.9480 c3        1 DT4     -0.099400
     28 C6          8.4810    8.6570   -4.2790 c3        1 DT4     -0.099900
     29 H6N1        0.2530   -1.7670   -1.0620 hn        1 DT4      0.452133
     30 H6N2        1.6760   -2.0170   -0.2780 hn        1 DT4      0.452133
     31 H15        -0.2000    1.7380   -1.9530 ha        1 DT4      0.170000
     32 H14         0.8440    3.4690   -3.3420 ha        1 DT4      0.172500
     33 H18         4.6120    2.8780   -1.1870 ha        1 DT4      0.172500
     34 H17         3.5360    1.1490    0.1770 ha        1 DT4      0.170000
     35 H5          2.7870    4.7450   -3.8460 hn        1 DT4      0.470800
     36 H11         4.0700    6.5070    1.4780 h5        1 DT4      0.101800
     37 H8          5.4760    4.8530   -4.7390 ha        1 DT4      0.178000
     38 H7          7.3780    6.1730   -5.2840 hn        1 DT4      0.431800
     39 H1          9.1860    6.9860   -3.0760 h1        1 DT4      0.098700
     40 H2C1        9.6390    7.0030   -6.1600 hc        1 DT4      0.078200
     41 H2C2       10.2260    5.7310   -5.0100 hc        1 DT4      0.078200
     42 H3C1       11.5280    7.4060   -3.7320 hc        1 DT4      0.075700
     43 H3C2       12.0050    7.3730   -5.4860 hc        1 DT4      0.075700
     44 H4         10.5460    9.3690   -5.9560 hx        1 DT4      0.113700
     45 H8N1       12.8150    9.7440   -5.2570 hn        1 DT4      0.462467
     46 H8N2       12.3860    9.8240   -3.6470 hn        1 DT4      0.462467
     47 H5C1        9.9920    9.3220   -2.8790 hc        1 DT4      0.075700
     48 H5C2        9.4270   10.5850   -4.0580 hc        1 DT4      0.075700
     49 H6C1        7.6540    8.9420   -3.5740 hc        1 DT4      0.078200
     50 H6C2        8.1330    8.8760   -5.3220 hc        1 DT4      0.078200
     51 H63         1.6530   -1.1770   -1.6920 hn        1 DT4      0.452133
     52 H83        11.8230   10.9770   -4.7130 hn        1 DT4      0.462467
@<TRIPOS>BOND
     1    1    2 2   
     2    2    3 2   
     3    2    4 1   
     4    2    5 1   
     5    4   29 1   
     6    4   30 1   
     7    4   51 1   
     8    5    6 ar  
     9    5   10 ar  
    10    6    7 ar  
    11    6   31 1   
    12    7    8 ar  
    13    7   32 1   
    14    8    9 ar  
    15    8   11 1   
    16    9   10 ar  
    17    9   33 1   
    18   10   34 1   
    19   11   12 1   
    20   11   35 1   
    21   12   13 1   
    22   12   20 2   
    23   13   14 1   
    24   13   16 1   
    25   14   15 2   
    26   15   17 1   
    27   15   36 1   
    28   16   17 2   
    29   16   18 1   
    30   18   19 2   
    31   19   20 1   
    32   19   21 1   
    33   20   37 1   
    34   21   22 1   
    35   21   38 1   
    36   22   23 1   
    37   22   28 1   
    38   22   39 1   
    39   23   24 1   
    40   23   40 1   
    41   23   41 1   
    42   24   25 1   
    43   24   42 1   
    44   24   43 1   
    45   25   26 1   
    46   25   27 1   
    47   25   44 1   
    48   26   45 1   
    49   26   46 1   
    50   26   52 1   
    51   27   28 1   
    52   27   47 1   
    53   27   48 1   
    54   28   49 1   
    55   28   50 1   
@<TRIPOS>SUBSTRUCTURE
     1 DT4         1 TEMP              0 ****  ****    0 ROOT
