@<TRIPOS>MOLECULE
DT4
   54    57     1     0     0
SMALL
bcc


@<TRIPOS>ATOM
      1 O2          0.8610    0.5850    1.4280 o         1 DT4     -0.514300
      2 S1          1.6140   -0.0170    0.4520 sy        1 DT4      1.442200
      3 O3          2.6390   -0.9120    0.6380 o         1 DT4     -0.514300
      4 N6          0.3450   -1.0660   -0.4130 n4        1 DT4     -0.812500
      5 C16         2.0110    1.0850   -0.7480 ca        1 DT4     -0.410500
      6 C15         1.3310    2.3070   -0.8530 ca        1 DT4      0.026000
      7 C14         1.7580    3.3090   -1.7300 ca        1 DT4     -0.103500
      8 C13         2.8970    3.0840   -2.5200 ca        1 DT4      0.031600
      9 C18         3.5950    1.8650   -2.4390 ca        1 DT4     -0.103500
     10 C17         3.1420    0.8830   -1.5580 ca        1 DT4      0.026000
     11 N5          3.3140    4.1090   -3.5020 n4        1 DT4     -0.529800
     12 C9          4.4500    4.9800   -3.1030 cc        1 DT4      0.147300
     13 N2          4.4220    5.6350   -1.8890 na        1 DT4      0.010200
     14 N3          3.5270    5.6370   -0.8990 nc        1 DT4     -0.556100
     15 C11         4.0360    6.5180    0.0290 cd        1 DT4      0.630200
     16 C10         5.5450    6.5860   -1.5500 cc        1 DT4      0.417500
     17 N4          5.2540    7.1090   -0.3250 nd        1 DT4     -0.215300
     18 N1          6.5830    6.7950   -2.4220 nc        1 DT4     -0.536000
     19 C7          6.5620    6.1280   -3.5760 cd        1 DT4      0.534200
     20 C8          5.5240    5.1960   -3.9710 cd        1 DT4     -0.269300
     21 N7          7.6630    6.3560   -4.5480 n4        1 DT4     -0.759700
     22 C1          8.8160    7.2630   -4.1180 c3        1 DT4      0.133500
     23 C2         10.0600    6.9460   -4.9660 c3        1 DT4     -0.104400
     24 C3         11.2270    7.8090   -4.5230 c3        1 DT4     -0.103900
     25 C4         10.8780    9.2950   -4.6770 c3        1 DT4      0.113500
     26 N8         12.0370   10.1780   -4.3120 n4        1 DT4     -0.837600
     27 C5          9.6340    9.6110   -3.8350 c3        1 DT4     -0.103900
     28 C6          8.4650    8.7480   -4.2720 c3        1 DT4     -0.104400
     29 H6N1       -0.5490   -1.0460    0.0970 hn        1 DT4      0.483800
     30 H6N2        0.1410   -0.8000   -1.3750 hn        1 DT4      0.483800
     31 H15         0.4460    2.5130   -0.2110 ha        1 DT4      0.212500
     32 H14         1.1880    4.2580   -1.7680 ha        1 DT4      0.192000
     33 H18         4.4890    1.6570   -3.0520 ha        1 DT4      0.192000
     34 H17         3.7130   -0.0690   -1.4870 ha        1 DT4      0.212500
     35 H5          2.4970    4.7260   -3.6900 hn        1 DT4      0.497800
     36 H11         3.5280    6.7560    0.9890 h5        1 DT4      0.158800
     37 H8          5.5800    4.6810   -4.9450 ha        1 DT4      0.200000
     38 H7          7.2400    6.7570   -5.4000 hn        1 DT4      0.477800
     39 H1          9.0420    7.0310   -3.0330 hx        1 DT4      0.140700
     40 H2C1        9.8510    7.1260   -6.0550 hc        1 DT4      0.094950
     41 H2C2       10.3640    5.8690   -4.8430 hc        1 DT4      0.094950
     42 H3C1       12.1170    7.5420   -5.1590 hc        1 DT4      0.102950
     43 H3C2       11.4910    7.5780   -3.4550 hc        1 DT4      0.102950
     44 H4         10.6530    9.5140   -5.7680 hx        1 DT4      0.126700
     45 H8N1       12.3050   10.0410   -3.3300 hn        1 DT4      0.479800
     46 H8N2       12.8460    9.9590   -4.9090 hn        1 DT4      0.479800
     47 H5C1        9.8470    9.4420   -2.7440 hc        1 DT4      0.102950
     48 H5C2        9.3360   10.6900   -3.9600 hc        1 DT4      0.102950
     49 H6C1        7.5800    9.0200   -3.6360 hc        1 DT4      0.094950
     50 H6C2        8.2070    8.9790   -5.3420 hc        1 DT4      0.094950
     51 H63         0.6410   -2.0510   -0.4330 hn        1 DT4      0.483800
     52 H52         3.5720    3.6270   -4.3810 hn        1 DT4      0.497800
     53 H72         8.0620    5.4320   -4.7760 hn        1 DT4      0.477800
     54 H83        11.7810   11.1650   -4.4490 hn        1 DT4      0.479800
@<TRIPOS>BOND
     1    1    2 2   
     2    2    3 2   
     3    2    4 1   
     4    2    5 1   
     5    4   29 1   
     6    4   30 1   
     7    4   51 1   
     8    5    6 ar  
     9    5   10 ar  
    10    6    7 ar  
    11    6   31 1   
    12    7    8 ar  
    13    7   32 1   
    14    8    9 ar  
    15    8   11 1   
    16    9   10 ar  
    17    9   33 1   
    18   10   34 1   
    19   11   12 1   
    20   11   35 1   
    21   11   52 1   
    22   12   13 1   
    23   12   20 2   
    24   13   14 1   
    25   13   16 1   
    26   14   15 2   
    27   15   17 1   
    28   15   36 1   
    29   16   17 2   
    30   16   18 1   
    31   18   19 2   
    32   19   20 1   
    33   19   21 1   
    34   20   37 1   
    35   21   22 1   
    36   21   38 1   
    37   21   53 1   
    38   22   23 1   
    39   22   28 1   
    40   22   39 1   
    41   23   24 1   
    42   23   40 1   
    43   23   41 1   
    44   24   25 1   
    45   24   42 1   
    46   24   43 1   
    47   25   26 1   
    48   25   27 1   
    49   25   44 1   
    50   26   45 1   
    51   26   46 1   
    52   26   54 1   
    53   27   28 1   
    54   27   47 1   
    55   27   48 1   
    56   28   49 1   
    57   28   50 1   
@<TRIPOS>SUBSTRUCTURE
     1 DT4         1 TEMP              0 ****  ****    0 ROOT
