@<TRIPOS>MOLECULE
DT4
   50    44     1     0     0
SMALL
bcc


@<TRIPOS>ATOM
      1 O2         -6.7530    2.9340   -0.0810 o         1 DT4     -0.939000
      2 S1         -6.2030    2.7640    1.2360 ss        1 DT4      2.872000
      3 O3         -5.4600    3.9840    1.3880 o         1 DT4     -0.939000
      4 N6         -7.3890    2.6430    2.3650 n2        1 DT4     -0.953000
      5 C16        -5.1380    1.3480    1.3100 c1        1 DT4     -0.868000
      6 C15        -4.3090    1.1630    2.4060 c1        1 DT4      0.018000
      7 C14        -3.4100    0.1080    2.4250 c1        1 DT4     -0.205000
      8 C13        -3.3390   -0.7620    1.3480 c1        1 DT4      0.141000
      9 C18        -4.1670   -0.5770    0.2530 c1        1 DT4     -0.216000
     10 C17        -5.0670    0.4770    0.2340 c2        1 DT4      0.020000
     11 N5         -2.4240   -1.8470    1.3710 n3        1 DT4     -0.265000
     12 C9         -1.0360   -1.6090    1.1880 c2        1 DT4      0.237000
     13 N2         -0.3220   -1.2930    2.3050 n2        1 DT4     -0.164000
     14 N3         -0.6930   -1.1180    3.6040 n1        1 DT4     -0.149000
     15 C11         0.4140   -0.8110    4.3170 c1        1 DT4     -0.097000
     16 C10         1.0080   -1.0940    2.2210 c1        1 DT4      0.106000
     17 N4          1.4670   -0.7950    3.4680 n1        1 DT4     -0.149000
     18 N1          1.6510   -1.2100    1.0000 n1        1 DT4     -0.192000
     19 C7          0.9490   -1.5220   -0.1020 c1        1 DT4      0.196000
     20 C8         -0.4010   -1.7250   -0.0180 c1        1 DT4     -0.307000
     21 N7          1.7490   -1.5350   -1.2750 n3        1 DT4     -0.284000
     22 C1          2.9010   -0.6880   -1.3660 c3        1 DT4      0.014000
     23 C2          4.1070   -1.5380   -1.7240 c3        1 DT4     -0.172500
     24 C3          5.3350   -0.7040   -2.0200 c3        1 DT4     -0.153500
     25 C4          5.0650    0.3830   -3.0470 c3        1 DT4     -0.027000
     26 N8          6.2180    1.2310   -3.1380 n3        1 DT4     -0.345000
     27 C5          3.8590    1.2330   -2.6890 c3        1 DT4     -0.153500
     28 C6          2.6310    0.3990   -2.3940 c3        1 DT4     -0.172500
     29 H6N1       -8.0650    2.0370    2.2550 hn        1 DT4      0.243000
     30 H6N2       -7.3900    3.2020    3.0890 hn        1 DT4      0.243000
     31 H15        -4.3590    1.7750    3.1640 ha        1 DT4      0.157000
     32 H14        -2.8260   -0.0220    3.1960 ha        1 DT4      0.147000
     33 H18        -4.1170   -1.1900   -0.5060 ha        1 DT4      0.149000
     34 H17        -5.6500    0.6070   -0.5380 ha        1 DT4      0.155000
     35 H5         -2.7280   -2.6980    1.4960 hn        1 DT4      0.256000
     36 H11         0.4470   -0.6290    5.2750 DU        1 DT4      0.209000
     37 H8         -0.9120   -1.9510   -0.8180 ha        1 DT4      0.171000
     38 H7          1.5200   -2.0710   -1.9770 hn        1 DT4      0.218000
     39 H1          3.0560   -0.2700   -0.4970 h1        1 DT4      0.136000
     40 H2C1        4.3050   -2.1370   -0.9770 hc        1 DT4      0.087500
     41 H2C2        3.8930   -2.0750   -2.5120 hc        1 DT4      0.087500
     42 H3C1        5.6410   -0.2860   -1.1900 hc        1 DT4      0.093750
     43 H3C2        6.0410   -1.2900   -2.3580 hc        1 DT4      0.093750
     44 H4          4.9100   -0.0360   -3.9170 h1        1 DT4      0.044000
     45 H8N1        6.0620    1.8930   -3.7510 hn        1 DT4      0.146500
     46 H8N2        6.9420    0.7340   -3.4020 hn        1 DT4      0.146500
     47 H5C1        4.0740    1.7700   -1.9010 hc        1 DT4      0.093750
     48 H5C2        3.6610    1.8320   -3.4370 hc        1 DT4      0.093750
     49 H6C1        2.3260   -0.0190   -3.2230 hc        1 DT4      0.087500
     50 H6C2        1.9250    0.9850   -2.0560 hc        1 DT4      0.087500
@<TRIPOS>BOND
     1    1    2 1   
     2    2    3 1   
     3    4   29 1   
     4    4   30 1   
     5    5    6 1   
     6    5   10 1   
     7    6   31 1   
     8    7    8 1   
     9    7   32 1   
    10    8   11 1   
    11    9   10 1   
    12    9   33 1   
    13   10   34 1   
    14   11   12 1   
    15   11   35 1   
    16   12   13 1   
    17   12   20 1   
    18   13   16 1   
    19   14   15 1   
    20   15   17 1   
    21   18   19 1   
    22   19   21 1   
    23   20   37 1   
    24   21   22 1   
    25   21   38 1   
    26   22   23 1   
    27   22   28 1   
    28   22   39 1   
    29   23   24 1   
    30   23   40 1   
    31   23   41 1   
    32   24   25 1   
    33   24   42 1   
    34   24   43 1   
    35   25   26 1   
    36   25   27 1   
    37   25   44 1   
    38   26   45 1   
    39   26   46 1   
    40   27   28 1   
    41   27   47 1   
    42   27   48 1   
    43   28   49 1   
    44   28   50 1   
@<TRIPOS>SUBSTRUCTURE
     1 DT4         1 TEMP              0 ****  ****    0 ROOT
