@<TRIPOS>MOLECULE
DT5
   48    51     1     0     0
SMALL
bcc


@<TRIPOS>ATOM
      1 N6         -0.0890   -0.3250    0.4120 nz        1 DT5     -0.781500
      2 S1          1.8470   -0.0410    0.4150 sy        1 DT5      1.516200
      3 O2          2.0560   -0.0340    1.7780 o         1 DT5     -0.579300
      4 O3          1.8860    1.1240   -0.3230 o         1 DT5     -0.579300
      5 C16         2.2540   -1.3550   -0.3410 ca        1 DT5     -0.651500
      6 C15         2.3750   -1.3950   -1.7570 ca        1 DT5      0.055000
      7 C17         2.5920   -2.5460    0.3580 ca        1 DT5      0.055000
      8 C18         2.9880   -3.6880   -0.2870 ca        1 DT5     -0.213000
      9 C14         2.7660   -2.5220   -2.4310 ca        1 DT5     -0.213000
     10 C13         3.0750   -3.7230   -1.7180 ca        1 DT5      0.330600
     11 N5          3.5030   -4.8620   -2.3420 nu        1 DT5     -0.608000
     12 C9          3.3720   -5.0950   -3.7380 cc        1 DT5      0.223300
     13 N2          2.1180   -5.0330   -4.3540 na        1 DT5     -0.042800
     14 C10         1.9950   -5.3540   -5.7920 cc        1 DT5      0.449500
     15 N1          3.0870   -5.7080   -6.5580 nc        1 DT5     -0.686000
     16 N4          0.6680   -5.2270   -6.1140 nd        1 DT5     -0.339300
     17 C11         0.0640   -4.8520   -4.9100 cd        1 DT5      0.545200
     18 N3          0.9110   -4.7270   -3.8440 nc        1 DT5     -0.612100
     19 C8          4.4660   -5.4360   -4.5150 cd        1 DT5     -0.267300
     20 C7          4.2650   -5.7370   -5.9250 cd        1 DT5      0.698600
     21 O1          5.4340   -6.0510   -6.5510 os        1 DT5     -0.436100
     22 C1          5.4200   -6.3980   -7.9650 c3        1 DT5      0.151100
     23 C2          6.8670   -6.1820   -8.4050 c3        1 DT5     -0.093400
     24 C3          7.0390   -6.6260   -9.8430 c3        1 DT5     -0.075900
     25 C4          6.6130   -8.0670  -10.0340 c3        1 DT5     -0.084400
     26 C5          5.1860   -8.2840   -9.5740 c3        1 DT5     -0.075900
     27 C6          4.9930   -7.8490   -8.1360 c3        1 DT5     -0.093400
     28 H6         -0.4390   -0.3590    1.3650 hn        1 DT5      0.448133
     29 H7         -0.3440   -1.1900   -0.0510 hn        1 DT5      0.448133
     30 H15         2.1610   -0.4710   -2.3300 ha        1 DT5      0.166500
     31 H17         2.5430   -2.5400    1.4650 ha        1 DT5      0.166500
     32 H18         3.2410   -4.5870    0.3020 ha        1 DT5      0.174000
     33 H14         2.8480   -2.4970   -3.5310 ha        1 DT5      0.174000
     34 H5          3.6910   -5.6750   -1.7890 hn        1 DT5      0.475800
     35 H11        -1.0190   -4.6810   -4.8410 h5        1 DT5      0.089800
     36 H8          5.4860   -5.4970   -4.1070 ha        1 DT5      0.195000
     37 H1          4.7350   -5.7050   -8.5220 h1        1 DT5      0.081700
     38 H2C1        7.5490   -6.7680   -7.7350 hc        1 DT5      0.057450
     39 H2C2        7.1320   -5.0990   -8.2990 hc        1 DT5      0.057450
     40 H3C1        8.1160   -6.5090  -10.1340 hc        1 DT5      0.051950
     41 H3C2        6.4340   -5.9630  -10.5150 hc        1 DT5      0.051950
     42 H4C1        6.7030   -8.3430  -11.1170 hc        1 DT5      0.050200
     43 H4C2        7.3000   -8.7400   -9.4560 hc        1 DT5      0.050200
     44 H5C1        4.9220   -9.3700   -9.6670 hc        1 DT5      0.051950
     45 H5C2        4.4860   -7.7090  -10.2360 hc        1 DT5      0.051950
     46 H6C1        3.9170   -7.9680   -7.8480 hc        1 DT5      0.057450
     47 H6C2        5.6050   -8.4950   -7.4540 hc        1 DT5      0.057450
     48 H63        -0.5540    0.4410   -0.0660 hn        1 DT5      0.448133
@<TRIPOS>BOND
     1    1    2 1   
     2    1   28 1   
     3    1   29 1   
     4    1   48 1   
     5    2    3 2   
     6    2    4 2   
     7    2    5 1   
     8    5    6 ar  
     9    5    7 ar  
    10    6    9 ar  
    11    6   30 1   
    12    7    8 ar  
    13    7   31 1   
    14    8   10 ar  
    15    8   32 1   
    16    9   10 ar  
    17    9   33 1   
    18   10   11 1   
    19   11   12 1   
    20   11   34 1   
    21   12   13 1   
    22   12   19 2   
    23   13   14 1   
    24   13   18 1   
    25   14   15 1   
    26   14   16 2   
    27   15   20 2   
    28   16   17 1   
    29   17   18 2   
    30   17   35 1   
    31   19   20 1   
    32   19   36 1   
    33   20   21 1   
    34   21   22 1   
    35   22   23 1   
    36   22   27 1   
    37   22   37 1   
    38   23   24 1   
    39   23   38 1   
    40   23   39 1   
    41   24   25 1   
    42   24   40 1   
    43   24   41 1   
    44   25   26 1   
    45   25   42 1   
    46   25   43 1   
    47   26   27 1   
    48   26   44 1   
    49   26   45 1   
    50   27   46 1   
    51   27   47 1   
@<TRIPOS>SUBSTRUCTURE
     1 DT5         1 TEMP              0 ****  ****    0 ROOT
