@<TRIPOS>MOLECULE
DT5
   48    51     1     0     0
SMALL
bcc


@<TRIPOS>ATOM
      1 N6         -0.0880   -0.3250    0.4110 n4        1 DT5     -0.781500
      2 S1          1.8480   -0.0490    0.4220 sy        1 DT5      1.516200
      3 O2          2.0520   -0.0480    1.7870 o         1 DT5     -0.579300
      4 O3          1.8960    1.1170   -0.3110 o         1 DT5     -0.579300
      5 C16         2.2520   -1.3630   -0.3350 ca        1 DT5     -0.651500
      6 C15         2.3790   -1.3990   -1.7510 ca        1 DT5      0.055000
      7 C17         2.5830   -2.5570    0.3610 ca        1 DT5      0.055000
      8 C18         2.9760   -3.7000   -0.2860 ca        1 DT5     -0.213000
      9 C14         2.7680   -2.5260   -2.4270 ca        1 DT5     -0.213000
     10 C13         3.0680   -3.7310   -1.7160 ca        1 DT5      0.330600
     11 N5          3.4940   -4.8690   -2.3420 nh        1 DT5     -0.608000
     12 C9          3.3670   -5.0970   -3.7400 cc        1 DT5      0.223300
     13 N2          2.1150   -5.0280   -4.3600 na        1 DT5     -0.042800
     14 C10         1.9960   -5.3440   -5.7990 cc        1 DT5      0.449500
     15 N1          3.0890   -5.7000   -6.5620 nc        1 DT5     -0.686000
     16 N4          0.6710   -5.2110   -6.1250 nd        1 DT5     -0.339300
     17 C11         0.0640   -4.8370   -4.9230 cd        1 DT5      0.545200
     18 N3          0.9080   -4.7180   -3.8530 nc        1 DT5     -0.612100
     19 C8          4.4630   -5.4410   -4.5140 cd        1 DT5     -0.267300
     20 C7          4.2650   -5.7370   -5.9260 cd        1 DT5      0.698600
     21 O1          5.4340   -6.0540   -6.5480 os        1 DT5     -0.436100
     22 C1          5.4240   -6.3960   -7.9640 c3        1 DT5      0.151100
     23 C2          6.8730   -6.1850   -8.3980 c3        1 DT5     -0.093400
     24 C3          7.0480   -6.6250   -9.8370 c3        1 DT5     -0.075900
     25 C4          6.6170   -8.0630  -10.0340 c3        1 DT5     -0.084400
     26 C5          5.1870   -8.2760   -9.5800 c3        1 DT5     -0.075900
     27 C6          4.9910   -7.8440   -8.1400 c3        1 DT5     -0.093400
     28 H6         -0.3460   -1.1870   -0.0560 hn        1 DT5      0.448133
     29 H7         -0.5480    0.4450   -0.0670 hn        1 DT5      0.448133
     30 H15         2.1710   -0.4730   -2.3230 ha        1 DT5      0.166500
     31 H17         2.5290   -2.5550    1.4680 ha        1 DT5      0.166500
     32 H18         3.2240   -4.6010    0.3010 ha        1 DT5      0.174000
     33 H14         2.8540   -2.4980   -3.5260 ha        1 DT5      0.174000
     34 H5          3.6770   -5.6850   -1.7910 hn        1 DT5      0.475800
     35 H11        -1.0180   -4.6600   -4.8570 h5        1 DT5      0.089800
     36 H8          5.4800   -5.5070   -4.1030 ha        1 DT5      0.195000
     37 H1          4.7430   -5.6980   -8.5210 h1        1 DT5      0.081700
     38 H2C1        7.1420   -5.1040   -8.2870 hc        1 DT5      0.057450
     39 H2C2        7.5510   -6.7760   -7.7280 hc        1 DT5      0.057450
     40 H3C1        6.4480   -5.9570  -10.5090 hc        1 DT5      0.051950
     41 H3C2        8.1260   -6.5110  -10.1240 hc        1 DT5      0.051950
     42 H4C1        7.2990   -8.7410   -9.4560 hc        1 DT5      0.050200
     43 H4C2        6.7090   -8.3360  -11.1170 hc        1 DT5      0.050200
     44 H5C1        4.9190   -9.3600   -9.6770 hc        1 DT5      0.051950
     45 H5C2        4.4920   -7.6960  -10.2420 hc        1 DT5      0.051950
     46 H6C1        5.5980   -8.4960   -7.4590 hc        1 DT5      0.057450
     47 H6C2        3.9140   -7.9600   -7.8560 hc        1 DT5      0.057450
     48 H63        -0.4430   -0.3600    1.3630 hn        1 DT5      0.448133
@<TRIPOS>BOND
     1    1    2 1   
     2    1   28 1   
     3    1   29 1   
     4    1   48 1   
     5    2    3 2   
     6    2    4 2   
     7    2    5 1   
     8    5    6 ar  
     9    5    7 ar  
    10    6    9 ar  
    11    6   30 1   
    12    7    8 ar  
    13    7   31 1   
    14    8   10 ar  
    15    8   32 1   
    16    9   10 ar  
    17    9   33 1   
    18   10   11 1   
    19   11   12 1   
    20   11   34 1   
    21   12   13 1   
    22   12   19 2   
    23   13   14 1   
    24   13   18 1   
    25   14   15 1   
    26   14   16 2   
    27   15   20 2   
    28   16   17 1   
    29   17   18 2   
    30   17   35 1   
    31   19   20 1   
    32   19   36 1   
    33   20   21 1   
    34   21   22 1   
    35   22   23 1   
    36   22   27 1   
    37   22   37 1   
    38   23   24 1   
    39   23   38 1   
    40   23   39 1   
    41   24   25 1   
    42   24   40 1   
    43   24   41 1   
    44   25   26 1   
    45   25   42 1   
    46   25   43 1   
    47   26   27 1   
    48   26   44 1   
    49   26   45 1   
    50   27   46 1   
    51   27   47 1   
@<TRIPOS>SUBSTRUCTURE
     1 DT5         1 TEMP              0 ****  ****    0 ROOT
