@<TRIPOS>MOLECULE
DT5
   49    52     1     0     0
SMALL
bcc


@<TRIPOS>ATOM
      1 N6          0.4460    0.4340   -1.0130 n4        1 DT5     -0.801500
      2 S1          1.6850   -0.1530    0.2820 sy        1 DT5      1.462200
      3 O2          0.8470   -0.3940    1.3440 o         1 DT5     -0.531300
      4 O3          2.6150    0.8570    0.2220 o         1 DT5     -0.531300
      5 C16         2.2010   -1.5350   -0.4470 ca        1 DT5     -0.462500
      6 C15         3.3550   -1.5340   -1.2530 ca        1 DT5      0.021500
      7 C17         1.5820   -2.7670   -0.1750 ca        1 DT5      0.021500
      8 C18         2.0910   -3.9650   -0.6760 ca        1 DT5     -0.104500
      9 C14         3.8840   -2.7150   -1.7650 ca        1 DT5     -0.104500
     10 C13         3.2510   -3.9350   -1.4670 ca        1 DT5      0.075600
     11 N5          3.8270   -5.1970   -1.9640 n4        1 DT5     -0.529800
     12 C9          3.5420   -5.4380   -3.4030 cc        1 DT5      0.092300
     13 N2          2.2310   -5.6000   -3.8100 na        1 DT5     -0.048800
     14 C10         1.9560   -5.9360   -5.2420 cc        1 DT5      0.483500
     15 N1          2.9710   -6.0170   -6.1640 nc        1 DT5     -0.655000
     16 N4          0.6050   -6.1160   -5.3340 nd        1 DT5     -0.304300
     17 C11         0.1320   -5.9170   -4.0320 cd        1 DT5      0.596200
     18 N3          1.0860   -5.6090   -3.1000 nc        1 DT5     -0.650100
     19 C8          4.5670   -5.5210   -4.3250 cd        1 DT5     -0.242300
     20 C7          4.2180   -5.8180   -5.7180 cd        1 DT5      0.719600
     21 O1          5.3100   -5.8530   -6.5110 os        1 DT5     -0.429100
     22 C1          5.1770   -6.2060   -7.9310 c3        1 DT5      0.155100
     23 C2          6.4780   -5.6930   -8.5420 c3        1 DT5     -0.094400
     24 C3          6.5480   -6.1000  -10.0000 c3        1 DT5     -0.076900
     25 C4          6.4070   -7.5980  -10.1660 c3        1 DT5     -0.088400
     26 C5          5.1290   -8.1060   -9.5320 c3        1 DT5     -0.076900
     27 C6          5.0400   -7.7130   -8.0700 c3        1 DT5     -0.094400
     28 H6          0.7050    1.3630   -1.3610 hn        1 DT5      0.471467
     29 H7          0.3630   -0.1780   -1.8200 hn        1 DT5      0.471467
     30 H15         3.8790   -0.5790   -1.4680 ha        1 DT5      0.199500
     31 H17         0.6830   -2.8050    0.4750 ha        1 DT5      0.199500
     32 H18         1.5630   -4.9110   -0.4440 ha        1 DT5      0.199000
     33 H14         4.7950   -2.6690   -2.3900 ha        1 DT5      0.199000
     34 H5          3.4370   -5.9860   -1.4160 hn        1 DT5      0.490300
     35 H11        -0.9400   -6.0150   -3.7920 h5        1 DT5      0.113800
     36 H8          5.6340   -5.4000   -4.0820 ha        1 DT5      0.203000
     37 H1          4.2930   -5.6680   -8.3640 h1        1 DT5      0.087700
     38 H2C1        6.5250   -4.5780   -8.4470 hc        1 DT5      0.059200
     39 H2C2        7.3490   -6.1230   -7.9810 hc        1 DT5      0.059200
     40 H3C1        7.5310   -5.7640  -10.4230 hc        1 DT5      0.060450
     41 H3C2        5.7380   -5.5780  -10.5750 hc        1 DT5      0.060450
     42 H4C1        6.4070   -7.8540  -11.2590 hc        1 DT5      0.060200
     43 H4C2        7.2890   -8.1130   -9.7020 hc        1 DT5      0.060200
     44 H5C1        4.2430   -7.6960  -10.0850 hc        1 DT5      0.060450
     45 H5C2        5.0870   -9.2250   -9.6110 hc        1 DT5      0.060450
     46 H6C1        5.8590   -8.2160   -7.4900 hc        1 DT5      0.059200
     47 H6C2        4.0590   -8.0540   -7.6490 hc        1 DT5      0.059200
     48 H63        -0.4880    0.5220   -0.6000 hn        1 DT5      0.471467
     49 H52         4.8520   -5.1760   -1.8380 hn        1 DT5      0.490300
@<TRIPOS>BOND
     1    1    2 1   
     2    1   28 1   
     3    1   29 1   
     4    1   48 1   
     5    2    3 2   
     6    2    4 2   
     7    2    5 1   
     8    5    6 ar  
     9    5    7 ar  
    10    6    9 ar  
    11    6   30 1   
    12    7    8 ar  
    13    7   31 1   
    14    8   10 ar  
    15    8   32 1   
    16    9   10 ar  
    17    9   33 1   
    18   10   11 1   
    19   11   12 1   
    20   11   34 1   
    21   11   49 1   
    22   12   13 1   
    23   12   19 2   
    24   13   14 1   
    25   13   18 1   
    26   14   15 1   
    27   14   16 2   
    28   15   20 2   
    29   16   17 1   
    30   17   18 2   
    31   17   35 1   
    32   19   20 1   
    33   19   36 1   
    34   20   21 1   
    35   21   22 1   
    36   22   23 1   
    37   22   27 1   
    38   22   37 1   
    39   23   24 1   
    40   23   38 1   
    41   23   39 1   
    42   24   25 1   
    43   24   40 1   
    44   24   41 1   
    45   25   26 1   
    46   25   42 1   
    47   25   43 1   
    48   26   27 1   
    49   26   44 1   
    50   26   45 1   
    51   27   46 1   
    52   27   47 1   
@<TRIPOS>SUBSTRUCTURE
     1 DT5         1 TEMP              0 ****  ****    0 ROOT
