@<TRIPOS>MOLECULE
DT5
   47    42     1     0     0
SMALL
bcc


@<TRIPOS>ATOM
      1 N6         -2.7360   -5.7860    3.4640 n3        1 DT5     -0.954000
      2 S1         -3.0440   -4.5750    4.5300 s4        1 DT5      2.087800
      3 O2         -2.3980   -4.8140    5.7910 o         1 DT5     -0.546900
      4 O3         -4.4260   -4.5640    4.9220 o         1 DT5     -0.546900
      5 C16        -2.5570   -3.0140    3.8420 c1        1 DT5     -0.865000
      6 C15        -1.3380   -2.4540    4.1900 c1        1 DT5      0.021000
      7 C17        -3.4030   -2.3470    2.9710 c2        1 DT5      0.016000
      8 C18        -3.0310   -1.1180    2.4480 c1        1 DT5     -0.204000
      9 C14        -0.9650   -1.2250    3.6670 c1        1 DT5     -0.212000
     10 C13        -1.8120   -0.5580    2.7960 c1        1 DT5      0.139000
     11 N5         -1.4470    0.7170    2.2890 n3        1 DT5     -0.264000
     12 C9         -0.9900    0.8460    0.9510 c2        1 DT5      0.232000
     13 N2         -1.9450    1.1400    0.0240 n2        1 DT5     -0.160000
     14 C10        -1.5900    1.4010   -1.2490 c1        1 DT5      0.097000
     15 N1         -0.2560    1.3700   -1.6160 n1        1 DT5     -0.193000
     16 N4         -2.7240    1.6600   -1.9560 n1        1 DT5     -0.139500
     17 C11        -3.7760    1.5580   -1.1120 c1        1 DT5     -0.100000
     18 N3         -3.3020    1.2370    0.1110 n1        1 DT5     -0.139500
     19 C8          0.3270    0.8150    0.5890 c1        1 DT5     -0.273000
     20 C7          0.6860    1.0810   -0.7040 c1        1 DT5      0.204000
     21 O1          1.9390    0.6860   -1.2030 os        1 DT5     -0.199000
     22 C1          2.3370    1.5740   -2.2390 c3        1 DT5      0.040000
     23 C2          3.6540    2.2180   -1.8520 c3        1 DT5     -0.171500
     24 C3          4.2460    3.0420   -2.9750 c3        1 DT5     -0.153500
     25 C4          4.3410    2.2660   -4.2750 c3        1 DT5     -0.161000
     26 C5          3.0250    1.6210   -4.6620 c3        1 DT5     -0.153500
     27 C6          2.4320    0.7980   -3.5400 c3        1 DT5     -0.171500
     28 H6         -1.9930   -6.3080    3.5670 hn        1 DT5      0.242500
     29 H7         -3.3210   -5.9540    2.7820 hn        1 DT5      0.242500
     30 H15        -0.7420   -2.9240    4.8040 ha        1 DT5      0.157000
     31 H17        -4.2620   -2.7410    2.7260 ha        1 DT5      0.157000
     32 H18        -3.6270   -0.6480    1.8340 ha        1 DT5      0.146000
     33 H14        -0.1070   -0.8310    3.9120 ha        1 DT5      0.153000
     34 H5         -1.5010    1.4540    2.8250 hn        1 DT5      0.256000
     35 H11        -4.7140    1.7010   -1.3430 DU        1 DT5      0.212000
     36 H8          1.0120    0.6050    1.2520 ha        1 DT5      0.190000
     37 H1          1.6600    2.2720   -2.3360 h1        1 DT5      0.119000
     38 H2C1        4.2890    1.5170   -1.6050 hc        1 DT5      0.096500
     39 H2C2        3.5070    2.7980   -1.0780 hc        1 DT5      0.096500
     40 H3C1        5.1430    3.3320   -2.7140 hc        1 DT5      0.085500
     41 H3C2        3.6870    3.8310   -3.1180 hc        1 DT5      0.085500
     42 H4C1        5.0190    1.5670   -4.1780 hc        1 DT5      0.083000
     43 H4C2        4.6150    2.8770   -4.9880 hc        1 DT5      0.083000
     44 H5C1        2.3890    2.3230   -4.9090 hc        1 DT5      0.085500
     45 H5C2        3.1720    1.0410   -5.4360 hc        1 DT5      0.085500
     46 H6C1        1.5350    0.5070   -3.8010 hc        1 DT5      0.096500
     47 H6C2        2.9920    0.0080   -3.3980 hc        1 DT5      0.096500
@<TRIPOS>BOND
     1    1    2 1   
     2    1   28 1   
     3    1   29 1   
     4    2    3 1   
     5    2    4 1   
     6    5    6 1   
     7    5    7 1   
     8    6   30 1   
     9    7    8 1   
    10    7   31 1   
    11    8   32 1   
    12    9   10 1   
    13    9   33 1   
    14   10   11 1   
    15   11   12 1   
    16   11   34 1   
    17   12   13 1   
    18   12   19 1   
    19   13   14 1   
    20   15   20 1   
    21   16   17 1   
    22   17   18 1   
    23   19   36 1   
    24   20   21 1   
    25   21   22 1   
    26   22   23 1   
    27   22   27 1   
    28   22   37 1   
    29   23   24 1   
    30   23   38 1   
    31   23   39 1   
    32   24   25 1   
    33   24   40 1   
    34   24   41 1   
    35   25   26 1   
    36   25   42 1   
    37   25   43 1   
    38   26   27 1   
    39   26   44 1   
    40   26   45 1   
    41   27   46 1   
    42   27   47 1   
@<TRIPOS>SUBSTRUCTURE
     1 DT5         1 TEMP              0 ****  ****    0 ROOT
