@<TRIPOS>MOLECULE
DT5
   47    50     1     0     0
SMALL
bcc


@<TRIPOS>ATOM
      1 N6          6.0150   -0.9830   -1.6160 n3        1 DT5     -1.027700
      2 S1          5.1720   -2.0760   -0.8020 sy        1 DT5      1.532200
      3 O2          5.9870   -2.6250    0.2110 o         1 DT5     -0.659300
      4 O3          4.5670   -2.9650   -1.7160 o         1 DT5     -0.659300
      5 C16         3.9580   -1.1650   -0.0680 ca        1 DT5     -0.420500
      6 C15         2.7320   -0.9500   -0.7070 ca        1 DT5      0.018500
      7 C17         4.1350   -0.6290    1.2140 ca        1 DT5      0.018500
      8 C18         3.1380    0.1020    1.8400 ca        1 DT5     -0.208000
      9 C14         1.7140   -0.2230   -0.1060 ca        1 DT5     -0.208000
     10 C13         1.8950    0.3140    1.1880 ca        1 DT5      0.219600
     11 N5          0.9010    1.0200    1.8760 nh        1 DT5     -0.632000
     12 C9         -0.3680    1.2790    1.3330 cc        1 DT5      0.289300
     13 N2         -0.8920    2.5820    1.3540 na        1 DT5     -0.044800
     14 C10        -2.2590    2.8370    0.8670 cc        1 DT5      0.448500
     15 N1         -3.0460    1.8400    0.3280 nc        1 DT5     -0.719000
     16 N4         -2.5120    4.1730    1.0610 nd        1 DT5     -0.368300
     17 C11        -1.3340    4.6520    1.6450 cd        1 DT5      0.536200
     18 N3         -0.3560    3.7200    1.8350 nc        1 DT5     -0.597100
     19 C8         -1.1870    0.2780    0.8150 cd        1 DT5     -0.338300
     20 C7         -2.5010    0.6160    0.3170 cd        1 DT5      0.702600
     21 O1         -3.1560   -0.4730   -0.1900 os        1 DT5     -0.441100
     22 C1         -4.5000   -0.3130   -0.7110 c3        1 DT5      0.151100
     23 C2         -4.6930   -1.5300   -1.6150 c3        1 DT5     -0.093400
     24 C3         -6.1120   -1.5650   -2.1410 c3        1 DT5     -0.074900
     25 C4         -7.1220   -1.5550   -1.0120 c3        1 DT5     -0.082400
     26 C5         -6.9170   -0.3610   -0.1030 c3        1 DT5     -0.074900
     27 C6         -5.5030   -0.3070    0.4350 c3        1 DT5     -0.093400
     28 H6          6.7950   -0.5040   -1.2430 hn        1 DT5      0.447300
     29 H7          5.8280   -0.7360   -2.5540 hn        1 DT5      0.447300
     30 H15         2.5650   -1.3820   -1.7110 ha        1 DT5      0.157000
     31 H17         5.0870   -0.8110    1.7450 ha        1 DT5      0.157000
     32 H18         3.3160    0.5060    2.8490 ha        1 DT5      0.149500
     33 H14         0.7710   -0.0670   -0.6530 ha        1 DT5      0.149500
     34 H5          1.2320    1.6610    2.5710 hn        1 DT5      0.460800
     35 H11        -1.2170    5.7070    1.9240 h5        1 DT5      0.082800
     36 H8         -0.8650   -0.7720    0.7890 ha        1 DT5      0.190000
     37 H1         -4.5730    0.6320   -1.3130 h1        1 DT5      0.078700
     38 H2C1       -3.9650   -1.4800   -2.4650 hc        1 DT5      0.057450
     39 H2C2       -4.4720   -2.4620   -1.0320 hc        1 DT5      0.057450
     40 H3C1       -6.2870   -0.6810   -2.8080 hc        1 DT5      0.046450
     41 H3C2       -6.2490   -2.4890   -2.7620 hc        1 DT5      0.046450
     42 H4C1       -8.1590   -1.5300   -1.4370 hc        1 DT5      0.043700
     43 H4C2       -7.0250   -2.5000   -0.4150 hc        1 DT5      0.043700
     44 H5C1       -7.1370    0.5830   -0.6690 hc        1 DT5      0.046450
     45 H5C2       -7.6360   -0.4140    0.7550 hc        1 DT5      0.046450
     46 H6C1       -5.3100   -1.1930    1.0960 hc        1 DT5      0.057450
     47 H6C2       -5.3690    0.6170    1.0540 hc        1 DT5      0.057450
@<TRIPOS>BOND
     1    1    2 1   
     2    1   28 1   
     3    1   29 1   
     4    2    3 2   
     5    2    4 2   
     6    2    5 1   
     7    5    6 ar  
     8    5    7 ar  
     9    6    9 ar  
    10    6   30 1   
    11    7    8 ar  
    12    7   31 1   
    13    8   10 ar  
    14    8   32 1   
    15    9   10 ar  
    16    9   33 1   
    17   10   11 1   
    18   11   12 1   
    19   11   34 1   
    20   12   13 1   
    21   12   19 2   
    22   13   14 1   
    23   13   18 1   
    24   14   15 1   
    25   14   16 2   
    26   15   20 2   
    27   16   17 1   
    28   17   18 2   
    29   17   35 1   
    30   19   20 1   
    31   19   36 1   
    32   20   21 1   
    33   21   22 1   
    34   22   23 1   
    35   22   27 1   
    36   22   37 1   
    37   23   24 1   
    38   23   38 1   
    39   23   39 1   
    40   24   25 1   
    41   24   40 1   
    42   24   41 1   
    43   25   26 1   
    44   25   42 1   
    45   25   43 1   
    46   26   27 1   
    47   26   44 1   
    48   26   45 1   
    49   27   46 1   
    50   27   47 1   
@<TRIPOS>SUBSTRUCTURE
     1 DT5         1 TEMP              0 ****  ****    0 ROOT
