@<TRIPOS>MOLECULE
DT6
   36    36     1     0     0
SMALL
bcc


@<TRIPOS>ATOM
      1 O1         -3.1180    0.5670   -1.0410 oh        1 DT6     -0.585800
      2 C1         -1.6750    0.5670   -1.0410 c3        1 DT6      0.335900
      3 C2         -1.2210    0.5670    0.3130 c3        1 DT6      0.018700
      4 N2         -1.6240    1.9180    0.9610 n         1 DT6     -0.565900
      5 C3          0.1730    0.4030    0.4600 c3        1 DT6      0.115100
      6 N3          2.1290   -0.7790   -0.1380 n         1 DT6     -0.551900
      7 O3          0.4820    0.2370    1.9190 oh        1 DT6     -0.597800
      8 C4          0.7140   -0.7740   -0.2750 c3        1 DT6      0.038700
      9 C5          0.3560   -0.7950   -1.8280 c3        1 DT6      0.103100
     10 O5         -1.2080   -0.5870   -1.8230 os        1 DT6     -0.457600
     11 C6          0.6780   -1.9590   -2.3730 c3        1 DT6      0.141400
     12 O6          0.1180   -2.0450   -3.6650 oh        1 DT6     -0.597800
     13 C7         -2.7280    1.9770    1.8500 c         1 DT6      0.670100
     14 O7         -3.3590    0.9700    2.1030 o         1 DT6     -0.623100
     15 C8         -3.1330    3.2980    2.4660 c3        1 DT6     -0.172100
     16 O8          2.1020   -2.6760    1.1320 o         1 DT6     -0.603100
     17 C9          2.7660   -1.8030    0.6090 c         1 DT6      0.651100
     18 C10         4.2730   -1.8200    0.7370 c3        1 DT6     -0.174100
     19 HO1        -3.4140    0.6950   -1.8680 ho        1 DT6      0.428000
     20 H1         -1.3630    1.3840   -1.4740 h2        1 DT6      0.079700
     21 H2         -1.6710   -0.1550    0.7910 h1        1 DT6      0.087700
     22 HN2        -1.1670    2.6780    0.7520 hn        1 DT6      0.320500
     23 H3          0.6190    1.2080    0.1340 h1        1 DT6      0.073700
     24 HN3         2.6260   -0.1130   -0.5150 hn        1 DT6      0.313500
     25 HO3         0.9800    0.9180    2.1950 ho        1 DT6      0.435000
     26 H4          0.3590   -1.5850    0.1360 h1        1 DT6      0.089700
     27 H5          0.8000   -0.0610   -2.2940 h1        1 DT6      0.058700
     28 H6          0.3300   -2.6840   -1.8190 h1        1 DT6      0.069700
     29 H6A         1.6490   -2.0330   -2.4330 h1        1 DT6      0.069700
     30 HO6         0.3990   -2.7880   -4.0600 ho        1 DT6      0.410000
     31 H8         -2.4570    3.5760    3.1130 hc        1 DT6      0.070033
     32 H8A        -3.9930    3.1960    2.9180 hc        1 DT6      0.070033
     33 H8B        -3.2120    3.9730    1.7660 hc        1 DT6      0.070033
     34 H10         4.5800   -0.9610    1.0820 hc        1 DT6      0.069033
     35 H10A        4.5400   -2.5310    1.3500 hc        1 DT6      0.069033
     36 H10B        4.6720   -1.9800   -0.1400 hc        1 DT6      0.069033
@<TRIPOS>BOND
     1    1    2 1   
     2    1   19 1   
     3    2    3 1   
     4    2   10 1   
     5    2   20 1   
     6    3    4 1   
     7    3    5 1   
     8    3   21 1   
     9    4   13 1   
    10    4   22 1   
    11    5    7 1   
    12    5    8 1   
    13    5   23 1   
    14    6    8 1   
    15    6   17 1   
    16    6   24 1   
    17    7   25 1   
    18    8    9 1   
    19    8   26 1   
    20    9   10 1   
    21    9   11 1   
    22    9   27 1   
    23   11   12 1   
    24   11   28 1   
    25   11   29 1   
    26   12   30 1   
    27   13   14 2   
    28   13   15 1   
    29   15   31 1   
    30   15   32 1   
    31   15   33 1   
    32   16   17 2   
    33   17   18 1   
    34   18   34 1   
    35   18   35 1   
    36   18   36 1   
@<TRIPOS>SUBSTRUCTURE
     1 DT6         1 TEMP              0 ****  ****    0 ROOT
