@<TRIPOS>MOLECULE
DT6
   36    36     1     0     0
SMALL
bcc


@<TRIPOS>ATOM
      1 O1          1.9730    2.5400   -0.2960 oh        1 DT6     -0.585800
      2 C1          1.0820    1.5680   -0.7590 c3        1 DT6      0.335900
      3 C2          1.4020    0.1440   -0.2180 c3        1 DT6      0.018700
      4 N2          2.7200   -0.2900   -0.5880 n         1 DT6     -0.565900
      5 C3          0.2670   -0.7860   -0.7180 c3        1 DT6      0.115100
      6 N3         -2.1820   -1.1180   -0.4720 n         1 DT6     -0.551900
      7 O3          0.4690   -2.1380   -0.3740 oh        1 DT6     -0.597800
      8 C4         -1.0750   -0.2570   -0.1340 c3        1 DT6      0.038700
      9 C5         -1.2740    1.1950   -0.6420 c3        1 DT6      0.103100
     10 O5         -0.1630    2.0010   -0.2350 os        1 DT6     -0.457600
     11 C6         -2.4980    1.8650   -0.0070 c3        1 DT6      0.141400
     12 O6         -2.6720    3.1710   -0.5110 oh        1 DT6     -0.597800
     13 C7          3.4190   -1.2090    0.1740 c         1 DT6      0.670100
     14 O7          2.8780   -1.7540    1.1600 o         1 DT6     -0.623100
     15 C8          4.8320   -1.5280   -0.2410 c3        1 DT6     -0.172100
     16 O8         -3.2950   -0.7210    1.4960 o         1 DT6     -0.603100
     17 C9         -3.1830   -1.3950    0.4530 c         1 DT6      0.651100
     18 C10        -4.1540   -2.4950    0.1080 c3        1 DT6     -0.174100
     19 HO1         1.7820    2.7050    0.6380 ho        1 DT6      0.428000
     20 H1          1.1040    1.6120   -1.8830 h2        1 DT6      0.079700
     21 H2          1.3460    0.1710    0.9140 h1        1 DT6      0.087700
     22 HN2         3.1660    0.1720   -1.3420 hn        1 DT6      0.320500
     23 H3          0.2240   -0.7860   -1.8440 h1        1 DT6      0.073700
     24 HN3        -1.9980   -1.8010   -1.1720 hn        1 DT6      0.313500
     25 HO3         0.8010   -2.1730    0.5360 ho        1 DT6      0.435000
     26 H4         -0.9840   -0.2060    0.9950 h1        1 DT6      0.089700
     27 H5         -1.3510    1.2200   -1.7630 h1        1 DT6      0.058700
     28 H6         -3.4300    1.3100   -0.2920 h1        1 DT6      0.069700
     29 H6A        -2.3910    1.8750    1.1100 h1        1 DT6      0.069700
     30 HO6        -1.8850    3.6760   -0.2710 ho        1 DT6      0.410000
     31 H8          4.8420   -1.9870   -1.2590 hc        1 DT6      0.070033
     32 H8A         5.4590   -0.6040   -0.2490 hc        1 DT6      0.070033
     33 H8B         5.2640   -2.2550    0.4900 hc        1 DT6      0.070033
     34 H10        -4.6650   -2.2790   -0.8610 hc        1 DT6      0.069033
     35 H10A       -3.6200   -3.4730    0.0290 hc        1 DT6      0.069033
     36 H10B       -4.9210   -2.5640    0.9170 hc        1 DT6      0.069033
@<TRIPOS>BOND
     1    1    2 1   
     2    1   19 1   
     3    2    3 1   
     4    2   10 1   
     5    2   20 1   
     6    3    4 1   
     7    3    5 1   
     8    3   21 1   
     9    4   13 1   
    10    4   22 1   
    11    5    7 1   
    12    5    8 1   
    13    5   23 1   
    14    6    8 1   
    15    6   17 1   
    16    6   24 1   
    17    7   25 1   
    18    8    9 1   
    19    8   26 1   
    20    9   10 1   
    21    9   11 1   
    22    9   27 1   
    23   11   12 1   
    24   11   28 1   
    25   11   29 1   
    26   12   30 1   
    27   13   14 2   
    28   13   15 1   
    29   15   31 1   
    30   15   32 1   
    31   15   33 1   
    32   16   17 2   
    33   17   18 1   
    34   18   34 1   
    35   18   35 1   
    36   18   36 1   
@<TRIPOS>SUBSTRUCTURE
     1 DT6         1 TEMP              0 ****  ****    0 ROOT
