@<TRIPOS>MOLECULE
DT7
   35    35     1     0     0
SMALL
bcc


@<TRIPOS>ATOM
      1 CAA         0.0810   -0.0110   -0.1820 c3        1 DT7      0.104700
      2 CAB         5.5110    0.0040    0.1730 c3        1 DT7      0.104700
      3 NAD         4.3510    0.2030    8.6910 n3        1 DT7     -1.110400
      4 OAE         2.4900    1.9700    7.9520 o         1 DT7     -0.431900
      5 OAF         4.6500    2.1540    6.8930 o         1 DT7     -0.431900
      6 CAG         1.2310   -0.0100    2.3870 ca        1 DT7     -0.182000
      7 CAH         4.0350   -0.0060    2.5700 ca        1 DT7     -0.172000
      8 CAI         1.0010    0.0040    4.8640 c3        1 DT7     -0.049100
      9 CAJ         1.7820   -0.2870    6.1450 c3        1 DT7      0.205800
     10 OAK         1.5020    0.0020   -0.0520 os        1 DT7     -0.287900
     11 OAL         4.0870    0.0100    0.1160 os        1 DT7     -0.287900
     12 CAM         1.8540   -0.0180    3.6460 ca        1 DT7     -0.071300
     13 CAN         1.9990   -0.0040    1.2260 ca        1 DT7      0.144100
     14 CAO         3.4260   -0.0010    1.3200 ca        1 DT7      0.129100
     15 CAP         3.2450   -0.0190    3.7310 ca        1 DT7     -0.137300
     16 CAQ         3.9450   -0.0750    5.0530 c3        1 DT7      0.265100
     17 NAR         3.0990    0.3460    6.1730 n3        1 DT7     -0.824300
     18 SAS         3.4870    1.4680    7.1490 s4        1 DT7      1.629700
     19 HAA        -0.3480   -0.9350    0.2740 h1        1 DT7      0.056033
     20 HAAA       -0.3630    0.9040    0.2800 h1        1 DT7      0.056033
     21 HAAB       -0.0690   -0.0090   -1.2920 h1        1 DT7      0.056033
     22 HAB         5.8880    0.9190    0.6910 h1        1 DT7      0.053700
     23 HABA        5.8060    0.0100   -0.9080 h1        1 DT7      0.053700
     24 HABB        5.8820   -0.9190    0.6800 h1        1 DT7      0.053700
     25 HNAD        3.8410    0.3610    9.5490 hn        1 DT7      0.427133
     26 HNAA        5.3100    0.4880    8.8290 hn        1 DT7      0.427133
     27 HAG         0.1320   -0.0100    2.3310 ha        1 DT7      0.155000
     28 HAH         5.1310   -0.0040    2.6570 ha        1 DT7      0.148000
     29 HAI         0.4980    1.0070    4.9400 hc        1 DT7      0.081700
     30 HAIA        0.1890   -0.7690    4.7810 hc        1 DT7      0.081700
     31 HAJ         1.1840    0.0670    7.0340 h1        1 DT7      0.082200
     32 HAJA        1.9400   -1.4010    6.2370 h1        1 DT7      0.082200
     33 HAQ         4.8670    0.5790    5.0250 h1        1 DT7      0.082200
     34 HAQA        4.2660   -1.1420    5.2490 h1        1 DT7      0.082200
     35 HAD3        4.3330   -0.7820    8.4810 hn        1 DT7      0.427133
@<TRIPOS>BOND
     1    1   10 1   
     2    1   19 1   
     3    1   20 1   
     4    1   21 1   
     5    2   11 1   
     6    2   22 1   
     7    2   23 1   
     8    2   24 1   
     9    3   25 1   
    10    3   26 1   
    11    3   35 1   
    12    4   18 1   
    13    5   18 1   
    14    6   12 ar  
    15    6   13 ar  
    16    6   27 1   
    17    7   14 ar  
    18    7   15 ar  
    19    7   28 1   
    20    8    9 1   
    21    8   12 1   
    22    8   29 1   
    23    8   30 1   
    24    9   17 1   
    25    9   31 1   
    26    9   32 1   
    27   10   13 1   
    28   11   14 1   
    29   12   15 ar  
    30   13   14 ar  
    31   15   16 1   
    32   16   17 1   
    33   16   33 1   
    34   16   34 1   
    35   17   18 1   
@<TRIPOS>SUBSTRUCTURE
     1 DT7         1 TEMP              0 ****  ****    0 ROOT
