@<TRIPOS>MOLECULE
DT7
   34    33     1     0     0
SMALL
bcc


@<TRIPOS>ATOM
      1 CAA        -0.8060    1.8930   -4.1250 c3        1 DT7     -0.075500
      2 CAB         0.8420   -1.9070   -3.8960 c3        1 DT7     -0.075500
      3 NAD         1.3880   -0.8770    4.8940 n3        1 DT7     -0.953000
      4 OAE        -0.7210   -2.0940    4.1590 o         1 DT7     -0.929500
      5 OAF        -1.0160   -0.0470    4.9660 o         1 DT7     -0.929500
      6 CAG        -0.9720    1.2680   -1.1820 c1        1 DT7     -0.190000
      7 CAH         0.0970   -1.3350   -0.9310 c1        1 DT7     -0.108000
      8 CAI        -0.5150    1.7200    1.3130 c3        1 DT7     -0.136000
      9 CAJ         0.1310    1.1890    2.4730 c3        1 DT7     -0.010000
     10 OAK        -1.4980    0.8270   -3.5140 os        1 DT7     -0.209500
     11 OAL        -0.4120   -1.7670   -3.2680 os        1 DT7     -0.209500
     12 CAM        -0.4800    0.8380    0.0400 c2        1 DT7     -0.036000
     13 CAN        -0.9400    0.4120   -2.2920 c1        1 DT7      0.046000
     14 CAO        -0.4030   -0.8960   -2.1660 c1        1 DT7      0.046000
     15 CAP         0.0660   -0.4910    0.1680 c2        1 DT7     -0.100000
     16 CAQ         0.4260   -0.9960    1.6250 c3        1 DT7      0.028000
     17 NAR         0.0480   -0.1890    2.6600 n3        1 DT7     -0.838000
     18 SAS        -0.0870   -0.8060    4.1750 s6        1 DT7      2.816000
     19 HAA        -0.0970    2.2100   -3.5250 h1        1 DT7      0.084000
     20 HAAA       -1.4320    2.6260   -4.3090 h1        1 DT7      0.084000
     21 HAAB       -0.4070    1.5840   -4.9680 h1        1 DT7      0.084000
     22 HAB         0.8400   -1.4160   -4.7450 h1        1 DT7      0.084000
     23 HABA        1.0180   -2.8570   -4.0670 h1        1 DT7      0.084000
     24 HABB        1.5430   -1.5460   -3.3110 h1        1 DT7      0.084000
     25 HNAD        1.7460   -0.1290    5.2780 hn        1 DT7      0.241500
     26 HNAA        1.8380   -1.6720    4.9370 hn        1 DT7      0.241500
     27 HAG        -1.3350    2.1700   -1.2720 ha        1 DT7      0.140000
     28 HAH         0.4790   -2.2290   -0.8490 ha        1 DT7      0.151000
     29 HAI        -0.0950    2.5780    1.0990 hc        1 DT7      0.102500
     30 HAIA       -1.4540    1.8870    1.5400 hc        1 DT7      0.102500
     31 HAJ         1.0830    1.4200    2.4090 h1        1 DT7      0.092500
     32 HAJA       -0.2760    1.6160    3.2570 h1        1 DT7      0.092500
     33 HAQ         1.3970   -1.1150    1.6730 h1        1 DT7      0.098500
     34 HAQA        0.0050   -1.8710    1.7550 h1        1 DT7      0.098500
@<TRIPOS>BOND
     1    1   10 1   
     2    1   19 1   
     3    1   20 1   
     4    1   21 1   
     5    2   11 1   
     6    2   22 1   
     7    2   23 1   
     8    2   24 1   
     9    3   18 1   
    10    3   25 1   
    11    3   26 1   
    12    4   18 1   
    13    5   18 1   
    14    6   12 1   
    15    6   27 1   
    16    7   15 1   
    17    7   28 1   
    18    8    9 1   
    19    8   12 1   
    20    8   29 1   
    21    8   30 1   
    22    9   17 1   
    23    9   31 1   
    24    9   32 1   
    25   10   13 1   
    26   11   14 1   
    27   12   15 1   
    28   13   14 1   
    29   15   16 1   
    30   16   17 1   
    31   16   33 1   
    32   16   34 1   
    33   17   18 1   
@<TRIPOS>SUBSTRUCTURE
     1 DT7         1 TEMP              0 ****  ****    0 ROOT
