@<TRIPOS>MOLECULE
DT7
   35    35     1     0     0
SMALL
bcc


@<TRIPOS>ATOM
      1 CAA         0.0850   -0.0200   -0.1840 c3        1 DT7      0.104700
      2 CAB         5.5140    0.0100    0.1760 c3        1 DT7      0.104700
      3 NAD         4.3470    0.2090    8.6920 n3        1 DT7     -1.110400
      4 OAE         2.4820    1.9710    7.9500 o         1 DT7     -0.431900
      5 OAF         4.6420    2.1600    6.8930 o         1 DT7     -0.431900
      6 CAG         1.2320   -0.0160    2.3860 ca        1 DT7     -0.182000
      7 CAH         4.0360   -0.0040    2.5710 ca        1 DT7     -0.172000
      8 CAI         1.0010   -0.0010    4.8620 c3        1 DT7     -0.049100
      9 CAJ         1.7810   -0.2890    6.1440 c3        1 DT7      0.205800
     10 OAK         1.5050   -0.0040   -0.0530 os        1 DT7     -0.287900
     11 OAL         4.0900    0.0120    0.1170 os        1 DT7     -0.287900
     12 CAM         1.8540   -0.0210    3.6450 ca        1 DT7     -0.071300
     13 CAN         2.0020   -0.0080    1.2260 ca        1 DT7      0.144100
     14 CAO         3.4280   -0.0010    1.3210 ca        1 DT7      0.129100
     15 CAP         3.2450   -0.0180    3.7310 ca        1 DT7     -0.137300
     16 CAQ         3.9440   -0.0730    5.0540 c3        1 DT7      0.265100
     17 NAR         3.0970    0.3470    6.1730 n3        1 DT7     -0.824300
     18 SAS         3.4810    1.4710    7.1490 s4        1 DT7      1.629700
     19 HAA        -0.3420   -0.9460    0.2720 h1        1 DT7      0.056033
     20 HAAA       -0.3630    0.8930    0.2770 h1        1 DT7      0.056033
     21 HAAB       -0.0640   -0.0190   -1.2940 h1        1 DT7      0.056033
     22 HAB         5.8880   -0.9120    0.6830 h1        1 DT7      0.053700
     23 HABA        5.8100    0.0170   -0.9050 h1        1 DT7      0.053700
     24 HABB        5.8880    0.9270    0.6930 h1        1 DT7      0.053700
     25 HNAD        3.8360    0.3670    9.5490 hn        1 DT7      0.427133
     26 HNAA        4.3320   -0.7750    8.4830 hn        1 DT7      0.427133
     27 HAG         0.1340   -0.0180    2.3290 ha        1 DT7      0.155000
     28 HAH         5.1330    0.0020    2.6590 ha        1 DT7      0.148000
     29 HAI         0.1910   -0.7760    4.7790 hc        1 DT7      0.081700
     30 HAIA        0.4950    1.0010    4.9380 hc        1 DT7      0.081700
     31 HAJ         1.1820    0.0640    7.0330 h1        1 DT7      0.082200
     32 HAJA        1.9420   -1.4030    6.2370 h1        1 DT7      0.082200
     33 HAQ         4.8650    0.5830    5.0270 h1        1 DT7      0.082200
     34 HAQA        4.2680   -1.1390    5.2510 h1        1 DT7      0.082200
     35 HAD3        5.3050    0.4970    8.8310 hn        1 DT7      0.427133
@<TRIPOS>BOND
     1    1   10 1   
     2    1   19 1   
     3    1   20 1   
     4    1   21 1   
     5    2   11 1   
     6    2   22 1   
     7    2   23 1   
     8    2   24 1   
     9    3   25 1   
    10    3   26 1   
    11    3   35 1   
    12    4   18 1   
    13    5   18 1   
    14    6   12 ar  
    15    6   13 ar  
    16    6   27 1   
    17    7   14 ar  
    18    7   15 ar  
    19    7   28 1   
    20    8    9 1   
    21    8   12 1   
    22    8   29 1   
    23    8   30 1   
    24    9   17 1   
    25    9   31 1   
    26    9   32 1   
    27   10   13 1   
    28   11   14 1   
    29   12   15 ar  
    30   13   14 ar  
    31   15   16 1   
    32   16   17 1   
    33   16   33 1   
    34   16   34 1   
    35   17   18 1   
@<TRIPOS>SUBSTRUCTURE
     1 DT7         1 TEMP              0 ****  ****    0 ROOT
