@<TRIPOS>MOLECULE
DT7
   34    35     1     0     0
SMALL
bcc


@<TRIPOS>ATOM
      1 CAA         4.5650    2.2860    0.3510 c3        1 DT7      0.109700
      2 CAB         3.5320   -3.0470   -0.0080 c3        1 DT7      0.109700
      3 NAD        -4.5000   -0.7120   -0.9320 n3        1 DT7     -1.025700
      4 OAE        -4.1140    0.9350    0.8460 o         1 DT7     -0.650800
      5 OAF        -3.3960   -1.3590    1.1620 o         1 DT7     -0.650800
      6 CAG         1.9070    1.4790   -0.0340 ca        1 DT7     -0.178000
      7 CAH         1.3780   -1.2670   -0.2410 ca        1 DT7     -0.174000
      8 CAI        -0.5190    2.0180   -0.2490 c3        1 DT7     -0.045100
      9 CAJ        -1.7900    1.4310   -0.8670 c3        1 DT7      0.226800
     10 OAK         4.2850    0.8990    0.1970 os        1 DT7     -0.302900
     11 OAL         3.7940   -1.6480    0.0050 os        1 DT7     -0.302900
     12 CAM         0.5890    1.0290   -0.2060 ca        1 DT7     -0.064300
     13 CAN         2.9560    0.5660    0.0350 ca        1 DT7      0.108100
     14 CAO         2.6870   -0.8270   -0.0690 ca        1 DT7      0.106100
     15 CAP         0.3290   -0.3380   -0.3100 ca        1 DT7     -0.087300
     16 CAQ        -1.0620   -0.8640   -0.5210 c3        1 DT7      0.272100
     17 NAR        -2.1120    0.1130   -0.3890 n3        1 DT7     -0.818500
     18 SAS        -3.5590   -0.2490    0.2910 s6        1 DT7      1.585800
     19 HAA         5.6760    2.3110    0.4880 h1        1 DT7      0.044367
     20 HAAA        4.2690    2.8530   -0.5650 h1        1 DT7      0.044367
     21 HAAB        4.0470    2.6990    1.2510 h1        1 DT7      0.044367
     22 HAB         3.0720   -3.3530   -0.9790 h1        1 DT7      0.044700
     23 HABA        4.5500   -3.5000    0.1060 h1        1 DT7      0.044700
     24 HABB        2.8730   -3.3370    0.8470 h1        1 DT7      0.044700
     25 HNAD       -5.0790   -0.0930   -1.4420 hn        1 DT7      0.445800
     26 HNAA       -4.5910   -1.6500   -1.2270 hn        1 DT7      0.445800
     27 HAG         2.0970    2.5590    0.0480 ha        1 DT7      0.141000
     28 HAH         1.1520   -2.3400   -0.3200 ha        1 DT7      0.141000
     29 HAI        -0.2180    2.9160   -0.8510 hc        1 DT7      0.061700
     30 HAIA       -0.7330    2.3690    0.7970 hc        1 DT7      0.061700
     31 HAJ        -2.6530    2.1230   -0.6370 h1        1 DT7      0.052200
     32 HAJA       -1.6570    1.3940   -1.9880 h1        1 DT7      0.052200
     33 HAQ        -1.1000   -1.3100   -1.5610 h1        1 DT7      0.058700
     34 HAQA       -1.2490   -1.6960    0.2240 h1        1 DT7      0.058700
@<TRIPOS>BOND
     1    1   10 1   
     2    1   19 1   
     3    1   20 1   
     4    1   21 1   
     5    2   11 1   
     6    2   22 1   
     7    2   23 1   
     8    2   24 1   
     9    3   18 1   
    10    3   25 1   
    11    3   26 1   
    12    4   18 2   
    13    5   18 2   
    14    6   12 ar  
    15    6   13 ar  
    16    6   27 1   
    17    7   14 ar  
    18    7   15 ar  
    19    7   28 1   
    20    8    9 1   
    21    8   12 1   
    22    8   29 1   
    23    8   30 1   
    24    9   17 1   
    25    9   31 1   
    26    9   32 1   
    27   10   13 1   
    28   11   14 1   
    29   12   15 ar  
    30   13   14 ar  
    31   15   16 1   
    32   16   17 1   
    33   16   33 1   
    34   16   34 1   
    35   17   18 1   
@<TRIPOS>SUBSTRUCTURE
     1 DT7         1 TEMP              0 ****  ****    0 ROOT
