@<TRIPOS>MOLECULE
DT7
   35    35     1     0     0
SMALL
bcc


@<TRIPOS>ATOM
      1 CAA         0.0700    0.0220   -0.1740 c3        1 DT7      0.104700
      2 CAB         5.5000   -0.0340    0.1670 c3        1 DT7      0.104700
      3 NAD         4.3640    0.1890    8.6870 n9        1 DT7     -1.110400
      4 OAE         2.5260    1.9790    7.9510 o         1 DT7     -0.431900
      5 OAF         4.6850    2.1330    6.8860 o         1 DT7     -0.431900
      6 CAG         1.2260    0.0100    2.3920 ca        1 DT7     -0.182000
      7 CAH         4.0300   -0.0230    2.5670 ca        1 DT7     -0.172000
      8 CAI         1.0030    0.0300    4.8690 c3        1 DT7     -0.049100
      9 CAJ         1.7830   -0.2700    6.1480 c3        1 DT7      0.205800
     10 OAK         1.4910    0.0160   -0.0480 os        1 DT7     -0.287900
     11 OAL         4.0760   -0.0100    0.1130 os        1 DT7     -0.287900
     12 CAM         1.8520   -0.0050    3.6480 ca        1 DT7     -0.071300
     13 CAN         1.9910    0.0040    1.2290 ca        1 DT7      0.144100
     14 CAO         3.4180   -0.0110    1.3190 ca        1 DT7      0.129100
     15 CAP         3.2430   -0.0240    3.7300 ca        1 DT7     -0.137300
     16 CAQ         3.9460   -0.0890    5.0510 c3        1 DT7      0.265100
     17 NAR         3.1090    0.3450    6.1720 n3        1 DT7     -0.824300
     18 SAS         3.5130    1.4630    7.1460 s4        1 DT7      1.629700
     19 HAA        -0.0830    0.0240   -1.2850 h1        1 DT7      0.056033
     20 HAAA       -0.3700   -0.8970    0.2840 h1        1 DT7      0.056033
     21 HAAB       -0.3620    0.9420    0.2870 h1        1 DT7      0.056033
     22 HAB         5.8610   -0.9610    0.6730 h1        1 DT7      0.053700
     23 HABA        5.7930   -0.0330   -0.9150 h1        1 DT7      0.053700
     24 HABB        5.8900    0.8770    0.6820 h1        1 DT7      0.053700
     25 HNAD        5.3270    0.4620    8.8230 hn        1 DT7      0.427133
     26 HNAA        3.8590    0.3540    9.5460 hn        1 DT7      0.427133
     27 HAG         0.1270    0.0240    2.3380 ha        1 DT7      0.155000
     28 HAH         5.1270   -0.0350    2.6510 ha        1 DT7      0.148000
     29 HAI         0.5130    1.0390    4.9450 hc        1 DT7      0.081700
     30 HAIA        0.1800   -0.7330    4.7890 hc        1 DT7      0.081700
     31 HAJ         1.9260   -1.3860    6.2410 h1        1 DT7      0.082200
     32 HAJA        1.1920    0.0930    7.0390 h1        1 DT7      0.082200
     33 HAQ         4.2530   -1.1590    5.2470 h1        1 DT7      0.082200
     34 HAQA        4.8760    0.5530    5.0200 h1        1 DT7      0.082200
     35 HAD3        4.3340   -0.7960    8.4790 hn        1 DT7      0.427133
@<TRIPOS>BOND
     1    1   10 1   
     2    1   19 1   
     3    1   20 1   
     4    1   21 1   
     5    2   11 1   
     6    2   22 1   
     7    2   23 1   
     8    2   24 1   
     9    3   25 1   
    10    3   26 1   
    11    3   35 1   
    12    4   18 1   
    13    5   18 1   
    14    6   12 ar  
    15    6   13 ar  
    16    6   27 1   
    17    7   14 ar  
    18    7   15 ar  
    19    7   28 1   
    20    8    9 1   
    21    8   12 1   
    22    8   29 1   
    23    8   30 1   
    24    9   17 1   
    25    9   31 1   
    26    9   32 1   
    27   10   13 1   
    28   11   14 1   
    29   12   15 ar  
    30   13   14 ar  
    31   15   16 1   
    32   16   17 1   
    33   16   33 1   
    34   16   34 1   
    35   17   18 1   
@<TRIPOS>SUBSTRUCTURE
     1 DT7         1 TEMP              0 ****  ****    0 ROOT
