@<TRIPOS>MOLECULE
DT8
   71    75     1     0     0
SMALL
bcc


@<TRIPOS>ATOM
      1 O34         0.7400   -0.7360    0.1460 o         1 DT8     -0.371100
      2 C21         1.7480   -0.0480    0.1720 c         1 DT8      0.525100
      3 N35         2.0680    0.7590   -1.0650 n4        1 DT8     -0.580200
      4 C37         2.1880   -0.1380   -2.2520 c3        1 DT8      0.080100
      5 C36         1.0080    1.7850   -1.2920 c3        1 DT8      0.080100
      6 C17         2.7060    0.0580    1.3510 c3        1 DT8     -0.139700
      7 C18         2.6910    1.4730    1.9160 c3        1 DT8     -0.096400
      8 C19         3.4450    1.5740    3.2270 c3        1 DT8     -0.102400
      9 C13         2.8540    0.5900    4.2420 c3        1 DT8      0.107500
     10 N12         3.3290    0.8200    5.6360 n4        1 DT8     -0.684800
     11 C11         2.6530    2.0450    6.3180 c         1 DT8      0.593300
     12 O14         1.9660    2.7320    5.5680 o         1 DT8     -0.490100
     13 C8          2.9470    2.1630    7.6990 cc        1 DT8     -0.270300
     14 N7          2.4200    3.2370    8.4610 na        1 DT8     -0.116400
     15 C5          2.8590    3.0970    9.7570 ca        1 DT8      0.053800
     16 C4          2.6180    3.8970   10.9030 ca        1 DT8     -0.158000
     17 C3          3.1960    3.5110   12.0870 ca        1 DT8     -0.015000
     18 C2          4.0180    2.3410   12.1820 ca        1 DT8      0.010400
     19 CL1         4.6810    1.9540   13.6840 cl        1 DT8     -0.002400
     20 C9          3.7390    1.3340    8.5550 cd        1 DT8     -0.044200
     21 C6          3.6960    1.9030    9.8440 ca        1 DT8     -0.107800
     22 C1          4.2690    1.5460   11.0860 ca        1 DT8     -0.078000
     23 C16         2.2730   -0.9710    2.3950 c3        1 DT8     -0.114400
     24 C15         3.0180   -0.8710    3.7360 c3        1 DT8      0.118500
     25 N20         4.4280   -1.3680    3.6390 n4        1 DT8     -0.687800
     26 C22         4.9020   -2.1500    4.8870 c         1 DT8      0.536600
     27 O32         4.5860   -1.6050    5.9490 o         1 DT8     -0.569100
     28 C23         5.6290   -3.3350    4.6340 cc        1 DT8      0.075900
     29 S27         6.2380   -4.3660    5.8510 ss        1 DT8      0.382700
     30 C26         6.8760   -5.3730    4.7730 cc        1 DT8     -0.166700
     31 C28         7.6490   -6.6200    5.0220 c3        1 DT8      0.211100
     32 N29         7.6680   -7.5050    3.8650 n3        1 DT8     -0.727600
     33 C33         8.4220   -8.7180    4.1090 c3        1 DT8      0.147100
     34 C30         8.0620   -6.8110    2.6480 c3        1 DT8      0.154800
     35 C31         7.0600   -5.7260    2.2390 c3        1 DT8     -0.128700
     36 C25         6.6110   -4.9240    3.4100 cd        1 DT8      0.422600
     37 N24         5.9170   -3.7830    3.3440 nd        1 DT8     -0.645000
     38 H371        1.2230   -0.7000   -2.3950 hx        1 DT8      0.122700
     39 H372        3.0300   -0.8600   -2.0910 hx        1 DT8      0.122700
     40 H373        2.3930    0.4870   -3.1660 hx        1 DT8      0.122700
     41 H361        0.0150    1.2720   -1.4290 hx        1 DT8      0.122700
     42 H362        1.2530    2.3710   -2.2220 hx        1 DT8      0.122700
     43 H363        0.9660    2.4750   -0.4080 hx        1 DT8      0.122700
     44 H17         3.7430   -0.1920    0.9860 hc        1 DT8      0.090700
     45 H181        3.1640    2.1870    1.1880 hc        1 DT8      0.092200
     46 H182        1.6290    1.8080    2.0750 hc        1 DT8      0.092200
     47 H191        4.5400    1.4010    3.0710 hc        1 DT8      0.097200
     48 H192        3.3260    2.6300    3.6130 hc        1 DT8      0.097200
     49 H13         1.7260    0.7700    4.2750 hx        1 DT8      0.156700
     50 HN12        4.3410    0.9700    5.6540 hn        1 DT8      0.464300
     51 HN7         1.8290    3.9480    8.1010 hn        1 DT8      0.340700
     52 H4          1.9880    4.7970   10.8390 ha        1 DT8      0.179000
     53 H3          3.0290    4.1120   13.0020 ha        1 DT8      0.191000
     54 H9          4.2760    0.4300    8.2710 ha        1 DT8      0.158000
     55 H1          4.9010    0.6460   11.1570 ha        1 DT8      0.170000
     56 H161        2.3760   -2.0070    1.9670 hc        1 DT8      0.120200
     57 H162        1.1740   -0.8370    2.6170 hc        1 DT8      0.120200
     58 H15         2.4880   -1.5710    4.4610 hx        1 DT8      0.142700
     59 HN20        5.0770   -0.5900    3.4940 hn        1 DT8      0.467800
     60 H281        7.1890   -7.1970    5.8790 h1        1 DT8      0.090700
     61 H282        8.6940   -6.3100    5.3440 h1        1 DT8      0.090700
     62 H331        8.2840   -9.3990    3.2280 h1        1 DT8      0.062033
     63 H332        9.5200   -8.5320    4.2590 h1        1 DT8      0.062033
     64 H333        8.0090   -9.2250    5.0210 h1        1 DT8      0.062033
     65 H301        9.0860   -6.3440    2.7420 h1        1 DT8      0.069700
     66 H302        8.1080   -7.5710    1.8150 h1        1 DT8      0.069700
     67 H311        7.5390   -5.0680    1.4660 hc        1 DT8      0.092700
     68 H312        6.1540   -6.2060    1.7740 hc        1 DT8      0.092700
     69 H351        2.9650    1.2410   -0.9270 hn        1 DT8      0.452800
     70 H122        3.1280   -0.0100    6.2140 hn        1 DT8      0.464300
     71 H202        4.4990   -1.9930    2.8210 hn        1 DT8      0.467800
@<TRIPOS>BOND
     1    1    2 2   
     2    2    3 1   
     3    2    6 1   
     4    3    4 1   
     5    3    5 1   
     6    3   69 1   
     7    4   38 1   
     8    4   39 1   
     9    4   40 1   
    10    5   41 1   
    11    5   42 1   
    12    5   43 1   
    13    6    7 1   
    14    6   23 1   
    15    6   44 1   
    16    7    8 1   
    17    7   45 1   
    18    7   46 1   
    19    8    9 1   
    20    8   47 1   
    21    8   48 1   
    22    9   10 1   
    23    9   24 1   
    24    9   49 1   
    25   10   11 1   
    26   10   50 1   
    27   10   70 1   
    28   11   12 2   
    29   11   13 1   
    30   13   14 1   
    31   13   20 2   
    32   14   15 1   
    33   14   51 1   
    34   15   16 ar  
    35   15   21 ar  
    36   16   17 ar  
    37   16   52 1   
    38   17   18 ar  
    39   17   53 1   
    40   18   19 1   
    41   18   22 ar  
    42   20   21 1   
    43   20   54 1   
    44   21   22 ar  
    45   22   55 1   
    46   23   24 1   
    47   23   56 1   
    48   23   57 1   
    49   24   25 1   
    50   24   58 1   
    51   25   26 1   
    52   25   59 1   
    53   25   71 1   
    54   26   27 2   
    55   26   28 1   
    56   28   29 1   
    57   28   37 2   
    58   29   30 1   
    59   30   31 1   
    60   30   36 2   
    61   31   32 1   
    62   31   60 1   
    63   31   61 1   
    64   32   33 1   
    65   32   34 1   
    66   33   62 1   
    67   33   63 1   
    68   33   64 1   
    69   34   35 1   
    70   34   65 1   
    71   34   66 1   
    72   35   36 1   
    73   35   67 1   
    74   35   68 1   
    75   36   37 1   
@<TRIPOS>SUBSTRUCTURE
     1 DT8         1 TEMP              0 ****  ****    0 ROOT
