@<TRIPOS>MOLECULE
DT8
   71    75     1     0     0
SMALL
bcc


@<TRIPOS>ATOM
      1 O34         0.7370   -0.6960    0.1570 o         1 DT8     -0.371100
      2 C21         1.7390   -0.0000    0.1910 c         1 DT8      0.525100
      3 N35         2.0490    0.8280   -1.0350 n4        1 DT8     -0.580200
      4 C37         2.1700   -0.0500   -2.2370 c3        1 DT8      0.080100
      5 C36         0.9790    1.8490   -1.2440 c3        1 DT8      0.080100
      6 C17         2.7000    0.0970    1.3680 c3        1 DT8     -0.139700
      7 C18         2.6770    1.5030    1.9530 c3        1 DT8     -0.096400
      8 C19         3.4350    1.5910    3.2620 c3        1 DT8     -0.102400
      9 C13         2.8550    0.5880    4.2660 c3        1 DT8      0.107500
     10 N12         3.3330    0.8020    5.6610 n4        1 DT8     -0.684800
     11 C11         2.6520    2.0130    6.3620 c         1 DT8      0.593300
     12 O14         1.9550    2.7040    5.6250 o         1 DT8     -0.490100
     13 C8          2.9520    2.1140    7.7430 cc        1 DT8     -0.270300
     14 N7          2.4200    3.1730    8.5220 na        1 DT8     -0.116400
     15 C5          2.8660    3.0200    9.8140 ca        1 DT8      0.053800
     16 C4          2.6250    3.8020   10.9720 ca        1 DT8     -0.158000
     17 C3          3.2120    3.4050   12.1480 ca        1 DT8     -0.015000
     18 C2          4.0450    2.2420   12.2220 ca        1 DT8      0.010400
     19 CL1         4.7190    1.8410   13.7160 cl        1 DT8     -0.002400
     20 C9          3.7550    1.2810    8.5840 cd        1 DT8     -0.044200
     21 C6          3.7140    1.8320    9.8810 ca        1 DT8     -0.107800
     22 C1          4.2970    1.4630   11.1150 ca        1 DT8     -0.078000
     23 C16         2.2790   -0.9510    2.3980 c3        1 DT8     -0.114400
     24 C15         3.0270   -0.8640    3.7380 c3        1 DT8      0.118500
     25 N20         4.4410   -1.3490    3.6300 n4        1 DT8     -0.687800
     26 C22         4.9240   -2.1460    4.8640 c         1 DT8      0.536600
     27 O32         4.6150   -1.6140    5.9350 o         1 DT8     -0.569100
     28 C23         5.6490   -3.3290    4.5920 cc        1 DT8      0.075900
     29 S27         6.2680   -4.3720    5.7930 ss        1 DT8      0.382700
     30 C26         6.8960   -5.3680    4.6980 cc        1 DT8     -0.166700
     31 C28         7.6720   -6.6180    4.9260 c3        1 DT8      0.211100
     32 N29         7.6800   -7.4900    3.7610 n3        1 DT8     -0.727600
     33 C33         8.4360   -8.7050    3.9850 c3        1 DT8      0.147100
     34 C30         8.0620   -6.7840    2.5470 c3        1 DT8      0.154800
     35 C31         7.0570   -5.6950    2.1590 c3        1 DT8     -0.128700
     36 C25         6.6190   -4.9040    3.3430 cd        1 DT8      0.422600
     37 N24         5.9240   -3.7630    3.2950 nd        1 DT8     -0.645000
     38 H371        2.3670    0.5900   -3.1420 hx        1 DT8      0.122700
     39 H372        1.2090   -0.6170   -2.3840 hx        1 DT8      0.122700
     40 H373        3.0190   -0.7680   -2.0900 hx        1 DT8      0.122700
     41 H361        0.9340    2.5250   -0.3500 hx        1 DT8      0.122700
     42 H362        1.2160    2.4500   -2.1650 hx        1 DT8      0.122700
     43 H363       -0.0110    1.3300   -1.3840 hx        1 DT8      0.122700
     44 H17         3.7380   -0.1410    0.9950 hc        1 DT8      0.090700
     45 H181        3.1420    2.2310    1.2330 hc        1 DT8      0.092200
     46 H182        1.6130    1.8280    2.1200 hc        1 DT8      0.092200
     47 H191        3.3100    2.6400    3.6630 hc        1 DT8      0.097200
     48 H192        4.5310    1.4280    3.1000 hc        1 DT8      0.097200
     49 H13         1.7260    0.7600    4.3050 hx        1 DT8      0.156700
     50 HN12        4.3450    0.9600    5.6770 hn        1 DT8      0.464300
     51 HN7         1.8200    3.8840    8.1750 hn        1 DT8      0.340700
     52 H4          1.9860    4.6980   10.9240 ha        1 DT8      0.179000
     53 H3          3.0440    3.9930   13.0710 ha        1 DT8      0.191000
     54 H9          4.2980    0.3860    8.2850 ha        1 DT8      0.158000
     55 H1          4.9360    0.5680   11.1700 ha        1 DT8      0.170000
     56 H161        2.3880   -1.9800    1.9560 hc        1 DT8      0.120700
     57 H162        1.1800   -0.8280    2.6260 hc        1 DT8      0.120700
     58 H15         2.5050   -1.5780    4.4550 hx        1 DT8      0.142700
     59 HN20        4.5140   -1.9610    2.8020 hn        1 DT8      0.467800
     60 H281        7.2200   -7.2030    5.7820 h1        1 DT8      0.090700
     61 H282        8.7200   -6.3110    5.2420 h1        1 DT8      0.090700
     62 H331        8.2900   -9.3780    3.0980 h1        1 DT8      0.062033
     63 H332        8.0320   -9.2220    4.8950 h1        1 DT8      0.062033
     64 H333        9.5360   -8.5210    4.1260 h1        1 DT8      0.062033
     65 H301        9.0870   -6.3180    2.6360 h1        1 DT8      0.069700
     66 H302        8.1010   -7.5350    1.7060 h1        1 DT8      0.069700
     67 H311        6.1470   -6.1700    1.6970 hc        1 DT8      0.092700
     68 H312        7.5290   -5.0280    1.3890 hc        1 DT8      0.092700
     69 H351        2.9420    1.3150   -0.8940 hn        1 DT8      0.453800
     70 H122        3.1410   -0.0380    6.2270 hn        1 DT8      0.464300
     71 H202        5.0830   -0.5640    3.4940 hn        1 DT8      0.467800
@<TRIPOS>BOND
     1    1    2 2   
     2    2    3 1   
     3    2    6 1   
     4    3    4 1   
     5    3    5 1   
     6    3   69 1   
     7    4   38 1   
     8    4   39 1   
     9    4   40 1   
    10    5   41 1   
    11    5   42 1   
    12    5   43 1   
    13    6    7 1   
    14    6   23 1   
    15    6   44 1   
    16    7    8 1   
    17    7   45 1   
    18    7   46 1   
    19    8    9 1   
    20    8   47 1   
    21    8   48 1   
    22    9   10 1   
    23    9   24 1   
    24    9   49 1   
    25   10   11 1   
    26   10   50 1   
    27   10   70 1   
    28   11   12 2   
    29   11   13 1   
    30   13   14 1   
    31   13   20 2   
    32   14   15 1   
    33   14   51 1   
    34   15   16 ar  
    35   15   21 ar  
    36   16   17 ar  
    37   16   52 1   
    38   17   18 ar  
    39   17   53 1   
    40   18   19 1   
    41   18   22 ar  
    42   20   21 1   
    43   20   54 1   
    44   21   22 ar  
    45   22   55 1   
    46   23   24 1   
    47   23   56 1   
    48   23   57 1   
    49   24   25 1   
    50   24   58 1   
    51   25   26 1   
    52   25   59 1   
    53   25   71 1   
    54   26   27 2   
    55   26   28 1   
    56   28   29 1   
    57   28   37 2   
    58   29   30 1   
    59   30   31 1   
    60   30   36 2   
    61   31   32 1   
    62   31   60 1   
    63   31   61 1   
    64   32   33 1   
    65   32   34 1   
    66   33   62 1   
    67   33   63 1   
    68   33   64 1   
    69   34   35 1   
    70   34   65 1   
    71   34   66 1   
    72   35   36 1   
    73   35   67 1   
    74   35   68 1   
    75   36   37 1   
@<TRIPOS>SUBSTRUCTURE
     1 DT8         1 TEMP              0 ****  ****    0 ROOT
