@<TRIPOS>MOLECULE
DT8
   68    69     1     0     0
SMALL
bcc


@<TRIPOS>ATOM
      1 O34        -4.0990    1.6930   -4.6410 o         1 DT8     -0.368000
      2 C21        -2.8520    1.5970   -4.5890 c1        1 DT8      0.303000
      3 N35        -2.0770    1.6430   -5.8030 n2        1 DT8     -0.334000
      4 C37        -1.9180    0.4850   -6.5770 c3        1 DT8     -0.078500
      5 C36        -1.6150    2.9000   -6.3060 c3        1 DT8     -0.078500
      6 C17        -2.1380    1.5650   -3.2220 c3        1 DT8     -0.117000
      7 C18        -2.2140    2.9370   -2.5030 c3        1 DT8     -0.157000
      8 C19        -1.6110    2.9150   -1.1210 c3        1 DT8     -0.166000
      9 C13        -2.1660    1.8270   -0.2630 c3        1 DT8      0.008000
     10 N12        -1.3970    1.7710    0.9880 n         1 DT8     -0.365000
     11 C11        -2.0310    2.0290    2.2250 c2        1 DT8      0.368000
     12 O14        -3.1510    2.2850    2.2560 o         1 DT8     -0.352000
     13 C8         -1.1910    2.0050    3.5610 c2        1 DT8     -0.087000
     14 N7         -1.0780    0.8130    4.3020 n3        1 DT8     -0.195000
     15 C5         -0.8510    1.3130    5.8050 c2        1 DT8      0.013000
     16 C4         -0.6500    0.6540    7.1380 c2        1 DT8     -0.139000
     17 C3         -0.4610    1.5100    8.3970 c1        1 DT8     -0.101000
     18 C2         -0.5320    3.0370    8.3040 c1        1 DT8     -0.095000
     19 CL1        -0.2960    3.7570    9.8970 cl        1 DT8     -0.027000
     20 C9         -1.0750    3.1310    4.3070 c1        1 DT8     -0.119000
     21 C6         -0.8530    2.8860    5.6960 c1        1 DT8     -0.099000
     22 C1         -0.7700    3.7160    6.9350 c2        1 DT8     -0.064000
     23 C16        -2.7190    0.4790   -2.3010 c3        1 DT8     -0.162000
     24 C15        -2.1100    0.4860   -0.9150 c3        1 DT8      0.005000
     25 N20        -0.6960    0.0610   -1.0190 n         1 DT8     -0.346000
     26 C22        -0.3100   -1.3430   -0.6840 c2        1 DT8      0.390000
     27 O32        -1.1520   -2.1330   -0.3260 o         1 DT8     -0.422000
     28 C23         1.1470   -1.7560   -0.7240 c2        1 DT8     -0.383000
     29 S27         2.0150   -2.0150    0.7550 ss        1 DT8      0.665000
     30 C26         3.0030   -3.2570    0.3020 c2        1 DT8     -0.423000
     31 C28         4.2350   -3.7310    0.8410 c3        1 DT8      0.004000
     32 N29         4.6430   -5.1190    0.2280 n3        1 DT8     -0.254000
     33 C33         5.9650   -5.5100    0.7480 c3        1 DT8     -0.120000
     34 C30         4.6400   -5.1970   -0.9320 c3        1 DT8     -0.069000
     35 C31         3.2460   -4.8500   -1.6400 c3        1 DT8     -0.090000
     36 C25         2.7280   -3.6270   -1.2100 c2        1 DT8     -0.073000
     37 N24         1.6310   -2.7220   -1.7820 n2        1 DT8     -0.087000
     38 H371       -1.7710   -0.2670   -6.0000 h1        1 DT8      0.082667
     39 H372       -2.7720    0.3260   -7.1390 h1        1 DT8      0.082667
     40 H373       -1.1170    0.5990   -7.1980 h1        1 DT8      0.082667
     41 H361       -0.6740    3.0800   -5.9570 h1        1 DT8      0.082667
     42 H362       -2.2290    3.6280   -5.9990 h1        1 DT8      0.082667
     43 H363       -1.6010    2.8750   -7.3060 h1        1 DT8      0.082667
     44 H17        -1.1990    1.3470   -3.4960 hc        1 DT8      0.100000
     45 H181       -1.7430    3.5990   -3.0400 hc        1 DT8      0.096000
     46 H182       -3.0970    3.1860   -2.4340 hc        1 DT8      0.096000
     47 H191       -1.7760    3.7670   -0.6960 hc        1 DT8      0.094000
     48 H192       -0.6580    2.7860   -1.2040 hc        1 DT8      0.094000
     49 H13        -3.1100    2.0410   -0.0500 h1        1 DT8      0.139000
     50 HN12       -0.5530    1.5190    0.9730 hn        1 DT8      0.230000
     51 HN7        -0.8360   -0.0220    3.9610 hn        1 DT8      0.277000
     52 H4         -0.6040   -0.3290    7.1990 ha        1 DT8      0.139000
     53 H3         -0.2340    1.0850    9.2430 ha        1 DT8      0.144000
     54 H9         -1.5310    3.9750    4.0140 ha        1 DT8      0.172000
     55 H1         -0.8130    4.6350    6.8770 ha        1 DT8      0.151000
     56 H161       -2.5490   -0.4360   -2.7280 hc        1 DT8      0.117000
     57 H162       -3.7020    0.6200   -2.2200 hc        1 DT8      0.117000
     58 H15        -2.5920   -0.1570   -0.3550 h1        1 DT8      0.125000
     59 HN20       -0.0380    0.6810   -1.2550 hn        1 DT8      0.247000
     60 H281        5.0170   -3.0690    0.8460 h1        1 DT8      0.088000
     61 H282        4.1020   -3.8310    1.7450 h1        1 DT8      0.088000
     62 H331        6.1860   -6.4070    0.4400 h1        1 DT8      0.076000
     63 H332        5.9460   -5.4980    1.7110 h1        1 DT8      0.076000
     64 H333        6.6550   -4.8660    0.4210 h1        1 DT8      0.076000
     65 H301        5.3060   -4.5510   -1.2690 h1        1 DT8      0.078000
     66 H302        4.8560   -6.1570   -1.1660 h1        1 DT8      0.078000
     67 H311        3.2290   -4.8030   -2.6370 hc        1 DT8      0.109500
     68 H312        2.6650   -5.5900   -1.4050 hc        1 DT8      0.109500
@<TRIPOS>BOND
     1    1    2 1   
     2    2    6 1   
     3    3    4 1   
     4    3    5 1   
     5    4   38 1   
     6    4   39 1   
     7    4   40 1   
     8    5   41 1   
     9    5   42 1   
    10    5   43 1   
    11    6    7 1   
    12    6   23 1   
    13    6   44 1   
    14    7    8 1   
    15    7   45 1   
    16    7   46 1   
    17    8    9 1   
    18    8   47 1   
    19    8   48 1   
    20    9   10 1   
    21    9   24 1   
    22    9   49 1   
    23   10   11 1   
    24   10   50 1   
    25   11   12 1   
    26   11   13 1   
    27   13   14 1   
    28   13   20 1   
    29   14   15 1   
    30   14   51 1   
    31   15   16 1   
    32   15   21 1   
    33   16   17 1   
    34   16   52 1   
    35   17   53 1   
    36   18   19 1   
    37   18   22 1   
    38   20   54 1   
    39   21   22 1   
    40   22   55 1   
    41   23   24 1   
    42   23   56 1   
    43   23   57 1   
    44   24   25 1   
    45   24   58 1   
    46   25   26 1   
    47   25   59 1   
    48   26   27 1   
    49   26   28 1   
    50   28   29 1   
    51   28   37 1   
    52   29   30 1   
    53   30   31 1   
    54   30   36 1   
    55   31   32 1   
    56   31   60 1   
    57   31   61 1   
    58   32   33 1   
    59   32   34 1   
    60   33   62 1   
    61   33   63 1   
    62   33   64 1   
    63   34   35 1   
    64   34   65 1   
    65   34   66 1   
    66   35   36 1   
    67   35   67 1   
    68   35   68 1   
    69   36   37 1   
@<TRIPOS>SUBSTRUCTURE
     1 DT8         1 TEMP              0 ****  ****    0 ROOT
