@<TRIPOS>MOLECULE
DT8
   71    75     1     0     0
SMALL
bcc


@<TRIPOS>ATOM
      1 O34         0.7980   -0.6530    0.1100 o         1 DT8     -0.371100
      2 C21         1.8060    0.0340    0.1580 c         1 DT8      0.525100
      3 N35         2.1390    0.8610   -1.0620 nx        1 DT8     -0.580200
      4 C37         2.2670   -0.0150   -2.2640 c3        1 DT8      0.080100
      5 C36         1.0810    1.8920   -1.2820 c3        1 DT8      0.080100
      6 C17         2.7530    0.1190    1.3480 c3        1 DT8     -0.139700
      7 C18         2.7350    1.5240    1.9350 c3        1 DT8     -0.096400
      8 C19         3.4750    1.6030    3.2550 c3        1 DT8     -0.102400
      9 C13         2.8740    0.6020    4.2480 c3        1 DT8      0.107500
     10 N12         3.3360    0.8090    5.6500 ny        1 DT8     -0.684800
     11 C11         2.6550    2.0230    6.3460 c         1 DT8      0.593300
     12 O14         1.9760    2.7240    5.6010 o         1 DT8     -0.490100
     13 C8          2.9350    2.1170    7.7310 cc        1 DT8     -0.270300
     14 N7          2.4010    3.1790    8.5050 na        1 DT8     -0.116400
     15 C5          2.8260    3.0170    9.8030 ca        1 DT8      0.053800
     16 C4          2.5750    3.7970   10.9600 ca        1 DT8     -0.158000
     17 C3          3.1400    3.3910   12.1440 ca        1 DT8     -0.015000
     18 C2          3.9590    2.2180   12.2270 ca        1 DT8      0.010400
     19 Cl1         4.6060    1.8050   13.7300 cl        1 DT8     -0.002400
     20 C9          3.7160    1.2730    8.5820 cd        1 DT8     -0.044200
     21 C6          3.6600    1.8200    9.8790 ca        1 DT8     -0.107800
     22 C1          4.2210    1.4410   11.1210 ca        1 DT8     -0.078000
     23 C16         2.3090   -0.9270    2.3690 c3        1 DT8     -0.114400
     24 C15         3.0400   -0.8500    3.7190 c3        1 DT8      0.118500
     25 N20         4.4510   -1.3470    3.6280 ny        1 DT8     -0.687800
     26 C22         4.9120   -2.1500    4.8670 c         1 DT8      0.536600
     27 O32         4.5880   -1.6210    5.9350 o         1 DT8     -0.569100
     28 C23         5.6380   -3.3340    4.6010 cc        1 DT8      0.075900
     29 S27         6.2340   -4.3850    5.8080 ss        1 DT8      0.382700
     30 C26         6.8790   -5.3770    4.7190 cc        1 DT8     -0.166700
     31 C28         7.6470   -6.6300    4.9540 c3        1 DT8      0.211100
     32 N29         7.6720   -7.4960    3.7840 n3        1 DT8     -0.727600
     33 C33         8.4210   -8.7150    4.0160 c3        1 DT8      0.147100
     34 C30         8.0780   -6.7850    2.5810 c3        1 DT8      0.154800
     35 C31         7.0820   -5.6910    2.1810 c3        1 DT8     -0.128700
     36 C25         6.6260   -4.9060    3.3610 cd        1 DT8      0.422600
     37 N24         5.9350   -3.7620    3.3070 nd        1 DT8     -0.645000
     38 H371        3.1080   -0.7420   -2.1080 hx        1 DT8      0.122700
     39 H372        1.3030   -0.5730   -2.4250 hx        1 DT8      0.122700
     40 H373        2.4820    0.6250   -3.1650 hx        1 DT8      0.122700
     41 H361        1.0320    2.5680   -0.3870 hx        1 DT8      0.122700
     42 H362        0.0890    1.3840   -1.4360 hx        1 DT8      0.122700
     43 H363        1.3360    2.4930   -2.1990 hx        1 DT8      0.122700
     44 H17         3.7930   -0.1270    0.9880 hc        1 DT8      0.090700
     45 H181        3.2150    2.2490    1.2240 hc        1 DT8      0.092200
     46 H182        1.6710    1.8580    2.0900 hc        1 DT8      0.092200
     47 H191        4.5720    1.4300    3.1070 hc        1 DT8      0.097200
     48 H192        3.3550    2.6520    3.6560 hc        1 DT8      0.097200
     49 H13         1.7460    0.7840    4.2730 hx        1 DT8      0.156700
     50 HN12        4.3480    0.9580    5.6800 hn        1 DT8      0.464300
     51 HN7         1.8150    3.8970    8.1520 hn        1 DT8      0.340700
     52 H4          1.9460    4.7000   10.9060 ha        1 DT8      0.179000
     53 H3          2.9640    3.9770   13.0670 ha        1 DT8      0.191000
     54 H9          4.2540    0.3730    8.2870 ha        1 DT8      0.158000
     55 H1          4.8500    0.5390   11.1830 ha        1 DT8      0.170000
     56 H161        1.2080   -0.7950    2.5840 hc        1 DT8      0.120200
     57 H162        2.4140   -1.9560    1.9260 hc        1 DT8      0.120200
     58 H15         2.5030   -1.5610    4.4280 hx        1 DT8      0.142700
     59 HN20        5.1020   -0.5680    3.5020 hn        1 DT8      0.467800
     60 H281        8.6900   -6.3270    5.2900 h1        1 DT8      0.090700
     61 H282        7.1780   -7.2180    5.7990 h1        1 DT8      0.090700
     62 H331        8.2890   -9.3820    3.1230 h1        1 DT8      0.062033
     63 H332        8.0000   -9.2350    4.9160 h1        1 DT8      0.062033
     64 H333        9.5190   -8.5340    4.1770 h1        1 DT8      0.062033
     65 H301        9.1020   -6.3220    2.6910 h1        1 DT8      0.069700
     66 H302        8.1290   -7.5320    1.7370 h1        1 DT8      0.069700
     67 H311        6.1790   -6.1620    1.7010 hc        1 DT8      0.092700
     68 H312        7.5680   -5.0220    1.4230 hc        1 DT8      0.092700
     69 H351        3.0350    1.3390   -0.9080 hn        1 DT8      0.452800
     70 H122        3.1280   -0.0300    6.2120 hn        1 DT8      0.464300
     71 H202        4.5290   -1.9590    2.8000 hn        1 DT8      0.467800
@<TRIPOS>BOND
     1    1    2 2   
     2    2    3 1   
     3    2    6 1   
     4    3    4 1   
     5    3    5 1   
     6    3   69 1   
     7    4   38 1   
     8    4   39 1   
     9    4   40 1   
    10    5   41 1   
    11    5   42 1   
    12    5   43 1   
    13    6    7 1   
    14    6   23 1   
    15    6   44 1   
    16    7    8 1   
    17    7   45 1   
    18    7   46 1   
    19    8    9 1   
    20    8   47 1   
    21    8   48 1   
    22    9   10 1   
    23    9   24 1   
    24    9   49 1   
    25   10   11 1   
    26   10   50 1   
    27   10   70 1   
    28   11   12 2   
    29   11   13 1   
    30   13   14 1   
    31   13   20 2   
    32   14   15 1   
    33   14   51 1   
    34   15   16 ar  
    35   15   21 ar  
    36   16   17 ar  
    37   16   52 1   
    38   17   18 ar  
    39   17   53 1   
    40   18   19 1   
    41   18   22 ar  
    42   20   21 1   
    43   20   54 1   
    44   21   22 ar  
    45   22   55 1   
    46   23   24 1   
    47   23   56 1   
    48   23   57 1   
    49   24   25 1   
    50   24   58 1   
    51   25   26 1   
    52   25   59 1   
    53   25   71 1   
    54   26   27 2   
    55   26   28 1   
    56   28   29 1   
    57   28   37 2   
    58   29   30 1   
    59   30   31 1   
    60   30   36 2   
    61   31   32 1   
    62   31   60 1   
    63   31   61 1   
    64   32   33 1   
    65   32   34 1   
    66   33   62 1   
    67   33   63 1   
    68   33   64 1   
    69   34   35 1   
    70   34   65 1   
    71   34   66 1   
    72   35   36 1   
    73   35   67 1   
    74   35   68 1   
    75   36   37 1   
@<TRIPOS>SUBSTRUCTURE
     1 DT8         1 TEMP              0 ****  ****    0 ROOT
