@<TRIPOS>MOLECULE
DT8
   68    72     1     0     0
SMALL
bcc


@<TRIPOS>ATOM
      1 O34         0.1110    0.0630    1.6840 o         1 DT8     -0.606100
      2 C21        -0.5840   -0.3620    0.7390 c         1 DT8      0.661100
      3 N35        -0.8240    0.4450   -0.3650 n         1 DT8     -0.480800
      4 C37        -0.3570    1.8040   -0.3900 c3        1 DT8      0.079800
      5 C36        -1.6720    0.0280   -1.4430 c3        1 DT8      0.079800
      6 C17        -1.1460   -1.7820    0.7660 c3        1 DT8     -0.129700
      7 C18        -0.1200   -2.7270    0.1560 c3        1 DT8     -0.076400
      8 C19        -0.5710   -4.1680    0.2520 c3        1 DT8     -0.091400
      9 C13        -0.8310   -4.5560    1.7170 c3        1 DT8      0.092700
     10 N12        -1.1490   -5.9560    1.8590 n         1 DT8     -0.551900
     11 C11        -0.4210   -6.7950    2.6740 c         1 DT8      0.693300
     12 O14         0.6150   -6.4170    3.2630 o         1 DT8     -0.618100
     13 C8         -0.9070   -8.1920    2.8010 cc        1 DT8     -0.123300
     14 N7         -0.2130   -9.1080    3.6080 na        1 DT8     -0.150400
     15 C5         -0.8740  -10.3280    3.5510 ca        1 DT8     -0.029200
     16 C4         -0.5930  -11.5600    4.1730 ca        1 DT8     -0.136000
     17 C3         -1.4420  -12.6210    3.9230 ca        1 DT8     -0.098000
     18 C2         -2.5600  -12.4770    3.0690 ca        1 DT8     -0.013600
     19 CL1        -3.5620  -13.8300    2.8090 cl        1 DT8     -0.101400
     20 C9         -2.0140   -8.8170    2.2170 cd        1 DT8     -0.138200
     21 C6         -2.0200  -10.1820    2.6770 ca        1 DT8     -0.107800
     22 C1         -2.8590  -11.2750    2.4450 ca        1 DT8     -0.068000
     23 C16        -1.4410   -2.1710    2.2060 c3        1 DT8     -0.092400
     24 C15        -1.9260   -3.6220    2.3360 c3        1 DT8      0.077700
     25 N20        -3.2320   -3.8520    1.7630 n         1 DT8     -0.547900
     26 C22        -4.3550   -4.0160    2.5440 c         1 DT8      0.593600
     27 O32        -4.2920   -4.1130    3.7880 o         1 DT8     -0.606100
     28 C23        -5.6750   -4.1200    1.8590 cc        1 DT8      0.285900
     29 S27        -7.1040   -4.3700    2.7610 ss        1 DT8      0.092700
     30 C26        -8.0150   -4.3680    1.3760 cc        1 DT8     -0.233700
     31 C28        -9.4840   -4.5500    1.2790 c3        1 DT8      0.250100
     32 N29       -10.0280   -4.2600   -0.0460 n3        1 DT8     -0.728600
     33 C33       -11.3920   -4.7230   -0.1770 c3        1 DT8      0.156100
     34 C30        -9.1800   -4.7070   -1.1410 c3        1 DT8      0.168800
     35 C31        -7.7770   -4.0940   -1.1180 c3        1 DT8     -0.104700
     36 C25        -7.2000   -4.1680    0.2480 cd        1 DT8      0.346600
     37 N24        -5.8570   -4.0270    0.5280 nd        1 DT8     -0.619000
     38 H371        0.2770    2.0150    0.5130 h1        1 DT8      0.042867
     39 H372       -1.2270    2.5140   -0.3990 h1        1 DT8      0.042867
     40 H373        0.2580    1.9740   -1.3150 h1        1 DT8      0.042867
     41 H361       -2.7480   -0.0160   -1.1180 h1        1 DT8      0.042867
     42 H362       -1.3660   -0.9880   -1.8130 h1        1 DT8      0.042867
     43 H363       -1.5890    0.7550   -2.2940 h1        1 DT8      0.042867
     44 H17        -2.1010   -1.8350    0.1730 hc        1 DT8      0.059700
     45 H181        0.8590   -2.6000    0.6910 hc        1 DT8      0.058200
     46 H182        0.0460   -2.4620   -0.9210 hc        1 DT8      0.058200
     47 H191       -1.4920   -4.3250   -0.3680 hc        1 DT8      0.050200
     48 H192        0.2320   -4.8280   -0.1720 hc        1 DT8      0.050200
     49 H13         0.1170   -4.3530    2.3060 h1        1 DT8      0.103700
     50 HN12       -2.0030   -6.2740    1.4690 hn        1 DT8      0.319500
     51 HN7         0.5990   -8.8890    4.1270 hn        1 DT8      0.322700
     52 H4          0.2750  -11.6720    4.8370 ha        1 DT8      0.143000
     53 H3         -1.2490  -13.5970    4.3950 ha        1 DT8      0.148000
     54 H9         -2.7440   -8.3760    1.5440 ha        1 DT8      0.158000
     55 H1         -3.7320  -11.1730    1.7830 ha        1 DT8      0.150000
     56 H161       -0.5070   -2.0560    2.8200 hc        1 DT8      0.075200
     57 H162       -2.2070   -1.4720    2.6330 hc        1 DT8      0.075200
     58 H15        -1.9930   -3.8560    3.4450 h1        1 DT8      0.103700
     59 HN20       -3.3340   -3.6770    0.7910 hn        1 DT8      0.324500
     60 H281       -9.7300   -5.6070    1.6050 h1        1 DT8      0.047700
     61 H282      -10.0010   -3.8450    1.9950 h1        1 DT8      0.047700
     62 H331      -12.0020   -4.2920    0.6590 h1        1 DT8      0.036033
     63 H332      -11.4880   -5.8440   -0.1490 h1        1 DT8      0.036033
     64 H333      -11.8040   -4.3530   -1.1520 h1        1 DT8      0.036033
     65 H301       -9.6800   -4.4020   -2.1030 h1        1 DT8      0.037200
     66 H302       -9.0780   -5.8330   -1.1510 h1        1 DT8      0.037200
     67 H311       -7.8240   -3.0170   -1.4330 hc        1 DT8      0.068200
     68 H312       -7.1350   -4.6410   -1.8570 hc        1 DT8      0.068200
@<TRIPOS>BOND
     1    1    2 2   
     2    2    3 1   
     3    2    6 1   
     4    3    4 1   
     5    3    5 1   
     6    4   38 1   
     7    4   39 1   
     8    4   40 1   
     9    5   41 1   
    10    5   42 1   
    11    5   43 1   
    12    6    7 1   
    13    6   23 1   
    14    6   44 1   
    15    7    8 1   
    16    7   45 1   
    17    7   46 1   
    18    8    9 1   
    19    8   47 1   
    20    8   48 1   
    21    9   10 1   
    22    9   24 1   
    23    9   49 1   
    24   10   11 1   
    25   10   50 1   
    26   11   12 2   
    27   11   13 1   
    28   13   14 1   
    29   13   20 2   
    30   14   15 1   
    31   14   51 1   
    32   15   16 ar  
    33   15   21 ar  
    34   16   17 ar  
    35   16   52 1   
    36   17   18 ar  
    37   17   53 1   
    38   18   19 1   
    39   18   22 ar  
    40   20   21 1   
    41   20   54 1   
    42   21   22 ar  
    43   22   55 1   
    44   23   24 1   
    45   23   56 1   
    46   23   57 1   
    47   24   25 1   
    48   24   58 1   
    49   25   26 1   
    50   25   59 1   
    51   26   27 2   
    52   26   28 1   
    53   28   29 1   
    54   28   37 2   
    55   29   30 1   
    56   30   31 1   
    57   30   36 2   
    58   31   32 1   
    59   31   60 1   
    60   31   61 1   
    61   32   33 1   
    62   32   34 1   
    63   33   62 1   
    64   33   63 1   
    65   33   64 1   
    66   34   35 1   
    67   34   65 1   
    68   34   66 1   
    69   35   36 1   
    70   35   67 1   
    71   35   68 1   
    72   36   37 1   
@<TRIPOS>SUBSTRUCTURE
     1 DT8         1 TEMP              0 ****  ****    0 ROOT
