@<TRIPOS>MOLECULE
DT9
   38    38     1     0     0
SMALL
bcc


@<TRIPOS>ATOM
      1 CAA         0.1190   -0.0210   -0.2110 c3        1 DT9      0.104700
      2 CAB         5.5450    0.0620    0.1960 c3        1 DT9      0.105700
      3 CAC         4.5670   -1.4400    5.2950 c3        1 DT9     -0.109100
      4 NAD         4.3420    0.1620    8.6690 n3        1 DT9     -1.111400
      5 OAE         2.4290    1.9040    8.0020 o         1 DT9     -0.433900
      6 OAF         4.5740    2.1780    6.9380 o         1 DT9     -0.433900
      7 CAG         1.2470   -0.0230    2.3680 ca        1 DT9     -0.183000
      8 CAH         4.0460    0.0010    2.5780 ca        1 DT9     -0.176000
      9 CAI         0.9870   -0.0100    4.8380 c3        1 DT9     -0.048100
     10 CAJ         1.7540   -0.2930    6.1280 c3        1 DT9      0.204800
     11 OAK         1.5390   -0.0010   -0.0680 os        1 DT9     -0.287900
     12 OAL         4.1220    0.0320    0.1250 os        1 DT9     -0.287900
     13 CAM         1.8580   -0.0310    3.6340 ca        1 DT9     -0.069300
     14 CAN         2.0240   -0.0070    1.2150 ca        1 DT9      0.143100
     15 CAO         3.4500    0.0090    1.3220 ca        1 DT9      0.128100
     16 CAP         3.2470   -0.0250    3.7340 ca        1 DT9     -0.129300
     17 CAQ         3.9530   -0.0580    5.0650 c3        1 DT9      0.281800
     18 NAR         3.0630    0.3510    6.1710 n3        1 DT9     -0.823300
     19 SAS         3.4340    1.4480    7.1800 s4        1 DT9      1.629700
     20 HAA        -0.3080   -0.9500    0.2380 h1        1 DT9      0.055367
     21 HAAA       -0.3360    0.8890    0.2500 h1        1 DT9      0.055367
     22 HAAB       -0.0210   -0.0170   -1.3230 h1        1 DT9      0.055367
     23 HAB         5.8950    0.9830    0.7240 h1        1 DT9      0.053367
     24 HABA        5.8510    0.0840   -0.8820 h1        1 DT9      0.053367
     25 HABB        5.9340   -0.8560    0.6990 h1        1 DT9      0.053367
     26 HAC         5.2660   -1.6520    4.4470 hc        1 DT9      0.059700
     27 HACA        5.1440   -1.4740    6.2500 hc        1 DT9      0.059700
     28 HACB        3.7870   -2.2380    5.3110 hc        1 DT9      0.059700
     29 HNAD        4.4040   -0.8050    8.3940 hn        1 DT9      0.427467
     30 HNAA        3.8030    0.2260    9.5210 hn        1 DT9      0.427467
     31 HAG         0.1480   -0.0300    2.3030 ha        1 DT9      0.155000
     32 HAH         5.1420    0.0150    2.6740 ha        1 DT9      0.147000
     33 HAI         0.1800   -0.7880    4.7470 hc        1 DT9      0.080700
     34 HAIA        0.4780    0.9900    4.9050 hc        1 DT9      0.080700
     35 HAJ         1.1410    0.0570    7.0100 h1        1 DT9      0.081200
     36 HAJA        1.9170   -1.4060    6.2250 h1        1 DT9      0.081200
     37 HAQ         4.7980    0.7030    5.0290 h1        1 DT9      0.082700
     38 HAD3        5.2740    0.5060    8.8510 hn        1 DT9      0.427467
@<TRIPOS>BOND
     1    1   11 1   
     2    1   20 1   
     3    1   21 1   
     4    1   22 1   
     5    2   12 1   
     6    2   23 1   
     7    2   24 1   
     8    2   25 1   
     9    3   17 1   
    10    3   26 1   
    11    3   27 1   
    12    3   28 1   
    13    4   29 1   
    14    4   30 1   
    15    4   38 1   
    16    5   19 1   
    17    6   19 1   
    18    7   13 ar  
    19    7   14 ar  
    20    7   31 1   
    21    8   15 ar  
    22    8   16 ar  
    23    8   32 1   
    24    9   10 1   
    25    9   13 1   
    26    9   33 1   
    27    9   34 1   
    28   10   18 1   
    29   10   35 1   
    30   10   36 1   
    31   11   14 1   
    32   12   15 1   
    33   13   16 ar  
    34   14   15 ar  
    35   16   17 1   
    36   17   18 1   
    37   17   37 1   
    38   18   19 1   
@<TRIPOS>SUBSTRUCTURE
     1 DT9         1 TEMP              0 ****  ****    0 ROOT
