@<TRIPOS>MOLECULE
DT9
   38    38     1     0     0
SMALL
bcc


@<TRIPOS>ATOM
      1 CAA         0.1030   -0.0420   -0.1990 c3        1 DT9      0.104700
      2 CAB         5.5310    0.0540    0.1850 c3        1 DT9      0.105700
      3 CAC         4.5760   -1.4310    5.2940 c3        1 DT9     -0.109100
      4 NAD         4.3600    0.1830    8.6630 n3        1 DT9     -1.111400
      5 OAE         2.4420    1.9180    7.9970 o         1 DT9     -0.433900
      6 OAF         4.5820    2.1920    6.9240 o         1 DT9     -0.433900
      7 CAG         1.2410   -0.0330    2.3750 ca        1 DT9     -0.183000
      8 CAH         4.0410   -0.0020    2.5740 ca        1 DT9     -0.176000
      9 CAI         0.9910   -0.0100    4.8460 c3        1 DT9     -0.048100
     10 CAJ         1.7630   -0.2870    6.1340 c3        1 DT9      0.204800
     11 OAK         1.5230   -0.0190   -0.0620 os        1 DT9     -0.287900
     12 OAL         4.1070    0.0200    0.1200 os        1 DT9     -0.287900
     13 CAM         1.8570   -0.0340    3.6380 ca        1 DT9     -0.069300
     14 CAN         2.0140   -0.0190    1.2190 ca        1 DT9      0.143100
     15 CAO         3.4400    0.0000    1.3200 ca        1 DT9      0.128100
     16 CAP         3.2460   -0.0260    3.7330 ca        1 DT9     -0.129300
     17 CAQ         3.9570   -0.0510    5.0610 c3        1 DT9      0.281800
     18 NAR         3.0710    0.3600    6.1690 n3        1 DT9     -0.823300
     19 SAS         3.4440    1.4610    7.1730 s4        1 DT9      1.629700
     20 HAA        -0.3210   -0.9700    0.2550 h1        1 DT9      0.055367
     21 HAAA       -0.3510    0.8690    0.2590 h1        1 DT9      0.055367
     22 HAAB       -0.0420   -0.0420   -1.3110 h1        1 DT9      0.055367
     23 HAB         5.8320    0.0710   -0.8940 h1        1 DT9      0.053367
     24 HABA        5.9240   -0.8620    0.6900 h1        1 DT9      0.053367
     25 HABB        5.8800    0.9770    0.7080 h1        1 DT9      0.053367
     26 HAC         3.7970   -2.2310    5.3160 hc        1 DT9      0.059700
     27 HACA        5.2720   -1.6450    4.4440 hc        1 DT9      0.059700
     28 HACB        5.1570   -1.4610    6.2470 hc        1 DT9      0.059700
     29 HNAD        3.8250    0.2490    9.5170 hn        1 DT9      0.427467
     30 HNAA        4.4230   -0.7850    8.3910 hn        1 DT9      0.427467
     31 HAG         0.1420   -0.0420    2.3140 ha        1 DT9      0.155000
     32 HAH         5.1370    0.0140    2.6650 ha        1 DT9      0.147000
     33 HAI         0.4800    0.9890    4.9110 hc        1 DT9      0.080700
     34 HAIA        0.1850   -0.7900    4.7610 hc        1 DT9      0.080700
     35 HAJ         1.1530    0.0650    7.0170 h1        1 DT9      0.081200
     36 HAJA        1.9290   -1.4000    6.2340 h1        1 DT9      0.081200
     37 HAQ         4.8010    0.7110    5.0190 h1        1 DT9      0.082700
     38 HAD3        5.2930    0.5290    8.8400 hn        1 DT9      0.427467
@<TRIPOS>BOND
     1    1   11 1   
     2    1   20 1   
     3    1   21 1   
     4    1   22 1   
     5    2   12 1   
     6    2   23 1   
     7    2   24 1   
     8    2   25 1   
     9    3   17 1   
    10    3   26 1   
    11    3   27 1   
    12    3   28 1   
    13    4   29 1   
    14    4   30 1   
    15    4   38 1   
    16    5   19 1   
    17    6   19 1   
    18    7   13 ar  
    19    7   14 ar  
    20    7   31 1   
    21    8   15 ar  
    22    8   16 ar  
    23    8   32 1   
    24    9   10 1   
    25    9   13 1   
    26    9   33 1   
    27    9   34 1   
    28   10   18 1   
    29   10   35 1   
    30   10   36 1   
    31   11   14 1   
    32   12   15 1   
    33   13   16 ar  
    34   14   15 ar  
    35   16   17 1   
    36   17   18 1   
    37   17   37 1   
    38   18   19 1   
@<TRIPOS>SUBSTRUCTURE
     1 DT9         1 TEMP              0 ****  ****    0 ROOT
