@<TRIPOS>MOLECULE
DT9
   37    36     1     0     0
SMALL
bcc


@<TRIPOS>ATOM
      1 CAA        -2.7740    1.1190   -3.7980 c3        1 DT9     -0.075500
      2 CAB         0.9500   -1.5110   -4.3550 c3        1 DT9     -0.075500
      3 CAC         0.2860   -2.1600    1.6860 c3        1 DT9     -0.230000
      4 NAD         1.3730    0.6750    4.9840 n3        1 DT9     -0.953000
      5 OAE        -0.5700   -0.9910    4.4560 o         1 DT9     -0.930500
      6 OAF         1.4870   -1.6860    3.9720 o         1 DT9     -0.930500
      7 CAG        -0.8580    1.4690   -1.3420 c1        1 DT9     -0.186000
      8 CAH         0.3560   -1.0880   -1.2220 c1        1 DT9     -0.103000
      9 CAI        -0.2660    1.9340    1.1580 c3        1 DT9     -0.124000
     10 CAJ         0.5620    1.4670    2.2160 c3        1 DT9     -0.010000
     11 OAK        -1.3200    1.1370   -3.7570 os        1 DT9     -0.209500
     12 OAL        -0.2190   -1.4890   -3.5820 os        1 DT9     -0.209500
     13 CAM        -0.3630    1.0030   -0.1270 c2        1 DT9     -0.041000
     14 CAN        -0.7540    0.6690   -2.5080 c1        1 DT9      0.044500
     15 CAO        -0.1460   -0.6100   -2.4450 c1        1 DT9      0.044500
     16 CAP         0.2530   -0.2870   -0.0530 c2        1 DT9     -0.102000
     17 CAQ         0.8480   -0.7350    1.3500 c3        1 DT9      0.095000
     18 NAR         0.5780    0.0900    2.4320 n3        1 DT9     -0.835000
     19 SAS         0.7160   -0.5000    3.9550 s6        1 DT9      2.813000
     20 HAA        -3.1160    1.9780   -3.4990 h1        1 DT9      0.084167
     21 HAAA       -3.1170    0.3950   -3.1960 h1        1 DT9      0.084167
     22 HAAB       -3.0850    0.9420   -4.7500 h1        1 DT9      0.084167
     23 HAB         0.8610   -0.8690   -5.1090 h1        1 DT9      0.084167
     24 HABA        1.7330   -1.2460   -3.7810 h1        1 DT9      0.084167
     25 HABB        1.0990   -2.4400   -4.7190 h1        1 DT9      0.084167
     26 HAC         0.1380   -2.6430    0.8830 hc        1 DT9      0.091667
     27 HACA        0.9410   -2.6480    2.2480 hc        1 DT9      0.091667
     28 HACB       -0.5930   -2.0650    2.1920 hc        1 DT9      0.091667
     29 HNAD        2.1360    0.4830    5.4800 hn        1 DT9      0.241000
     30 HNAA        0.9440    1.4990    5.0870 hn        1 DT9      0.241000
     31 HAG        -1.2630    2.3850   -1.3990 ha        1 DT9      0.141000
     32 HAH         0.7670   -1.9560   -1.1760 ha        1 DT9      0.152000
     33 HAI         0.0540    2.7740    0.8860 hc        1 DT9      0.102000
     34 HAIA       -1.1860    2.0570    1.5190 hc        1 DT9      0.102000
     35 HAJ         1.5150    1.7550    2.0120 h1        1 DT9      0.085500
     36 HAJA        0.2440    1.8890    3.0430 h1        1 DT9      0.085500
     37 HAQ         1.7870   -0.8020    1.2600 h1        1 DT9      0.089000
@<TRIPOS>BOND
     1    1   11 1   
     2    1   20 1   
     3    1   21 1   
     4    1   22 1   
     5    2   12 1   
     6    2   23 1   
     7    2   24 1   
     8    2   25 1   
     9    3   17 1   
    10    3   26 1   
    11    3   27 1   
    12    3   28 1   
    13    4   19 1   
    14    4   29 1   
    15    4   30 1   
    16    5   19 1   
    17    6   19 1   
    18    7   13 1   
    19    7   31 1   
    20    8   16 1   
    21    8   32 1   
    22    9   10 1   
    23    9   13 1   
    24    9   33 1   
    25    9   34 1   
    26   10   18 1   
    27   10   35 1   
    28   10   36 1   
    29   11   14 1   
    30   12   15 1   
    31   13   16 1   
    32   14   15 1   
    33   16   17 1   
    34   17   18 1   
    35   17   37 1   
    36   18   19 1   
@<TRIPOS>SUBSTRUCTURE
     1 DT9         1 TEMP              0 ****  ****    0 ROOT
