@<TRIPOS>MOLECULE
DT9
   38    38     1     0     0
SMALL
bcc


@<TRIPOS>ATOM
      1 CAA         0.1120   -0.0370   -0.2050 c3        1 DT9      0.104700
      2 CAB         5.5380    0.0530    0.1910 c3        1 DT9      0.105700
      3 CAC         4.5720   -1.4330    5.2970 c3        1 DT9     -0.109100
      4 NAD         4.3510    0.1780    8.6660 n9        1 DT9     -1.111400
      5 OAE         2.4350    1.9160    7.9970 o         1 DT9     -0.433900
      6 OAF         4.5780    2.1890    6.9280 o         1 DT9     -0.433900
      7 CAG         1.2440   -0.0300    2.3720 ca        1 DT9     -0.183000
      8 CAH         4.0430   -0.0020    2.5760 ca        1 DT9     -0.176000
      9 CAI         0.9890   -0.0090    4.8420 c3        1 DT9     -0.048100
     10 CAJ         1.7590   -0.2870    6.1310 c3        1 DT9      0.204800
     11 OAK         1.5310   -0.0140   -0.0650 os        1 DT9     -0.287900
     12 OAL         4.1150    0.0210    0.1220 os        1 DT9     -0.287900
     13 CAM         1.8570   -0.0320    3.6360 ca        1 DT9     -0.069300
     14 CAN         2.0190   -0.0160    1.2160 ca        1 DT9      0.143100
     15 CAO         3.4450    0.0020    1.3210 ca        1 DT9      0.128100
     16 CAP         3.2470   -0.0260    3.7330 ca        1 DT9     -0.129300
     17 CAQ         3.9550   -0.0530    5.0630 c3        1 DT9      0.281800
     18 NAR         3.0670    0.3590    6.1700 n3        1 DT9     -0.823300
     19 SAS         3.4390    1.4590    7.1750 s4        1 DT9      1.629700
     20 HAA        -0.3430    0.8740    0.2530 h1        1 DT9      0.055367
     21 HAAA       -0.0310   -0.0360   -1.3170 h1        1 DT9      0.055367
     22 HAAB       -0.3140   -0.9650    0.2480 h1        1 DT9      0.055367
     23 HAB         5.8420    0.0710   -0.8880 h1        1 DT9      0.053367
     24 HABA        5.9290   -0.8630    0.6960 h1        1 DT9      0.053367
     25 HABB        5.8880    0.9750    0.7150 h1        1 DT9      0.053367
     26 HAC         3.7920   -2.2320    5.3160 hc        1 DT9      0.059700
     27 HACA        5.2690   -1.6470    4.4480 hc        1 DT9      0.059700
     28 HACB        5.1500   -1.4640    6.2500 hc        1 DT9      0.059700
     29 HNAD        5.2830    0.5240    8.8450 hn        1 DT9      0.427467
     30 HNAA        4.4130   -0.7890    8.3930 hn        1 DT9      0.427467
     31 HAG         0.1450   -0.0380    2.3080 ha        1 DT9      0.155000
     32 HAH         5.1390    0.0130    2.6700 ha        1 DT9      0.147000
     33 HAI         0.1820   -0.7880    4.7550 hc        1 DT9      0.080700
     34 HAIA        0.4790    0.9910    4.9060 hc        1 DT9      0.080700
     35 HAJ         1.1470    0.0650    7.0130 h1        1 DT9      0.081200
     36 HAJA        1.9230   -1.4000    6.2310 h1        1 DT9      0.081200
     37 HAQ         4.8000    0.7080    5.0230 h1        1 DT9      0.082700
     38 HAD3        3.8140    0.2440    9.5180 hn        1 DT9      0.427467
@<TRIPOS>BOND
     1    1   11 1   
     2    1   20 1   
     3    1   21 1   
     4    1   22 1   
     5    2   12 1   
     6    2   23 1   
     7    2   24 1   
     8    2   25 1   
     9    3   17 1   
    10    3   26 1   
    11    3   27 1   
    12    3   28 1   
    13    4   29 1   
    14    4   30 1   
    15    4   38 1   
    16    5   19 1   
    17    6   19 1   
    18    7   13 ar  
    19    7   14 ar  
    20    7   31 1   
    21    8   15 ar  
    22    8   16 ar  
    23    8   32 1   
    24    9   10 1   
    25    9   13 1   
    26    9   33 1   
    27    9   34 1   
    28   10   18 1   
    29   10   35 1   
    30   10   36 1   
    31   11   14 1   
    32   12   15 1   
    33   13   16 ar  
    34   14   15 ar  
    35   16   17 1   
    36   17   18 1   
    37   17   37 1   
    38   18   19 1   
@<TRIPOS>SUBSTRUCTURE
     1 DT9         1 TEMP              0 ****  ****    0 ROOT
