@<TRIPOS>MOLECULE
DT9
   37    38     1     0     0
SMALL
bcc


@<TRIPOS>ATOM
      1 CAA         4.6300    2.3470    0.2490 c3        1 DT9      0.109700
      2 CAB         3.5520   -2.9880    0.3550 c3        1 DT9      0.109700
      3 CAC        -1.0970   -1.5440   -1.8210 c3        1 DT9     -0.107100
      4 NAD        -4.4680   -0.6670   -0.6050 n3        1 DT9     -1.026700
      5 OAE        -3.9560    1.1190    0.9990 o         1 DT9     -0.651300
      6 OAF        -3.2210   -1.1450    1.4560 o         1 DT9     -0.651300
      7 CAG         1.9720    1.5280   -0.1120 ca        1 DT9     -0.181000
      8 CAH         1.4230   -1.2190   -0.1040 ca        1 DT9     -0.173000
      9 CAI        -0.4390    2.0770   -0.3880 c3        1 DT9     -0.046100
     10 CAJ        -1.7480    1.4600   -0.8870 c3        1 DT9      0.226800
     11 OAK         4.3410    0.9540    0.2030 os        1 DT9     -0.302900
     12 OAL         3.8300   -1.5980    0.2210 os        1 DT9     -0.303900
     13 CAM         0.6520    1.0750   -0.2700 ca        1 DT9     -0.060300
     14 CAN         3.0120    0.6180    0.0490 ca        1 DT9      0.109100
     15 CAO         2.7330   -0.7770    0.0580 ca        1 DT9      0.104100
     16 CAP         0.3820   -0.2940   -0.2760 ca        1 DT9     -0.083300
     17 CAQ        -1.0200   -0.8300   -0.4640 c3        1 DT9      0.282800
     18 NAR        -2.0450    0.1820   -0.2990 n3        1 DT9     -0.814500
     19 SAS        -3.4420   -0.1120    0.5070 s6        1 DT9      1.584800
     20 HAA         4.3510    2.8390   -0.7150 h1        1 DT9      0.044033
     21 HAAA        4.1020    2.8340    1.1040 h1        1 DT9      0.044033
     22 HAAB        5.7390    2.3750    0.4000 h1        1 DT9      0.044033
     23 HAB         3.1060   -3.3920   -0.5860 h1        1 DT9      0.044033
     24 HABA        4.5630   -3.4360    0.5360 h1        1 DT9      0.044033
     25 HABB        2.8760   -3.1780    1.2230 h1        1 DT9      0.044033
     26 HAC        -0.3100   -2.3350   -1.8600 hc        1 DT9      0.041700
     27 HACA       -2.0950   -2.0240   -1.9580 hc        1 DT9      0.041700
     28 HACB       -0.9260   -0.8290   -2.6600 hc        1 DT9      0.041700
     29 HNAD       -4.5500   -1.6210   -0.8460 hn        1 DT9      0.445300
     30 HNAA       -5.1070   -0.0920   -1.0930 hn        1 DT9      0.445300
     31 HAG         2.1680    2.6090   -0.1110 ha        1 DT9      0.141000
     32 HAH         1.1910   -2.2940   -0.0910 ha        1 DT9      0.141000
     33 HAI        -0.1420    2.8930   -1.0980 hc        1 DT9      0.060700
     34 HAIA       -0.6050    2.5480    0.6190 hc        1 DT9      0.060700
     35 HAJ        -2.5910    2.1740   -0.6560 h1        1 DT9      0.052200
     36 HAJA       -1.6820    1.3440   -2.0090 h1        1 DT9      0.052200
     37 HAQ        -1.1920   -1.6090    0.3480 h1        1 DT9      0.081700
@<TRIPOS>BOND
     1    1   11 1   
     2    1   20 1   
     3    1   21 1   
     4    1   22 1   
     5    2   12 1   
     6    2   23 1   
     7    2   24 1   
     8    2   25 1   
     9    3   17 1   
    10    3   26 1   
    11    3   27 1   
    12    3   28 1   
    13    4   19 1   
    14    4   29 1   
    15    4   30 1   
    16    5   19 2   
    17    6   19 2   
    18    7   13 ar  
    19    7   14 ar  
    20    7   31 1   
    21    8   15 ar  
    22    8   16 ar  
    23    8   32 1   
    24    9   10 1   
    25    9   13 1   
    26    9   33 1   
    27    9   34 1   
    28   10   18 1   
    29   10   35 1   
    30   10   36 1   
    31   11   14 1   
    32   12   15 1   
    33   13   16 ar  
    34   14   15 ar  
    35   16   17 1   
    36   17   18 1   
    37   17   37 1   
    38   18   19 1   
@<TRIPOS>SUBSTRUCTURE
     1 DT9         1 TEMP              0 ****  ****    0 ROOT
