@<TRIPOS>MOLECULE
DTA
   62    57     1     0     0
SMALL
bcc


@<TRIPOS>ATOM
      1 N62         3.4970   -5.2400   -3.9890 n3        1 DTA     -0.355000
      2 C62         3.2980   -6.1810   -3.0060 c2        1 DTA      0.245000
      3 N12         2.0300   -6.4860   -3.4130 n2        1 DTA     -0.270000
      4 C22         0.9680   -6.1460   -2.6410 c1        1 DTA      0.028000
      5 N32         1.1650   -5.4960   -1.4520 n1        1 DTA     -0.237000
      6 C42         2.4260   -5.1910   -1.0460 c1        1 DTA      0.059000
      7 C52         3.4970   -5.5340   -1.8250 c1        1 DTA     -0.237000
      8 N72         4.6320   -5.0750   -1.2120 n1        1 DTA     -0.165500
      9 C82         4.2610   -4.4440   -0.0470 c1        1 DTA     -0.029000
     10 N92         2.9010   -4.5150    0.0560 n1        1 DTA     -0.165500
     11 C1'         1.9710   -3.5260    0.5670 c2        1 DTA      0.131000
     12 O4'         1.5940   -2.7610   -0.3680 os        1 DTA     -0.263000
     13 C2'         2.6990   -2.5990    1.6480 c3        1 DTA     -0.028000
     14 O2'         1.6990   -1.9520    2.5180 oh        1 DTA     -0.318000
     15 C3'         3.3500   -1.7040    0.9690 c3        1 DTA      0.019000
     16 O3'         3.3540   -0.4050    1.7030 oh        1 DTA     -0.298000
     17 C4'         2.5790   -1.5720   -0.3390 c3        1 DTA      0.001000
     18 C5'         1.8630   -0.3420   -0.3730 c3        1 DTA     -0.287000
     19 S5'         1.4010    0.0280   -2.0470 ss        1 DTA      0.018000
     20 S5R         0.2540    1.7210   -2.0690 ss        1 DTA      0.029000
     21 C5R        -1.4640    1.2820   -2.4820 c3        1 DTA     -0.295000
     22 C4R        -2.3700    2.3770   -2.0550 c3        1 DTA     -0.001000
     23 O4R        -1.7020    3.2810   -1.4000 os        1 DTA     -0.275000
     24 C3R        -3.5080    1.7950   -1.0120 c3        1 DTA     -0.034000
     25 O3R        -3.9410    0.4340   -1.4360 oh        1 DTA     -0.316000
     26 C2R        -2.9610    1.7420    0.0990 c3        1 DTA      0.014000
     27 O2R        -2.3420    0.3890    0.3110 oh        1 DTA     -0.306000
     28 C1R        -1.8180    2.8720    0.0530 c3        1 DTA      0.171000
     29 N91        -2.1620    3.9040    0.7930 n3        1 DTA     -0.215000
     30 C81        -1.2530    4.8980    0.6010 c1        1 DTA     -0.040000
     31 N71        -1.4470    5.8280    1.5550 n2        1 DTA     -0.117000
     32 C51        -2.4760    5.4160    2.3420 c1        1 DTA     -0.241000
     33 C41        -2.9150    4.2270    1.8690 c1        1 DTA      0.067000
     34 N31        -3.9820    3.6180    2.4480 n1        1 DTA     -0.211000
     35 C21        -4.6130    4.2030    3.5060 c1        1 DTA      0.024000
     36 N11        -4.1710    5.4060    3.9870 n1        1 DTA     -0.268000
     37 C61        -3.1170    6.0110    3.4180 c1        1 DTA      0.240000
     38 N61        -3.0290    7.3610    3.9260 n3        1 DTA     -0.354000
     39 H621        2.8000   -4.7900   -4.3240 hn        1 DTA      0.246000
     40 H622        4.3170   -5.0580   -4.2690 hn        1 DTA      0.246000
     41 H22         0.0720   -6.3640   -2.9320 ha        1 DTA      0.188000
     42 H82         4.8700   -3.9570    0.5750 DU        1 DTA      0.215000
     43 H1'         1.1790   -3.9780    0.9810 h4        1 DTA      0.144000
     44 H2'         3.3310   -3.1440    2.1940 h1        1 DTA      0.124000
     45 HO2'        1.6800   -2.3620    3.3060 ho        1 DTA      0.235000
     46 H3'         4.2500   -1.9950    0.8010 h1        1 DTA      0.138000
     47 HO3'        4.1810   -0.2040    1.9440 ho        1 DTA      0.223000
     48 H4'         3.2180   -1.6290   -1.1320 h1        1 DTA      0.113000
     49 H5'1        2.4370    0.3840   -0.0210 h1        1 DTA      0.141000
     50 H5'2        1.0330   -0.4190    0.1920 h1        1 DTA      0.141000
     51 H5R1       -1.5420    1.1530   -3.4190 h1        1 DTA      0.140500
     52 H5R2       -1.7080    0.4690   -2.0240 h1        1 DTA      0.140500
     53 H4R        -2.8110    2.7840   -2.8470 h1        1 DTA      0.112000
     54 H3R        -4.2470    2.3770   -0.9820 h1        1 DTA      0.100000
     55 HO3R       -3.8950    0.3700   -2.3620 ho        1 DTA      0.216000
     56 H2R        -3.6130    1.9380    0.8130 h1        1 DTA      0.127000
     57 HO2R       -2.7220   -0.0050    1.0130 ho        1 DTA      0.230000
     58 H1R        -0.9770    2.5050    0.3620 h2        1 DTA      0.167000
     59 H81        -0.6250    4.9500   -0.1080 DU        1 DTA      0.215000
     60 H21        -5.3910    3.7570    3.9260 ha        1 DTA      0.190000
     61 H611       -3.6150    7.6480    4.5760 hn        1 DTA      0.243000
     62 H612       -2.3910    7.9490    3.5790 hn        1 DTA      0.243000
@<TRIPOS>BOND
     1    1    2 1   
     2    1   39 1   
     3    1   40 1   
     4    2    3 1   
     5    2    7 1   
     6    3    4 1   
     7    4   41 1   
     8    5    6 1   
     9    8    9 1   
    10    9   10 1   
    11   11   12 1   
    12   11   13 1   
    13   11   43 1   
    14   12   17 1   
    15   13   14 1   
    16   13   15 1   
    17   13   44 1   
    18   14   45 1   
    19   15   16 1   
    20   15   17 1   
    21   15   46 1   
    22   16   47 1   
    23   17   18 1   
    24   17   48 1   
    25   18   19 1   
    26   18   49 1   
    27   18   50 1   
    28   19   20 1   
    29   20   21 1   
    30   21   22 1   
    31   21   51 1   
    32   21   52 1   
    33   22   23 1   
    34   22   24 1   
    35   22   53 1   
    36   23   28 1   
    37   24   25 1   
    38   24   26 1   
    39   24   54 1   
    40   25   55 1   
    41   26   27 1   
    42   26   28 1   
    43   26   56 1   
    44   27   57 1   
    45   28   29 1   
    46   28   58 1   
    47   29   30 1   
    48   29   33 1   
    49   30   31 1   
    50   31   32 1   
    51   32   37 1   
    52   33   34 1   
    53   35   36 1   
    54   35   60 1   
    55   37   38 1   
    56   38   61 1   
    57   38   62 1   
@<TRIPOS>SUBSTRUCTURE
     1 DTA         1 TEMP              0 ****  ****    0 ROOT
