@<TRIPOS>MOLECULE
DTA
   64    69     1     0     0
SMALL
bcc


@<TRIPOS>ATOM
      1 N62         6.2520    4.1260    0.7350 n4        1 DTA     -0.815800
      2 C62         6.1470    2.6560    0.6830 ca        1 DTA      0.521700
      3 N12         6.5270    1.9250    1.7600 nb        1 DTA     -0.674000
      4 C22         6.4180    0.5680    1.6520 ca        1 DTA      0.674400
      5 N32         5.9750   -0.1660    0.5990 nb        1 DTA     -0.628000
      6 C42         5.5990    0.5750   -0.4710 ca        1 DTA      0.457300
      7 C52         5.6600    2.0570   -0.4920 ca        1 DTA     -0.134200
      8 N72         5.2130    2.5380   -1.7250 nc        1 DTA     -0.584100
      9 C82         4.8980    1.4360   -2.4340 cd        1 DTA      0.513200
     10 N92         5.0910    0.2260   -1.7310 na        1 DTA     -0.268000
     11 C1'         5.0110   -1.1270   -2.2730 c3        1 DTA      0.210300
     12 O4'         4.5760   -1.0620   -3.6260 os        1 DTA     -0.395100
     13 C2'         4.0300   -2.0750   -1.5080 c3        1 DTA      0.090100
     14 O2'         4.6770   -3.2720   -1.1720 oh        1 DTA     -0.563800
     15 C3'         2.8580   -2.3030   -2.4940 c3        1 DTA      0.085100
     16 O3'         2.7900   -3.6620   -2.8740 oh        1 DTA     -0.585800
     17 C4'         3.2130   -1.5000   -3.7640 c3        1 DTA      0.134600
     18 C5'         2.2610   -0.3380   -3.9570 c3        1 DTA     -0.050800
     19 S5'         2.6860    0.8590   -5.1820 ss        1 DTA     -0.138600
     20 S5R         2.9250   -0.1130   -7.0270 ss        1 DTA     -0.138600
     21 C5R         1.3670   -0.0840   -7.8500 c3        1 DTA     -0.050800
     22 C4R         0.8390    1.2890   -8.2040 c3        1 DTA      0.134600
     23 O4R         1.5280    1.8070   -9.3570 os        1 DTA     -0.395100
     24 C3R        -0.6730    1.2810   -8.5150 c3        1 DTA      0.085100
     25 O3R        -1.2920    2.1150   -7.5560 oh        1 DTA     -0.585800
     26 C2R        -0.8270    1.8840   -9.9280 c3        1 DTA      0.090100
     27 O2R        -1.5240    3.1020   -9.9260 oh        1 DTA     -0.563800
     28 C1R         0.6350    2.1120  -10.4260 c3        1 DTA      0.210300
     29 N91         0.9970    1.3640  -11.6190 na        1 DTA     -0.268000
     30 C81         1.7560    1.8860  -12.6930 cc        1 DTA      0.513200
     31 N71         2.0070    1.0020  -13.6760 nd        1 DTA     -0.584100
     32 C51         1.4100   -0.1870  -13.2480 ca        1 DTA     -0.134200
     33 C41         0.7700    0.0130  -11.9240 ca        1 DTA      0.457300
     34 N31         0.1230   -0.9810  -11.2680 nb        1 DTA     -0.628000
     35 C21         0.1070   -2.1680  -11.9320 ca        1 DTA      0.674400
     36 N11         0.6450   -2.4750  -13.1470 nb        1 DTA     -0.674000
     37 C61         1.2930   -1.4750  -13.7970 ca        1 DTA      0.521700
     38 N61         1.8880   -1.7350  -15.1210 n4        1 DTA     -0.815800
     39 H621        5.3370    4.5270    0.4940 hn        1 DTA      0.480300
     40 H622        6.9470    4.4280    0.0400 hn        1 DTA      0.480300
     41 H22         6.7400   -0.0090    2.5520 h5        1 DTA      0.102100
     42 H82         4.5110    1.4270   -3.4780 h5        1 DTA      0.121800
     43 H1'         6.0600   -1.5560   -2.2960 h2        1 DTA      0.122700
     44 H2'         3.6850   -1.6490   -0.5280 h1        1 DTA      0.114200
     45 HO2'        4.8640   -3.7590   -1.9910 ho        1 DTA      0.430000
     46 H3'         1.8850   -1.9690   -2.0460 h1        1 DTA      0.076700
     47 HO3'        2.5270   -4.1670   -2.0910 ho        1 DTA      0.434000
     48 H4'         3.2260   -2.1650   -4.6760 h1        1 DTA      0.119700
     49 H5'1        2.2090    0.2900   -3.0270 h1        1 DTA      0.094450
     50 H5'2        1.2410   -0.7550   -4.1480 h1        1 DTA      0.094450
     51 H5R1        1.5730   -0.6770   -8.7810 h1        1 DTA      0.094450
     52 H5R2        0.5960   -0.6270   -7.2500 h1        1 DTA      0.094450
     53 H4R         1.0600    2.0230   -7.3730 h1        1 DTA      0.119700
     54 H3R        -1.1020    0.2450   -8.4800 h1        1 DTA      0.076700
     55 HO3R       -2.2480    2.0580   -7.7010 ho        1 DTA      0.434000
     56 H2R        -1.4210    1.2160  -10.6070 h1        1 DTA      0.114200
     57 HO2R       -1.2120    3.6370   -9.1790 ho        1 DTA      0.430000
     58 H1R         0.8080    3.2060  -10.6760 h2        1 DTA      0.122700
     59 H81         2.0890    2.9390  -12.7010 h5        1 DTA      0.121800
     60 H21        -0.4190   -3.0090  -11.4230 h5        1 DTA      0.102100
     61 H611        1.3940   -1.1640  -15.8190 hn        1 DTA      0.480300
     62 H612        2.8770   -1.4550  -15.0960 hn        1 DTA      0.480300
     63 H623        6.5380    4.4470    1.6700 hn        1 DTA      0.480300
     64 H613        1.8140   -2.7300  -15.3750 hn        1 DTA      0.480300
@<TRIPOS>BOND
     1    1    2 1   
     2    1   39 1   
     3    1   40 1   
     4    1   63 1   
     5    2    3 ar  
     6    2    7 ar  
     7    3    4 ar  
     8    4    5 ar  
     9    4   41 1   
    10    5    6 ar  
    11    6    7 ar  
    12    6   10 1   
    13    7    8 1   
    14    8    9 2   
    15    9   10 1   
    16    9   42 1   
    17   10   11 1   
    18   11   12 1   
    19   11   13 1   
    20   11   43 1   
    21   12   17 1   
    22   13   14 1   
    23   13   15 1   
    24   13   44 1   
    25   14   45 1   
    26   15   16 1   
    27   15   17 1   
    28   15   46 1   
    29   16   47 1   
    30   17   18 1   
    31   17   48 1   
    32   18   19 1   
    33   18   49 1   
    34   18   50 1   
    35   19   20 1   
    36   20   21 1   
    37   21   22 1   
    38   21   51 1   
    39   21   52 1   
    40   22   23 1   
    41   22   24 1   
    42   22   53 1   
    43   23   28 1   
    44   24   25 1   
    45   24   26 1   
    46   24   54 1   
    47   25   55 1   
    48   26   27 1   
    49   26   28 1   
    50   26   56 1   
    51   27   57 1   
    52   28   29 1   
    53   28   58 1   
    54   29   30 1   
    55   29   33 1   
    56   30   31 2   
    57   30   59 1   
    58   31   32 1   
    59   32   33 ar  
    60   32   37 ar  
    61   33   34 ar  
    62   34   35 ar  
    63   35   36 ar  
    64   35   60 1   
    65   36   37 ar  
    66   37   38 1   
    67   38   61 1   
    68   38   62 1   
    69   38   64 1   
@<TRIPOS>SUBSTRUCTURE
     1 DTA         1 TEMP              0 ****  ****    0 ROOT
