@<TRIPOS>MOLECULE
DTA
   62    67     1     0     0
SMALL
bcc


@<TRIPOS>ATOM
      1 N62         7.3660   -1.9220   -7.6180 nh        1 DTA     -0.958000
      2 C62         8.0310   -2.0550   -6.4300 ca        1 DTA      0.767700
      3 N12         9.3970   -1.8970   -6.3600 nb        1 DTA     -0.794500
      4 C22         9.9870   -2.0540   -5.1460 ca        1 DTA      0.691400
      5 N32         9.4440   -2.3460   -3.9410 nb        1 DTA     -0.764500
      6 C42         8.0860   -2.5030   -4.0020 ca        1 DTA      0.459300
      7 C52         7.3090   -2.3710   -5.2290 ca        1 DTA     -0.232700
      8 N72         5.9510   -2.6000   -4.9630 nc        1 DTA     -0.543600
      9 C82         5.8900   -2.8610   -3.6500 cd        1 DTA      0.418700
     10 N92         7.1500   -2.8080   -3.0030 na        1 DTA     -0.287000
     11 C1'         7.4450   -3.1230   -1.6220 c3        1 DTA      0.219300
     12 O4'         6.2260   -3.1650   -0.8730 os        1 DTA     -0.413600
     13 C2'         8.4060   -2.1000   -0.9250 c3        1 DTA      0.111100
     14 O2'         9.6020   -2.7370   -0.5580 oh        1 DTA     -0.569800
     15 C3'         7.6430   -1.6450    0.3380 c3        1 DTA      0.097600
     16 O3'         8.2010   -2.2850    1.4650 oh        1 DTA     -0.571800
     17 C4'         6.1890   -2.1160    0.1090 c3        1 DTA      0.124100
     18 C5'         5.2690   -1.0140   -0.3800 c3        1 DTA     -0.050800
     19 S5'         4.6660    0.0340    0.8970 ss        1 DTA     -0.160600
     20 S5R         6.2060    1.4250    1.2840 ss        1 DTA     -0.160600
     21 C5R         5.9020    2.8420    0.2840 c3        1 DTA     -0.050800
     22 C4R         4.9000    3.8110    0.8800 c3        1 DTA      0.124100
     23 O4R         5.2460    5.1480    0.4840 os        1 DTA     -0.413600
     24 C3R         3.4470    3.5560    0.4330 c3        1 DTA      0.097600
     25 O3R         2.6650    3.4430    1.6090 oh        1 DTA     -0.571800
     26 C2R         3.0170    4.8100   -0.3640 c3        1 DTA      0.111100
     27 O2R         2.0050    5.5280    0.3010 oh        1 DTA     -0.569800
     28 C1R         4.3070    5.6810   -0.4620 c3        1 DTA      0.219300
     29 N91         4.8830    5.7870   -1.7780 na        1 DTA     -0.287000
     30 C81         5.6780    6.8870   -2.2060 cc        1 DTA      0.418700
     31 N71         6.2100    6.7290   -3.4230 nd        1 DTA     -0.543600
     32 C51         5.7890    5.4570   -3.8420 ca        1 DTA     -0.232700
     33 C41         4.9680    4.8350   -2.8080 ca        1 DTA      0.459300
     34 N31         4.4200    3.5890   -2.9360 nb        1 DTA     -0.764500
     35 C21         4.7130    3.0040   -4.1230 ca        1 DTA      0.691400
     36 N11         5.4520    3.4590   -5.1660 nb        1 DTA     -0.794500
     37 C61         6.0140    4.7120   -5.0480 ca        1 DTA      0.767700
     38 N61         6.7690    5.2420   -6.0570 nh        1 DTA     -0.958000
     39 H621        6.3820   -2.0210   -7.6300 hn        1 DTA      0.451550
     40 H622        7.8510   -1.6880   -8.4470 hn        1 DTA      0.451550
     41 H22        11.0910   -1.9180   -5.1490 h5        1 DTA      0.052100
     42 H82         4.9840   -3.1020   -3.0790 h5        1 DTA      0.080800
     43 H1'         7.8760   -4.1700   -1.5700 h2        1 DTA      0.105700
     44 H2'         8.6080   -1.2070   -1.5760 h1        1 DTA      0.097700
     45 HO2'       10.1380   -2.8010   -1.3620 ho        1 DTA      0.421500
     46 H3'         7.6920   -0.5250    0.4470 h1        1 DTA      0.079200
     47 HO3'        7.8910   -1.7960    2.2390 ho        1 DTA      0.412500
     48 H4'         5.7720   -2.6070    1.0330 h1        1 DTA      0.107200
     49 H5'1        4.3390   -1.4830   -0.8030 h1        1 DTA      0.099200
     50 H5'2        5.7580   -0.4340   -1.2000 h1        1 DTA      0.099200
     51 H5R1        6.9070    3.3490    0.2420 h1        1 DTA      0.099200
     52 H5R2        5.6190    2.5600   -0.7580 h1        1 DTA      0.099200
     53 H4R         4.9760    3.8120    2.0050 h1        1 DTA      0.107200
     54 H3R         3.3570    2.6300   -0.1930 h1        1 DTA      0.079200
     55 HO3R        1.7640    3.2400    1.3260 ho        1 DTA      0.412500
     56 H2R         2.5750    4.5550   -1.3630 h1        1 DTA      0.097700
     57 HO2R        2.2610    5.6160    1.2320 ho        1 DTA      0.421500
     58 H1R         4.1050    6.7370   -0.1030 h2        1 DTA      0.105700
     59 H81         5.8040    7.7710   -1.5670 h5        1 DTA      0.080800
     60 H21         4.2830    1.9900   -4.2710 h5        1 DTA      0.052100
     61 H611        7.1680    6.1400   -5.9390 hn        1 DTA      0.451550
     62 H612        6.9340    4.7330   -6.8890 hn        1 DTA      0.451550
@<TRIPOS>BOND
     1    1    2 1   
     2    1   39 1   
     3    1   40 1   
     4    2    3 ar  
     5    2    7 ar  
     6    3    4 ar  
     7    4    5 ar  
     8    4   41 1   
     9    5    6 ar  
    10    6    7 ar  
    11    6   10 1   
    12    7    8 1   
    13    8    9 2   
    14    9   10 1   
    15    9   42 1   
    16   10   11 1   
    17   11   12 1   
    18   11   13 1   
    19   11   43 1   
    20   12   17 1   
    21   13   14 1   
    22   13   15 1   
    23   13   44 1   
    24   14   45 1   
    25   15   16 1   
    26   15   17 1   
    27   15   46 1   
    28   16   47 1   
    29   17   18 1   
    30   17   48 1   
    31   18   19 1   
    32   18   49 1   
    33   18   50 1   
    34   19   20 1   
    35   20   21 1   
    36   21   22 1   
    37   21   51 1   
    38   21   52 1   
    39   22   23 1   
    40   22   24 1   
    41   22   53 1   
    42   23   28 1   
    43   24   25 1   
    44   24   26 1   
    45   24   54 1   
    46   25   55 1   
    47   26   27 1   
    48   26   28 1   
    49   26   56 1   
    50   27   57 1   
    51   28   29 1   
    52   28   58 1   
    53   29   30 1   
    54   29   33 1   
    55   30   31 2   
    56   30   59 1   
    57   31   32 1   
    58   32   33 ar  
    59   32   37 ar  
    60   33   34 ar  
    61   34   35 ar  
    62   35   36 ar  
    63   35   60 1   
    64   36   37 ar  
    65   37   38 1   
    66   38   61 1   
    67   38   62 1   
@<TRIPOS>SUBSTRUCTURE
     1 DTA         1 TEMP              0 ****  ****    0 ROOT
