@<TRIPOS>MOLECULE
DTA
   62    67     1     0     0
SMALL
bcc


@<TRIPOS>ATOM
      1 N62        -0.4960   -1.1130   -2.6430 nv        1 DTA     -0.957500
      2 C62         0.6970   -0.8400   -2.0350 ca        1 DTA      0.767700
      3 N12         0.7590   -0.5310   -0.6930 nb        1 DTA     -0.802500
      4 C22         1.9840   -0.2860   -0.1610 ca        1 DTA      0.697400
      5 N32         3.2090   -0.2840   -0.7420 nb        1 DTA     -0.747500
      6 C42         3.1570   -0.5830   -2.0720 ca        1 DTA      0.474300
      7 C52         1.9200   -0.8760   -2.7870 ca        1 DTA     -0.241200
      8 N72         2.1980   -1.1540   -4.1350 nc        1 DTA     -0.535600
      9 C82         3.5250   -1.0360   -4.2490 cd        1 DTA      0.400200
     10 N92         4.1830   -0.7190   -3.0270 na        1 DTA     -0.282500
     11 C1'         5.5460   -0.2800   -2.8590 c3        1 DTA      0.217800
     12 O4'         5.6860    1.1350   -3.0620 os        1 DTA     -0.413600
     13 C2'         6.5420   -0.9580   -3.8540 c3        1 DTA      0.086600
     14 O2'         7.7070   -1.3650   -3.1800 oh        1 DTA     -0.581300
     15 C3'         6.8490    0.1380   -4.9040 c3        1 DTA      0.075600
     16 O3'         8.2410    0.3940   -4.9420 oh        1 DTA     -0.587300
     17 C4'         6.1690    1.4220   -4.3840 c3        1 DTA      0.140600
     18 C5'         5.0070    1.9030   -5.2320 c3        1 DTA     -0.053800
     19 S5'         5.4210    2.5030   -6.8300 ss        1 DTA     -0.156100
     20 S5R         5.4790    0.7930   -8.0740 ss        1 DTA     -0.156100
     21 C5R         3.8450    0.5260   -8.6770 c3        1 DTA     -0.053800
     22 C4R         3.4520    1.4220   -9.8340 c3        1 DTA      0.140600
     23 O4R         2.5350    0.7160  -10.6850 os        1 DTA     -0.413600
     24 C3R         2.7680    2.7320   -9.3960 c3        1 DTA      0.075600
     25 O3R         3.4580    3.7940  -10.0330 oh        1 DTA     -0.587300
     26 C2R         1.3180    2.6590   -9.9270 c3        1 DTA      0.086600
     27 O2R         1.0500    3.6800  -10.8580 oh        1 DTA     -0.581300
     28 C1R         1.2110    1.2660  -10.6190 c3        1 DTA      0.217800
     29 N91         0.2840    0.3440  -10.0140 na        1 DTA     -0.282500
     30 C81        -0.4460   -0.6370  -10.7440 cc        1 DTA      0.400200
     31 N71        -1.1870   -1.4410   -9.9750 nd        1 DTA     -0.535600
     32 C51        -0.9420   -1.0170   -8.6600 ca        1 DTA     -0.241200
     33 C41         0.0030    0.0960   -8.6600 ca        1 DTA      0.474300
     34 N31         0.4380    0.7080   -7.5180 nb        1 DTA     -0.747500
     35 C21        -0.1040    0.1760   -6.3960 ca        1 DTA      0.697400
     36 N11        -0.9950   -0.8380   -6.2480 nb        1 DTA     -0.802500
     37 C61        -1.4410   -1.4640   -7.3910 ca        1 DTA      0.767700
     38 N61        -2.3580   -2.4780   -7.3290 nv        1 DTA     -0.957500
     39 H621       -1.3440   -1.0560   -2.1380 hn        1 DTA      0.452800
     40 H622       -0.5140   -1.2820   -3.6200 hn        1 DTA      0.452800
     41 H22         1.9760   -0.0450    0.9250 h5        1 DTA      0.054600
     42 H82         4.0950   -1.2050   -5.1700 h5        1 DTA      0.072300
     43 H1'         5.8400   -0.4490   -1.7790 h2        1 DTA      0.116700
     44 H2'         6.1380   -1.8970   -4.3150 h1        1 DTA      0.113700
     45 HO2'        8.1590   -0.5690   -2.8620 ho        1 DTA      0.422500
     46 H3'         6.4720   -0.1490   -5.9240 h1        1 DTA      0.081200
     47 HO3'        8.6650   -0.4180   -5.2490 ho        1 DTA      0.420000
     48 H4'         6.9280    2.2430   -4.2490 h1        1 DTA      0.111200
     49 H5'1        4.2170    1.1140   -5.2890 h1        1 DTA      0.099950
     50 H5'2        4.5510    2.7930   -4.7170 h1        1 DTA      0.099950
     51 H5R1        3.0920    0.5790   -7.8550 h1        1 DTA      0.099950
     52 H5R2        3.8790   -0.5360   -9.0440 h1        1 DTA      0.099950
     53 H4R         4.3460    1.6380  -10.4870 h1        1 DTA      0.111200
     54 H3R         2.7870    2.8590   -8.2820 h1        1 DTA      0.081200
     55 HO3R        3.0940    4.6150   -9.6770 ho        1 DTA      0.420000
     56 H2R         0.5590    2.8090   -9.1140 h1        1 DTA      0.113700
     57 HO2R        1.7840    3.7090  -11.4910 ho        1 DTA      0.422500
     58 H1R         0.8940    1.3850  -11.7010 h2        1 DTA      0.116700
     59 H81        -0.3850   -0.6830  -11.8380 h5        1 DTA      0.072300
     60 H21         0.2380    0.6340   -5.4410 h5        1 DTA      0.054600
     61 H611       -2.6600   -2.8340   -6.4570 hn        1 DTA      0.452800
     62 H612       -2.6030   -2.9510   -8.1630 hn        1 DTA      0.452800
@<TRIPOS>BOND
     1    1    2 1   
     2    1   39 1   
     3    1   40 1   
     4    2    3 ar  
     5    2    7 ar  
     6    3    4 ar  
     7    4    5 ar  
     8    4   41 1   
     9    5    6 ar  
    10    6    7 ar  
    11    6   10 1   
    12    7    8 1   
    13    8    9 2   
    14    9   10 1   
    15    9   42 1   
    16   10   11 1   
    17   11   12 1   
    18   11   13 1   
    19   11   43 1   
    20   12   17 1   
    21   13   14 1   
    22   13   15 1   
    23   13   44 1   
    24   14   45 1   
    25   15   16 1   
    26   15   17 1   
    27   15   46 1   
    28   16   47 1   
    29   17   18 1   
    30   17   48 1   
    31   18   19 1   
    32   18   49 1   
    33   18   50 1   
    34   19   20 1   
    35   20   21 1   
    36   21   22 1   
    37   21   51 1   
    38   21   52 1   
    39   22   23 1   
    40   22   24 1   
    41   22   53 1   
    42   23   28 1   
    43   24   25 1   
    44   24   26 1   
    45   24   54 1   
    46   25   55 1   
    47   26   27 1   
    48   26   28 1   
    49   26   56 1   
    50   27   57 1   
    51   28   29 1   
    52   28   58 1   
    53   29   30 1   
    54   29   33 1   
    55   30   31 2   
    56   30   59 1   
    57   31   32 1   
    58   32   33 ar  
    59   32   37 ar  
    60   33   34 ar  
    61   34   35 ar  
    62   35   36 ar  
    63   35   60 1   
    64   36   37 ar  
    65   37   38 1   
    66   38   61 1   
    67   38   62 1   
@<TRIPOS>SUBSTRUCTURE
     1 DTA         1 TEMP              0 ****  ****    0 ROOT
