@<TRIPOS>MOLECULE
DTA
   62    67     1     0     0
SMALL
bcc


@<TRIPOS>ATOM
      1 N62        -0.2310   -1.4410   -1.9200 nh        1 DTA     -0.957000
      2 C62         1.0900   -1.3290   -1.5840 ca        1 DTA      0.766700
      3 N12         1.5940   -1.9550   -0.4660 nb        1 DTA     -0.797500
      4 C22         2.9120   -1.7800   -0.1850 ca        1 DTA      0.690900
      5 N32         3.8600   -1.0730   -0.8440 nb        1 DTA     -0.763000
      6 C42         3.3670   -0.4500   -1.9580 ca        1 DTA      0.459800
      7 C52         1.9770   -0.5340   -2.3880 ca        1 DTA     -0.232200
      8 N72         1.7890    0.2230   -3.5530 nc        1 DTA     -0.547600
      9 C82         2.9920    0.7460   -3.8310 cd        1 DTA      0.417700
     10 N92         3.9970    0.3680   -2.9080 na        1 DTA     -0.288000
     11 C1'         5.3780    0.7930   -2.8740 c3        1 DTA      0.221300
     12 O4'         5.7030    1.5140   -4.0650 os        1 DTA     -0.411600
     13 C2'         6.4020   -0.3830   -2.7420 c3        1 DTA      0.086600
     14 O2'         7.2670   -0.1140   -1.6610 oh        1 DTA     -0.587800
     15 C3'         7.2260   -0.3520   -4.0500 c3        1 DTA      0.108600
     16 O3'         8.5910   -0.0870   -3.8550 oh        1 DTA     -0.580300
     17 C4'         6.5560    0.7370   -4.9220 c3        1 DTA      0.124600
     18 C5'         5.7610    0.1430   -6.0700 c3        1 DTA     -0.046800
     19 S5'         5.7460    1.3440   -7.3750 ss        1 DTA     -0.157100
     20 S5R         5.3180    0.2220   -9.1030 ss        1 DTA     -0.157100
     21 C5R         3.5860    0.3370   -9.4020 c3        1 DTA     -0.046800
     22 C4R         3.2000    1.5580  -10.2140 c3        1 DTA      0.124600
     23 O4R         2.1700    1.2000  -11.1490 os        1 DTA     -0.411600
     24 C3R         2.6690    2.7300   -9.3640 c3        1 DTA      0.108600
     25 O3R         3.4550    3.8650   -9.6860 oh        1 DTA     -0.580300
     26 C2R         1.2080    2.9590   -9.8150 c3        1 DTA      0.086600
     27 O2R         1.0520    4.1960  -10.4700 oh        1 DTA     -0.587800
     28 C1R         0.9100    1.7930  -10.8060 c3        1 DTA      0.221300
     29 N91        -0.0290    0.8070  -10.3340 na        1 DTA     -0.288000
     30 C81        -0.8560    0.0250  -11.1880 cc        1 DTA      0.417700
     31 N71        -1.5740   -0.9020  -10.5450 nd        1 DTA     -0.547600
     32 C51        -1.2080   -0.7750   -9.1950 ca        1 DTA     -0.232200
     33 C41        -0.2160    0.2850   -9.0430 ca        1 DTA      0.459800
     34 N31         0.3300    0.6320   -7.8390 nb        1 DTA     -0.763000
     35 C21        -0.1590   -0.0990   -6.8080 ca        1 DTA      0.690900
     36 N11        -1.0770   -1.0990   -6.8010 nb        1 DTA     -0.797500
     37 C61        -1.6270   -1.4650   -8.0090 ca        1 DTA      0.766700
     38 N61        -2.5550   -2.4670   -8.0860 nh        1 DTA     -0.957000
     39 H621       -0.8360   -2.0270   -1.4000 hn        1 DTA      0.451050
     40 H622       -0.5450   -1.0390   -2.7680 hn        1 DTA      0.451050
     41 H22         3.2610   -2.3040    0.7320 h5        1 DTA      0.060100
     42 H82         3.2290    1.4160   -4.6690 h5        1 DTA      0.083300
     43 H1'         5.5080    1.5350   -2.0270 h2        1 DTA      0.103700
     44 H2'         5.9020   -1.3790   -2.6190 h1        1 DTA      0.105200
     45 HO2'        6.8110   -0.4060   -0.8600 ho        1 DTA      0.427500
     46 H3'         7.2040   -1.3570   -4.5560 h1        1 DTA      0.089200
     47 HO3'        8.6730    0.6230   -3.2040 ho        1 DTA      0.422500
     48 H4'         7.3230    1.4710   -5.3040 h1        1 DTA      0.112700
     49 H5'1        4.7180   -0.0900   -5.7420 h1        1 DTA      0.092450
     50 H5'2        6.2380   -0.8020   -6.4280 h1        1 DTA      0.092450
     51 H5R1        2.9900    0.2690   -8.4610 h1        1 DTA      0.092450
     52 H5R2        3.3670   -0.5830  -10.0130 h1        1 DTA      0.092450
     53 H4R         4.0680    1.8930  -10.8530 h1        1 DTA      0.112700
     54 H3R         2.7200    2.5100   -8.2660 h1        1 DTA      0.089200
     55 HO3R        3.1490    4.5850   -9.1180 ho        1 DTA      0.422500
     56 H2R         0.4930    3.0020   -8.9510 h1        1 DTA      0.105200
     57 HO2R        1.7750    4.2910  -11.1070 ho        1 DTA      0.427500
     58 H1R         0.5030    2.1940  -11.7850 h2        1 DTA      0.103700
     59 H81        -0.8800    0.2110  -12.2690 h5        1 DTA      0.083300
     60 H21         0.2550    0.1570   -5.8060 h5        1 DTA      0.060100
     61 H611       -2.8570   -2.9440   -7.2740 hn        1 DTA      0.451050
     62 H612       -2.9360   -2.7030   -8.9680 hn        1 DTA      0.451050
@<TRIPOS>BOND
     1    1    2 1   
     2    1   39 1   
     3    1   40 1   
     4    2    3 ar  
     5    2    7 ar  
     6    3    4 ar  
     7    4    5 ar  
     8    4   41 1   
     9    5    6 ar  
    10    6    7 ar  
    11    6   10 1   
    12    7    8 1   
    13    8    9 2   
    14    9   10 1   
    15    9   42 1   
    16   10   11 1   
    17   11   12 1   
    18   11   13 1   
    19   11   43 1   
    20   12   17 1   
    21   13   14 1   
    22   13   15 1   
    23   13   44 1   
    24   14   45 1   
    25   15   16 1   
    26   15   17 1   
    27   15   46 1   
    28   16   47 1   
    29   17   18 1   
    30   17   48 1   
    31   18   19 1   
    32   18   49 1   
    33   18   50 1   
    34   19   20 1   
    35   20   21 1   
    36   21   22 1   
    37   21   51 1   
    38   21   52 1   
    39   22   23 1   
    40   22   24 1   
    41   22   53 1   
    42   23   28 1   
    43   24   25 1   
    44   24   26 1   
    45   24   54 1   
    46   25   55 1   
    47   26   27 1   
    48   26   28 1   
    49   26   56 1   
    50   27   57 1   
    51   28   29 1   
    52   28   58 1   
    53   29   30 1   
    54   29   33 1   
    55   30   31 2   
    56   30   59 1   
    57   31   32 1   
    58   32   33 ar  
    59   32   37 ar  
    60   33   34 ar  
    61   34   35 ar  
    62   35   36 ar  
    63   35   60 1   
    64   36   37 ar  
    65   37   38 1   
    66   38   61 1   
    67   38   62 1   
@<TRIPOS>SUBSTRUCTURE
     1 DTA         1 TEMP              0 ****  ****    0 ROOT
