@<TRIPOS>MOLECULE
DTB
   32    32     1     0     0
SMALL
bcc


@<TRIPOS>ATOM
      1 CN         -0.2410    0.0480    0.0220 c         1 DTB      0.744500
      2 O          -1.0470   -0.0020   -0.9260 o         1 DTB     -0.642500
      3 N2          1.1710    0.0390   -0.1060 ns        1 DTB     -0.521900
      4 CR          1.7790   -0.0880    1.2190 c3        1 DTB      0.060700
      5 CS          0.5670    0.0710    2.2320 c3        1 DTB      0.047700
      6 N1         -0.6200    0.2400    1.3890 ns        1 DTB     -0.517900
      7 CT          0.4610   -1.0390    3.2610 c3        1 DTB     -0.117100
      8 CE          2.5980   -1.3560    1.4370 c3        1 DTB     -0.103400
      9 CD          3.8310   -1.3980    0.5590 c3        1 DTB     -0.081400
     10 CG          4.7010   -2.5880    0.9090 c3        1 DTB     -0.079400
     11 CB          5.9670   -2.6140    0.0780 c3        1 DTB     -0.066400
     12 CA          6.8310   -3.8050    0.4120 c3        1 DTB     -0.195400
     13 C           8.2220   -3.6870   -0.2370 c         1 DTB      0.908600
     14 OI1         8.8210   -2.5740   -0.1800 o         1 DTB     -0.850800
     15 OI2         8.7060   -4.7220   -0.7800 o         1 DTB     -0.850800
     16 HN2         1.5570   -0.4990   -0.8480 hn        1 DTB      0.320500
     17 HCR         2.4600    0.8010    1.3550 h1        1 DTB      0.076700
     18 HCS         0.7120    1.0480    2.7800 h1        1 DTB      0.068700
     19 HN1        -1.4430   -0.2430    1.6710 hn        1 DTB      0.296500
     20 HCT1        0.3820   -2.0430    2.7800 hc        1 DTB      0.046033
     21 HCT2       -0.4390   -0.8840    3.9060 hc        1 DTB      0.046033
     22 HCT3        1.3640   -1.0280    3.9170 hc        1 DTB      0.046033
     23 HCE1        1.9730   -2.2680    1.2500 hc        1 DTB      0.047700
     24 HCE2        2.9200   -1.3830    2.5120 hc        1 DTB      0.047700
     25 HCD1        3.5390   -1.4600   -0.5220 hc        1 DTB      0.041700
     26 HCD2        4.4220   -0.4530    0.6890 hc        1 DTB      0.041700
     27 HCG1        4.9710   -2.5490    1.9970 hc        1 DTB      0.027200
     28 HCG2        4.1230   -3.5360    0.7460 hc        1 DTB      0.027200
     29 HCB1        6.5630   -1.6780    0.2530 hc        1 DTB      0.046200
     30 HCB2        5.7010   -2.6380   -1.0110 hc        1 DTB      0.046200
     31 HCA1        6.3410   -4.7510    0.0720 hc        1 DTB      0.019200
     32 HCA2        6.9790   -3.8730    1.5200 hc        1 DTB      0.019200
@<TRIPOS>BOND
     1    1    2 2   
     2    1    3 1   
     3    1    6 1   
     4    3    4 1   
     5    3   16 1   
     6    4    5 1   
     7    4    8 1   
     8    4   17 1   
     9    5    6 1   
    10    5    7 1   
    11    5   18 1   
    12    6   19 1   
    13    7   20 1   
    14    7   21 1   
    15    7   22 1   
    16    8    9 1   
    17    8   23 1   
    18    8   24 1   
    19    9   10 1   
    20    9   25 1   
    21    9   26 1   
    22   10   11 1   
    23   10   27 1   
    24   10   28 1   
    25   11   12 1   
    26   11   29 1   
    27   11   30 1   
    28   12   13 1   
    29   12   31 1   
    30   12   32 1   
    31   13   14 1   
    32   13   15 1   
@<TRIPOS>SUBSTRUCTURE
     1 DTB         1 TEMP              0 ****  ****    0 ROOT
