@<TRIPOS>MOLECULE
DTB
   32    32     1     0     0
SMALL
bcc


@<TRIPOS>ATOM
      1 CN         -0.2360    0.0620    0.0300 c         1 DTB      0.744500
      2 O          -1.0440    0.0170   -0.9180 o         1 DTB     -0.642500
      3 N2          1.1760    0.0490   -0.1000 n         1 DTB     -0.521900
      4 CR          1.7840   -0.0840    1.2250 c3        1 DTB      0.060700
      5 CS          0.5740    0.0770    2.2390 c3        1 DTB      0.047700
      6 N1         -0.6140    0.2520    1.3970 n         1 DTB     -0.517900
      7 CT          0.4640   -1.0350    3.2650 c3        1 DTB     -0.117100
      8 CE          2.5990   -1.3550    1.4390 c3        1 DTB     -0.103400
      9 CD          3.8310   -1.3990    0.5590 c3        1 DTB     -0.081400
     10 CG          4.6980   -2.5930    0.9050 c3        1 DTB     -0.079400
     11 CB          5.9630   -2.6210    0.0720 c3        1 DTB     -0.066400
     12 CA          6.8230   -3.8150    0.4040 c3        1 DTB     -0.195400
     13 C           8.2140   -3.7010   -0.2480 c         1 DTB      0.908600
     14 OI1         8.8160   -2.5900   -0.1900 o         1 DTB     -0.850800
     15 OI2         8.6930   -4.7360   -0.7920 o         1 DTB     -0.850800
     16 HN2         1.5590   -0.4890   -0.8430 hn        1 DTB      0.320500
     17 HCR         2.4680    0.8030    1.3610 h1        1 DTB      0.076700
     18 HCS         0.7220    1.0520    2.7890 h1        1 DTB      0.068700
     19 HN1        -1.4380   -0.2290    1.6790 hn        1 DTB      0.296500
     20 HCT1       -0.4340   -0.8790    3.9110 hc        1 DTB      0.046033
     21 HCT2        0.3810   -2.0380    2.7810 hc        1 DTB      0.046033
     22 HCT3        1.3680   -1.0290    3.9200 hc        1 DTB      0.046033
     23 HCE1        1.9710   -2.2640    1.2490 hc        1 DTB      0.047700
     24 HCE2        2.9220   -1.3860    2.5130 hc        1 DTB      0.047700
     25 HCD1        3.5380   -1.4570   -0.5210 hc        1 DTB      0.041700
     26 HCD2        4.4260   -0.4560    0.6910 hc        1 DTB      0.041700
     27 HCG1        4.9690   -2.5570    1.9930 hc        1 DTB      0.027200
     28 HCG2        4.1160   -3.5380    0.7410 hc        1 DTB      0.027200
     29 HCB1        6.5620   -1.6870    0.2480 hc        1 DTB      0.046200
     30 HCB2        5.6950   -2.6420   -1.0160 hc        1 DTB      0.046200
     31 HCA1        6.9720   -3.8850    1.5110 hc        1 DTB      0.019200
     32 HCA2        6.3300   -4.7590    0.0630 hc        1 DTB      0.019200
@<TRIPOS>BOND
     1    1    2 2   
     2    1    3 1   
     3    1    6 1   
     4    3    4 1   
     5    3   16 1   
     6    4    5 1   
     7    4    8 1   
     8    4   17 1   
     9    5    6 1   
    10    5    7 1   
    11    5   18 1   
    12    6   19 1   
    13    7   20 1   
    14    7   21 1   
    15    7   22 1   
    16    8    9 1   
    17    8   23 1   
    18    8   24 1   
    19    9   10 1   
    20    9   25 1   
    21    9   26 1   
    22   10   11 1   
    23   10   27 1   
    24   10   28 1   
    25   11   12 1   
    26   11   29 1   
    27   11   30 1   
    28   12   13 1   
    29   12   31 1   
    30   12   32 1   
    31   13   14 1   
    32   13   15 1   
@<TRIPOS>SUBSTRUCTURE
     1 DTB         1 TEMP              0 ****  ****    0 ROOT
