@<TRIPOS>MOLECULE
DTB
   32    31     1     0     0
SMALL
bcc


@<TRIPOS>ATOM
      1 CN         -3.5260    1.5640   -1.1920 c1        1 DTB      0.335000
      2 O          -4.2950    1.6420   -2.1310 o         1 DTB     -0.365000
      3 N2         -2.0770    1.4660   -1.2790 n2        1 DTB     -0.331000
      4 CR         -1.5630    1.4190    0.0360 c3        1 DTB     -0.015000
      5 CS         -2.7060    1.4700    0.9770 c3        1 DTB     -0.029000
      6 N1         -3.8940    1.5570    0.2160 n3        1 DTB     -0.327000
      7 CT         -2.7310    0.2050    1.8280 c3        1 DTB     -0.235000
      8 CE         -0.7860    0.1220    0.2400 c3        1 DTB     -0.182000
      9 CD          0.6060    0.2720   -0.3340 c3        1 DTB     -0.160000
     10 CG          1.4590   -0.8940    0.1040 c3        1 DTB     -0.158000
     11 CB          2.7980   -0.8320   -0.6010 c3        1 DTB     -0.144000
     12 CA          3.6970   -1.9320   -0.0740 c3        1 DTB     -0.225000
     13 C           4.9590   -1.9920   -0.9030 c2        1 DTB      0.328000
     14 OI1         4.9870   -2.6770   -1.9590 o         1 DTB     -0.585000
     15 OI2         5.9820   -1.3580   -0.5370 o         1 DTB     -0.585000
     16 HN2        -1.5860    1.4490   -2.0470 hn        1 DTB      0.235000
     17 HCR        -0.9750    2.1830    0.1890 h1        1 DTB      0.114000
     18 HCS        -2.6250    2.2550    1.5530 h1        1 DTB      0.108000
     19 HN1        -4.7420    1.6020    0.5490 hn        1 DTB      0.210000
     20 HCT1       -2.6600   -0.5810    1.2470 hc        1 DTB      0.085333
     21 HCT2       -3.5720    0.1650    2.3300 hc        1 DTB      0.085333
     22 HCT3       -1.9770    0.2180    2.4540 hc        1 DTB      0.085333
     23 HCE1       -0.7260   -0.0740    1.1950 hc        1 DTB      0.087000
     24 HCE2       -1.2490   -0.6110   -0.2150 hc        1 DTB      0.087000
     25 HCD1        1.0030    1.1060   -0.0120 hc        1 DTB      0.081000
     26 HCD2        0.5550    0.2910   -1.3110 hc        1 DTB      0.081000
     27 HCG1        1.5980   -0.8520    1.0700 hc        1 DTB      0.067000
     28 HCG2        1.0090   -1.7320   -0.1250 hc        1 DTB      0.067000
     29 HCB1        3.2140    0.0370   -0.4340 hc        1 DTB      0.085500
     30 HCB2        2.6650   -0.9520   -1.5640 hc        1 DTB      0.085500
     31 HCA1        3.2300   -2.7900   -0.1300 hc        1 DTB      0.058500
     32 HCA2        3.9270   -1.7470    0.8580 hc        1 DTB      0.058500
@<TRIPOS>BOND
     1    1    2 1   
     2    1    6 1   
     3    3    4 1   
     4    3   16 1   
     5    4    5 1   
     6    4    8 1   
     7    4   17 1   
     8    5    6 1   
     9    5    7 1   
    10    5   18 1   
    11    6   19 1   
    12    7   20 1   
    13    7   21 1   
    14    7   22 1   
    15    8    9 1   
    16    8   23 1   
    17    8   24 1   
    18    9   10 1   
    19    9   25 1   
    20    9   26 1   
    21   10   11 1   
    22   10   27 1   
    23   10   28 1   
    24   11   12 1   
    25   11   29 1   
    26   11   30 1   
    27   12   13 1   
    28   12   31 1   
    29   12   32 1   
    30   13   14 1   
    31   13   15 1   
@<TRIPOS>SUBSTRUCTURE
     1 DTB         1 TEMP              0 ****  ****    0 ROOT
