@<TRIPOS>MOLECULE
DTB
   32    32     1     0     0
SMALL
bcc


@<TRIPOS>ATOM
      1 CN         -0.2020    0.1400    0.0410 c         1 DTB      0.744500
      2 O          -0.9940    0.1410   -0.9210 o         1 DTB     -0.642500
      3 N2          1.2130    0.1150   -0.0680 n         1 DTB     -0.521900
      4 CR          1.7980   -0.0760    1.2600 c3        1 DTB      0.060700
      5 CS          0.5730    0.0600    2.2610 c3        1 DTB      0.047700
      6 N1         -0.5980    0.2810    1.4080 n         1 DTB     -0.517900
      7 CT          0.4350   -1.0890    3.2410 c3        1 DTB     -0.117100
      8 CE          2.5950   -1.3640    1.4370 c3        1 DTB     -0.103400
      9 CD          3.8410   -1.3890    0.5770 c3        1 DTB     -0.081400
     10 CG          4.6880   -2.6060    0.8880 c3        1 DTB     -0.079400
     11 CB          5.9660   -2.6160    0.0770 c3        1 DTB     -0.066400
     12 CA          6.8070   -3.8330    0.3730 c3        1 DTB     -0.195400
     13 C           8.2100   -3.7090   -0.2490 c         1 DTB      0.908600
     14 OI1         8.8250   -2.6100   -0.1330 o         1 DTB     -0.850800
     15 OI2         8.6870   -4.7270   -0.8290 o         1 DTB     -0.850800
     16 HN2         1.6020   -0.3990   -0.8250 hn        1 DTB      0.320500
     17 HCR         2.4900    0.7970    1.4420 h1        1 DTB      0.076700
     18 HCS         0.7240    1.0110    2.8500 h1        1 DTB      0.068700
     19 HN1        -1.4320   -0.2000    1.6580 hn        1 DTB      0.296500
     20 HCT1        1.3290   -1.1190    3.9110 hc        1 DTB      0.046033
     21 HCT2        0.3490   -2.0710    2.7180 hc        1 DTB      0.046033
     22 HCT3       -0.4720   -0.9480    3.8790 hc        1 DTB      0.046033
     23 HCE1        1.9600   -2.2580    1.2030 hc        1 DTB      0.047700
     24 HCE2        2.9000   -1.4400    2.5140 hc        1 DTB      0.047700
     25 HCD1        4.4440   -0.4590    0.7550 hc        1 DTB      0.041700
     26 HCD2        3.5650   -1.4000   -0.5100 hc        1 DTB      0.041700
     27 HCG1        4.0980   -3.5360    0.6760 hc        1 DTB      0.027200
     28 HCG2        4.9400   -2.6170    1.9810 hc        1 DTB      0.027200
     29 HCB1        6.5740   -1.6980    0.3010 hc        1 DTB      0.046200
     30 HCB2        5.7170   -2.5890   -1.0160 hc        1 DTB      0.046200
     31 HCA1        6.9350   -3.9510    1.4790 hc        1 DTB      0.019200
     32 HCA2        6.3090   -4.7560   -0.0160 hc        1 DTB      0.019200
@<TRIPOS>BOND
     1    1    2 2   
     2    1    3 1   
     3    1    6 1   
     4    3    4 1   
     5    3   16 1   
     6    4    5 1   
     7    4    8 1   
     8    4   17 1   
     9    5    6 1   
    10    5    7 1   
    11    5   18 1   
    12    6   19 1   
    13    7   20 1   
    14    7   21 1   
    15    7   22 1   
    16    8    9 1   
    17    8   23 1   
    18    8   24 1   
    19    9   10 1   
    20    9   25 1   
    21    9   26 1   
    22   10   11 1   
    23   10   27 1   
    24   10   28 1   
    25   11   12 1   
    26   11   29 1   
    27   11   30 1   
    28   12   13 1   
    29   12   31 1   
    30   12   32 1   
    31   13   14 1   
    32   13   15 1   
@<TRIPOS>SUBSTRUCTURE
     1 DTB         1 TEMP              0 ****  ****    0 ROOT
