@<TRIPOS>MOLECULE
DTB
   32    32     1     0     0
SMALL
bcc


@<TRIPOS>ATOM
      1 CN         -1.1910   -0.0330    3.9530 c         1 DTB      0.744500
      2 O          -2.2260   -0.4750    4.4880 o         1 DTB     -0.640500
      3 N2         -1.1270    0.5630    2.6670 n         1 DTB     -0.521900
      4 CR          0.2730    0.7840    2.3030 c3        1 DTB      0.061700
      5 CS          1.0880    0.4520    3.6240 c3        1 DTB      0.047700
      6 N1          0.0790    0.0460    4.6070 n         1 DTB     -0.517900
      7 CT          2.2180   -0.5410    3.4290 c3        1 DTB     -0.117100
      8 CE          0.7530    0.0170    1.0770 c3        1 DTB     -0.103400
      9 CD          0.0460    0.4580   -0.1880 c3        1 DTB     -0.081400
     10 CG          0.6820   -0.1730   -1.4090 c3        1 DTB     -0.079400
     11 CB         -0.0180    0.2510   -2.6830 c3        1 DTB     -0.065400
     12 CA          0.6400   -0.3410   -3.9050 c3        1 DTB     -0.196400
     13 C          -0.1900   -0.0680   -5.1730 c         1 DTB      0.908600
     14 OI1        -1.4410   -0.2490   -5.1250 o         1 DTB     -0.850300
     15 OI2         0.4300    0.3080   -6.2090 o         1 DTB     -0.850300
     16 HN2        -1.7380    0.2060    1.9690 hn        1 DTB      0.321500
     17 HCR         0.3870    1.8880    2.0980 h1        1 DTB      0.074700
     18 HCS         1.5300    1.4200    4.0000 h1        1 DTB      0.068700
     19 HN1         0.3060   -0.7310    5.1860 hn        1 DTB      0.296500
     20 HCT1        2.7170   -0.7570    4.4060 hc        1 DTB      0.046033
     21 HCT2        1.8530   -1.5050    2.9990 hc        1 DTB      0.046033
     22 HCT3        2.9810   -0.1090    2.7370 hc        1 DTB      0.046033
     23 HCE1        1.8540    0.2020    0.9590 hc        1 DTB      0.047700
     24 HCE2        0.6110   -1.0860    1.2190 hc        1 DTB      0.047700
     25 HCD1       -1.0380    0.1720   -0.1490 hc        1 DTB      0.041700
     26 HCD2        0.0900    1.5750   -0.2780 hc        1 DTB      0.041700
     27 HCG1        1.7650    0.1180   -1.4610 hc        1 DTB      0.027700
     28 HCG2        0.6460   -1.2910   -1.3150 hc        1 DTB      0.027700
     29 HCB1       -1.0930   -0.0730   -2.6610 hc        1 DTB      0.046200
     30 HCB2       -0.0110    1.3690   -2.7600 hc        1 DTB      0.046200
     31 HCA1        1.6680    0.0780   -4.0370 hc        1 DTB      0.019200
     32 HCA2        0.7330   -1.4510   -3.7910 hc        1 DTB      0.019200
@<TRIPOS>BOND
     1    1    2 2   
     2    1    3 1   
     3    1    6 1   
     4    3    4 1   
     5    3   16 1   
     6    4    5 1   
     7    4    8 1   
     8    4   17 1   
     9    5    6 1   
    10    5    7 1   
    11    5   18 1   
    12    6   19 1   
    13    7   20 1   
    14    7   21 1   
    15    7   22 1   
    16    8    9 1   
    17    8   23 1   
    18    8   24 1   
    19    9   10 1   
    20    9   25 1   
    21    9   26 1   
    22   10   11 1   
    23   10   27 1   
    24   10   28 1   
    25   11   12 1   
    26   11   29 1   
    27   11   30 1   
    28   12   13 1   
    29   12   31 1   
    30   12   32 1   
    31   13   14 1   
    32   13   15 1   
@<TRIPOS>SUBSTRUCTURE
     1 DTB         1 TEMP              0 ****  ****    0 ROOT
