@<TRIPOS>MOLECULE
DTC
   37    40     1     0     0
SMALL
bcc


@<TRIPOS>ATOM
      1 O5          1.7330   -1.1220   -0.8810 os        1 DTC     -0.325700
      2 C10         2.5270   -1.1620    0.2480 ca        1 DTC      0.163600
      3 C9          2.4440   -0.2160    1.2800 ca        1 DTC     -0.241100
      4 C8          1.4520    0.8620    1.2300 c         1 DTC      0.598200
      5 O17         1.4620    1.8140    2.0190 o         1 DTC     -0.520100
      6 C7          0.3620    0.7050    0.1950 c3        1 DTC     -0.253700
      7 C15        -0.1770    2.0400   -0.3100 c3        1 DTC     -0.052400
      8 C6          0.7580   -0.1400   -0.9800 c         1 DTC      0.732100
      9 O16         0.2590   -0.1320   -2.1020 o         1 DTC     -0.552500
     10 C1          3.3290   -0.3220    2.3650 ca        1 DTC     -0.038500
     11 C2          4.2570   -1.3560    2.4160 ca        1 DTC     -0.167000
     12 C3          4.3200   -2.2960    1.3820 ca        1 DTC     -0.068500
     13 C4          3.4630   -2.2100    0.2910 ca        1 DTC     -0.154500
     14 C5         -2.5160    6.3000    0.7230 ca        1 DTC     -0.038500
     15 C20        -2.4010    4.9020    0.7710 ca        1 DTC     -0.241100
     16 C19        -3.4800    4.1550    1.2640 ca        1 DTC      0.163600
     17 C18        -4.6560    4.7760    1.7160 ca        1 DTC     -0.154500
     18 C17        -4.7390    6.1640    1.6650 ca        1 DTC     -0.068500
     19 C16        -3.6750    6.9250    1.1710 ca        1 DTC     -0.167000
     20 O21        -3.4810    2.7730    1.3170 os        1 DTC     -0.325700
     21 C12        -2.3300    2.0860    0.9680 c         1 DTC      0.732100
     22 O32        -2.5330    0.8720    0.9770 o         1 DTC     -0.552500
     23 C13        -1.0290    2.7850    0.7110 c3        1 DTC     -0.253700
     24 C14        -1.1800    4.2370    0.3060 c         1 DTC      0.598200
     25 O38        -0.2970    4.8210   -0.3300 o         1 DTC     -0.520100
     26 HC7        -0.4830    0.1400    0.7070 hc        1 DTC      0.148700
     27 H151        0.6880    2.7020   -0.5920 hc        1 DTC      0.091200
     28 H152       -0.7860    1.8570   -1.2370 hc        1 DTC      0.091200
     29 HC1         3.2710    0.4280    3.1700 ha        1 DTC      0.160000
     30 HC2         4.9440   -1.4350    3.2710 ha        1 DTC      0.145000
     31 HC3         5.0570   -3.1130    1.4290 ha        1 DTC      0.144000
     32 HC4         3.5030   -2.9350   -0.5350 ha        1 DTC      0.162500
     33 H18        -5.4850    4.1610    2.0950 ha        1 DTC      0.162500
     34 H17        -5.6540    6.6650    2.0180 ha        1 DTC      0.144000
     35 H16        -3.7560    8.0210    1.1340 ha        1 DTC      0.145000
     36 H13        -0.4740    2.7980    1.7040 hc        1 DTC      0.148700
     37 HC5        -1.6720    6.8880    0.3250 ha        1 DTC      0.160000
@<TRIPOS>BOND
     1    1    2 1   
     2    1    8 1   
     3    2    3 ar  
     4    2   13 ar  
     5    3    4 1   
     6    3   10 ar  
     7    4    5 2   
     8    4    6 1   
     9    6    7 1   
    10    6    8 1   
    11    6   26 1   
    12    7   23 1   
    13    7   27 1   
    14    7   28 1   
    15    8    9 2   
    16   10   11 ar  
    17   10   29 1   
    18   11   12 ar  
    19   11   30 1   
    20   12   13 ar  
    21   12   31 1   
    22   13   32 1   
    23   14   15 ar  
    24   14   19 ar  
    25   14   37 1   
    26   15   16 ar  
    27   15   24 1   
    28   16   17 ar  
    29   16   20 1   
    30   17   18 ar  
    31   17   33 1   
    32   18   19 ar  
    33   18   34 1   
    34   19   35 1   
    35   20   21 1   
    36   21   22 2   
    37   21   23 1   
    38   23   24 1   
    39   23   36 1   
    40   24   25 2   
@<TRIPOS>SUBSTRUCTURE
     1 DTC         1 TEMP              0 ****  ****    0 ROOT
