@<TRIPOS>MOLECULE
DTC
   37    40     1     0     0
SMALL
bcc


@<TRIPOS>ATOM
      1 O5          1.8180   -1.0380   -0.9330 os        1 DTC     -0.325700
      2 C10         2.5500   -1.1410    0.2340 ca        1 DTC      0.163600
      3 C9          2.4110   -0.2490    1.3080 ca        1 DTC     -0.241100
      4 C8          1.4250    0.8350    1.2600 c         1 DTC      0.598200
      5 O17         1.3930    1.7440    2.0980 o         1 DTC     -0.520100
      6 C7          0.3930    0.7370    0.1610 c3        1 DTC     -0.253700
      7 C15        -0.1150    2.0980   -0.3040 c3        1 DTC     -0.052400
      8 C6          0.8510   -0.0490   -1.0340 c         1 DTC      0.732100
      9 O16         0.4140    0.0200   -2.1790 o         1 DTC     -0.552500
     10 C1          3.2350   -0.4150    2.4320 ca        1 DTC     -0.038500
     11 C2          4.1580   -1.4540    2.4790 ca        1 DTC     -0.167000
     12 C3          4.2770   -2.3400    1.4030 ca        1 DTC     -0.068500
     13 C4          3.4800   -2.1930    0.2730 ca        1 DTC     -0.154500
     14 C5         -2.5000    6.3100    0.8190 ca        1 DTC     -0.038500
     15 C20        -2.3900    4.9110    0.8000 ca        1 DTC     -0.241100
     16 C19        -3.4960    4.1440    1.1940 ca        1 DTC      0.163600
     17 C18        -4.6940    4.7470    1.6100 ca        1 DTC     -0.154500
     18 C17        -4.7720    6.1350    1.6270 ca        1 DTC     -0.068500
     19 C16        -3.6810    6.9160    1.2320 ca        1 DTC     -0.167000
     20 O21        -3.5020    2.7610    1.1740 os        1 DTC     -0.325700
     21 C12        -2.3350    2.0880    0.8550 c         1 DTC      0.732100
     22 O32        -2.5410    0.8760    0.7900 o         1 DTC     -0.552500
     23 C13        -1.0210    2.7930    0.7070 c3        1 DTC     -0.253700
     24 C14        -1.1460    4.2650    0.3710 c         1 DTC      0.598200
     25 O38        -0.2280    4.8770   -0.1830 o         1 DTC     -0.520100
     26 HC7        -0.4800    0.1490    0.5960 hc        1 DTC      0.148700
     27 H151       -0.6730    1.9660   -1.2700 hc        1 DTC      0.091200
     28 H152        0.7650    2.7700   -0.5030 hc        1 DTC      0.091200
     29 HC1         3.1350    0.2930    3.2710 ha        1 DTC      0.160000
     30 HC2         4.7980   -1.5790    3.3650 ha        1 DTC      0.145000
     31 HC3         5.0090   -3.1610    1.4480 ha        1 DTC      0.144000
     32 HC4         3.5640   -2.8750   -0.5860 ha        1 DTC      0.162500
     33 H18        -5.5440    4.1170    1.9100 ha        1 DTC      0.162500
     34 H17        -5.7050    6.6220    1.9530 ha        1 DTC      0.144000
     35 H16        -3.7590    8.0130    1.2480 ha        1 DTC      0.145000
     36 H13        -0.5220    2.7520    1.7290 hc        1 DTC      0.148700
     37 HC5        -1.6340    6.9130    0.4990 ha        1 DTC      0.160000
@<TRIPOS>BOND
     1    1    2 1   
     2    1    8 1   
     3    2    3 ar  
     4    2   13 ar  
     5    3    4 1   
     6    3   10 ar  
     7    4    5 2   
     8    4    6 1   
     9    6    7 1   
    10    6    8 1   
    11    6   26 1   
    12    7   23 1   
    13    7   27 1   
    14    7   28 1   
    15    8    9 2   
    16   10   11 ar  
    17   10   29 1   
    18   11   12 ar  
    19   11   30 1   
    20   12   13 ar  
    21   12   31 1   
    22   13   32 1   
    23   14   15 ar  
    24   14   19 ar  
    25   14   37 1   
    26   15   16 ar  
    27   15   24 1   
    28   16   17 ar  
    29   16   20 1   
    30   17   18 ar  
    31   17   33 1   
    32   18   19 ar  
    33   18   34 1   
    34   19   35 1   
    35   20   21 1   
    36   21   22 2   
    37   21   23 1   
    38   23   24 1   
    39   23   36 1   
    40   24   25 2   
@<TRIPOS>SUBSTRUCTURE
     1 DTC         1 TEMP              0 ****  ****    0 ROOT
