@<TRIPOS>MOLECULE
DTC
   37    40     1     0     0
SMALL
bcc


@<TRIPOS>ATOM
      1 O5         -3.5350   -1.4620   -1.4400 os        1 DTC     -0.325700
      2 C10        -4.1410   -0.7340   -0.4350 ca        1 DTC      0.163600
      3 C9         -3.4300   -0.1280    0.6110 ca        1 DTC     -0.241100
      4 C8         -1.9670   -0.2010    0.6630 c         1 DTC      0.598200
      5 O17        -1.3160    0.1600    1.6510 o         1 DTC     -0.520100
      6 C7         -1.2870   -0.6770   -0.6000 c3        1 DTC     -0.253700
      7 C15         0.0340   -1.3910   -0.3330 c3        1 DTC     -0.052400
      8 C6         -2.1510   -1.5500   -1.4620 c         1 DTC      0.732100
      9 O16        -1.7780   -2.3620   -2.3050 o         1 DTC     -0.552500
     10 C1         -4.1470    0.5520    1.6080 ca        1 DTC     -0.038500
     11 C2         -5.5330    0.6320    1.5460 ca        1 DTC     -0.167000
     12 C3         -6.2260    0.0290    0.4910 ca        1 DTC     -0.068500
     13 C4         -5.5430   -0.6600   -0.5050 ca        1 DTC     -0.154500
     14 C5          4.6740   -1.1440    1.4290 ca        1 DTC     -0.038500
     15 C20         3.6160   -0.6630    0.6420 ca        1 DTC     -0.241100
     16 C19         3.8630    0.3960   -0.2440 ca        1 DTC      0.163600
     17 C18         5.1360    0.9820   -0.3470 ca        1 DTC     -0.154500
     18 C17         6.1640    0.4900    0.4510 ca        1 DTC     -0.068500
     19 C16         5.9360   -0.5680    1.3350 ca        1 DTC     -0.167000
     20 O21         2.9000    0.9160   -1.0880 os        1 DTC     -0.325700
     21 C12         1.5990    0.4510   -0.9910 c         1 DTC      0.732100
     22 O32         0.8980    0.9450   -1.8730 o         1 DTC     -0.552500
     23 C13         1.1570   -0.4610    0.1140 c3        1 DTC     -0.253700
     24 C14         2.2810   -1.2600    0.7390 c         1 DTC      0.598200
     25 O38         2.0610   -2.3200    1.3340 o         1 DTC     -0.520100
     26 HC7        -1.0800    0.2560   -1.2210 hc        1 DTC      0.148700
     27 H151       -0.1210   -2.1610    0.4710 hc        1 DTC      0.091200
     28 H152        0.3510   -1.9290   -1.2680 hc        1 DTC      0.091200
     29 HC1        -3.5880    1.0200    2.4360 ha        1 DTC      0.160000
     30 HC2        -6.0880    1.1700    2.3290 ha        1 DTC      0.145000
     31 HC3        -7.3250    0.0970    0.4470 ha        1 DTC      0.144000
     32 HC4        -6.0710   -1.1470   -1.3380 ha        1 DTC      0.162500
     33 H18         5.2970    1.8090   -1.0540 ha        1 DTC      0.162500
     34 H17         7.1670    0.9410    0.3810 ha        1 DTC      0.144000
     35 H16         6.7600   -0.9490    1.9580 ha        1 DTC      0.145000
     36 H13         0.7600    0.2130    0.9410 hc        1 DTC      0.148700
     37 HC5         4.4820   -1.9840    2.1180 ha        1 DTC      0.160000
@<TRIPOS>BOND
     1    1    2 1   
     2    1    8 1   
     3    2    3 ar  
     4    2   13 ar  
     5    3    4 1   
     6    3   10 ar  
     7    4    5 2   
     8    4    6 1   
     9    6    7 1   
    10    6    8 1   
    11    6   26 1   
    12    7   23 1   
    13    7   27 1   
    14    7   28 1   
    15    8    9 2   
    16   10   11 ar  
    17   10   29 1   
    18   11   12 ar  
    19   11   30 1   
    20   12   13 ar  
    21   12   31 1   
    22   13   32 1   
    23   14   15 ar  
    24   14   19 ar  
    25   14   37 1   
    26   15   16 ar  
    27   15   24 1   
    28   16   17 ar  
    29   16   20 1   
    30   17   18 ar  
    31   17   33 1   
    32   18   19 ar  
    33   18   34 1   
    34   19   35 1   
    35   20   21 1   
    36   21   22 2   
    37   21   23 1   
    38   23   24 1   
    39   23   36 1   
    40   24   25 2   
@<TRIPOS>SUBSTRUCTURE
     1 DTC         1 TEMP              0 ****  ****    0 ROOT
