@<TRIPOS>MOLECULE
DTD
   16    16     1     0     0
SMALL
bcc


@<TRIPOS>ATOM
      1 S1         -0.0370   -0.0740   -0.0600 ss        1 DTD     -0.153100
      2 C1          1.7180    0.0400   -0.0700 c3        1 DTD     -0.045800
      3 C2          2.3000    0.0810    1.3350 c3        1 DTD      0.125100
      4 O2          3.6790    0.3790    1.1770 oh        1 DTD     -0.600800
      5 C3          2.1390   -1.2690    2.0720 c3        1 DTD      0.125100
      6 O3          2.9110   -1.1260    3.2590 oh        1 DTD     -0.600800
      7 C4          0.6930   -1.5760    2.4290 c3        1 DTD     -0.045800
      8 S4         -0.2900   -1.9080    1.0080 ss        1 DTD     -0.153100
      9 H11         1.9540    1.0030   -0.5940 h1        1 DTD      0.095950
     10 H12         2.1890   -0.7870   -0.6540 h1        1 DTD      0.095950
     11 H21         1.8090    0.8920    1.9440 h1        1 DTD      0.063700
     12 HO2         4.0770    0.3480    2.0580 ho        1 DTD      0.419500
     13 H31         2.5690   -2.0940    1.4370 h1        1 DTD      0.063700
     14 HO3         2.9520   -1.9940    3.6750 ho        1 DTD      0.419500
     15 H41         0.6420   -2.5110    3.0450 h1        1 DTD      0.095950
     16 H42         0.2700   -0.7420    3.0400 h1        1 DTD      0.095950
@<TRIPOS>BOND
     1    1    2 1   
     2    1    8 1   
     3    2    3 1   
     4    2    9 1   
     5    2   10 1   
     6    3    4 1   
     7    3    5 1   
     8    3   11 1   
     9    4   12 1   
    10    5    6 1   
    11    5    7 1   
    12    5   13 1   
    13    6   14 1   
    14    7    8 1   
    15    7   15 1   
    16    7   16 1   
@<TRIPOS>SUBSTRUCTURE
     1 DTD         1 TEMP              0 ****  ****    0 ROOT
