@<TRIPOS>MOLECULE
DTD
   16    16     1     0     0
SMALL
bcc


@<TRIPOS>ATOM
      1 S1         -1.4820    0.6230   -1.6960 ss        1 DTD     -0.157100
      2 C1          0.1430    0.6230   -1.6960 c3        1 DTD     -0.026300
      3 C2          0.7560    0.6230   -0.2100 c3        1 DTD      0.108100
      4 O2          2.0170    0.4760   -0.2840 oh        1 DTD     -0.597800
      5 C3          0.1120   -0.6170    0.7810 c3        1 DTD      0.108100
      6 O3          0.5400   -0.4580    1.9680 oh        1 DTD     -0.597800
      7 C4         -1.4950   -0.6320    0.8060 c3        1 DTD     -0.026300
      8 S4         -2.1370   -0.6490   -0.6870 ss        1 DTD     -0.157100
      9 H11         0.4590    1.4170   -2.1680 h1        1 DTD      0.098700
     10 H12         0.4590   -0.1710   -2.1680 h1        1 DTD      0.098700
     11 H21         0.5650    1.4850    0.2060 h1        1 DTD      0.064700
     12 HO2         2.4140    1.2590   -0.1520 ho        1 DTD      0.412000
     13 H31         0.4280   -1.4780    0.4470 h1        1 DTD      0.064700
     14 HO3         0.8270   -1.2360    2.2860 ho        1 DTD      0.412000
     15 H41        -1.8110    0.1620    1.2770 h1        1 DTD      0.098700
     16 H42        -1.7960   -1.4270    1.2870 h1        1 DTD      0.098700
@<TRIPOS>BOND
     1    1    2 1   
     2    1    8 1   
     3    2    3 1   
     4    2    9 1   
     5    2   10 1   
     6    3    4 1   
     7    3    5 1   
     8    3   11 1   
     9    4   12 1   
    10    5    6 1   
    11    5    7 1   
    12    5   13 1   
    13    6   14 1   
    14    7    8 1   
    15    7   15 1   
    16    7   16 1   
@<TRIPOS>SUBSTRUCTURE
     1 DTD         1 TEMP              0 ****  ****    0 ROOT
