@<TRIPOS>MOLECULE
DTD
   16    16     1     0     0
SMALL
bcc


@<TRIPOS>ATOM
      1 S1          1.0540    0.1860   -1.7090 ss        1 DTD     -0.157100
      2 C1          1.5080   -0.4870   -0.1450 c3        1 DTD     -0.026300
      3 C2          0.7490    0.1890    0.9850 c3        1 DTD      0.108100
      4 O2          1.3290   -0.2650    2.2020 oh        1 DTD     -0.597800
      5 C3         -0.7490   -0.1900    0.9850 c3        1 DTD      0.108100
      6 O3         -1.3290    0.2650    2.2010 oh        1 DTD     -0.597800
      7 C4         -1.5080    0.4860   -0.1460 c3        1 DTD     -0.026300
      8 S4         -1.0540   -0.1880   -1.7090 ss        1 DTD     -0.157100
      9 H11         2.6050   -0.2850   -0.0370 h1        1 DTD      0.098700
     10 H12         1.3590   -1.5930   -0.1020 h1        1 DTD      0.098700
     11 H21         0.8510    1.3080    0.9060 h1        1 DTD      0.064700
     12 HO2         1.0770    0.3740    2.8800 ho        1 DTD      0.412000
     13 H31        -0.8510   -1.3090    0.9060 h1        1 DTD      0.064700
     14 HO3        -1.0770   -0.3740    2.8800 ho        1 DTD      0.412000
     15 H41        -1.3590    1.5910   -0.1030 h1        1 DTD      0.098700
     16 H42        -2.6050    0.2840   -0.0380 h1        1 DTD      0.098700
@<TRIPOS>BOND
     1    1    2 1   
     2    1    8 1   
     3    2    3 1   
     4    2    9 1   
     5    2   10 1   
     6    3    4 1   
     7    3    5 1   
     8    3   11 1   
     9    4   12 1   
    10    5    6 1   
    11    5    7 1   
    12    5   13 1   
    13    6   14 1   
    14    7    8 1   
    15    7   15 1   
    16    7   16 1   
@<TRIPOS>SUBSTRUCTURE
     1 DTD         1 TEMP              0 ****  ****    0 ROOT
