@<TRIPOS>MOLECULE
DTE
   27    28     1     0     0
SMALL
bcc


@<TRIPOS>ATOM
      1 N           0.7070   -0.5130    1.1390 nz        1 DTE     -0.831600
      2 CA          1.5880   -0.1340   -0.0040 c3        1 DTE     -0.066500
      3 C           3.0250    0.3000    0.5700 c         1 DTE      0.929600
      4 OXT         3.8950    0.5310   -0.2850 o         1 DTE     -0.761800
      5 CB          1.7240   -1.2050   -1.0810 c3        1 DTE     -0.017200
      6 CG          1.4670   -2.5870   -0.6540 cc        1 DTE     -0.178400
      7 CD2         2.1000   -3.3160    0.4310 ca        1 DTE     -0.108800
      8 CD1         0.6040   -3.4820   -1.2940 cd        1 DTE     -0.098100
      9 NE1         0.6280   -4.7210   -0.6540 na        1 DTE     -0.178400
     10 CE2         1.5560   -4.6540    0.3880 ca        1 DTE     -0.049200
     11 CZ2         1.9700   -5.6250    1.3160 ca        1 DTE     -0.006600
     12 CH2         2.9210   -5.2700    2.2640 ca        1 DTE     -0.098000
     13 CZ3         3.4530   -3.9680    2.2990 ca        1 DTE     -0.144000
     14 CE3         3.0550   -2.9910    1.3980 ca        1 DTE     -0.088000
     15 O           3.0890    0.3760    1.8270 o         1 DTE     -0.761800
     16 Cl          1.3170   -7.1920    1.2580 cl        1 DTE     -0.096400
     17 HN1         1.1300   -0.0710    1.9860 hn        1 DTE      0.447133
     18 HN2         0.7170   -1.5280    1.2710 hn        1 DTE      0.447133
     19 HA          1.1590    0.8000   -0.4650 hx        1 DTE      0.085700
     20 HBC1        2.7810   -1.1230   -1.4760 hc        1 DTE      0.083200
     21 HBC2        1.0330   -0.9530   -1.9320 hc        1 DTE      0.083200
     22 HD1        -0.0330   -3.3190   -2.1670 h4        1 DTE      0.171000
     23 HE3         3.4890   -1.9740    1.4350 ha        1 DTE      0.185000
     24 HE1         0.2060   -5.5510   -0.9800 hn        1 DTE      0.309700
     25 HH2         3.2690   -6.0140    2.9970 ha        1 DTE      0.149000
     26 HZ3         4.2110   -3.7270    3.0610 ha        1 DTE      0.148000
     27 HN3        -0.2450   -0.1910    1.0050 hn        1 DTE      0.447133
@<TRIPOS>BOND
     1    1    2 1   
     2    1   17 1   
     3    1   18 1   
     4    1   27 1   
     5    2    3 1   
     6    2    5 1   
     7    2   19 1   
     8    3    4 1   
     9    3   15 1   
    10    5    6 1   
    11    5   20 1   
    12    5   21 1   
    13    6    7 1   
    14    6    8 2   
    15    7   10 ar  
    16    7   14 ar  
    17    8    9 1   
    18    8   22 1   
    19    9   10 1   
    20    9   24 1   
    21   10   11 ar  
    22   11   12 ar  
    23   11   16 1   
    24   12   13 ar  
    25   12   25 1   
    26   13   14 ar  
    27   13   26 1   
    28   14   23 1   
@<TRIPOS>SUBSTRUCTURE
     1 DTE         1 TEMP              0 ****  ****    0 ROOT
