@<TRIPOS>MOLECULE
DTE
   27    28     1     0     0
SMALL
bcc


@<TRIPOS>ATOM
      1 N           0.4910   -0.4590    0.9780 n4        1 DTE     -0.830600
      2 CA          1.5560   -0.1240   -0.0130 c3        1 DTE     -0.064500
      3 C           2.8970    0.2370    0.7930 c         1 DTE      0.928600
      4 OXT         3.9520    0.2190    0.1360 o         1 DTE     -0.762800
      5 CB          1.7870   -1.2060   -1.0620 c3        1 DTE     -0.020200
      6 CG          1.4920   -2.5760   -0.6210 cc        1 DTE     -0.177400
      7 CD2         2.1890   -3.3280    0.4060 ca        1 DTE     -0.100800
      8 CD1         0.5250   -3.4280   -1.1630 cd        1 DTE     -0.110100
      9 NE1         0.5390   -4.6580   -0.5040 na        1 DTE     -0.180400
     10 CE2         1.5710   -4.6330    0.4390 ca        1 DTE     -0.052200
     11 CZ2         2.0240   -5.6140    1.3380 ca        1 DTE     -0.008600
     12 CH2         3.0850   -5.3010    2.1770 ca        1 DTE     -0.096000
     13 CZ3         3.6920   -4.0330    2.1320 ca        1 DTE     -0.146000
     14 CE3         3.2600   -3.0460    1.2590 ca        1 DTE     -0.071000
     15 O           2.7140    0.5150    2.0080 o         1 DTE     -0.762800
     16 CL          1.2830   -7.1430    1.3730 cl        1 DTE     -0.099400
     17 HN1         0.7610    0.0240    1.8630 hn        1 DTE      0.447467
     18 HN2         0.4830   -1.4690    1.1470 hn        1 DTE      0.447467
     19 HA          1.2530    0.8310   -0.5260 hx        1 DTE      0.084700
     20 HBC1        1.1760   -0.9710   -1.9750 hc        1 DTE      0.084200
     21 HBC2        2.8780   -1.1310   -1.3530 hc        1 DTE      0.084200
     22 HD1        -0.1780   -3.2430   -1.9770 h4        1 DTE      0.168000
     23 HE3         3.7490   -2.0550    1.2240 ha        1 DTE      0.186000
     24 HE1         0.0610   -5.4720   -0.7900 hn        1 DTE      0.308700
     25 HH2         3.4630   -6.0540    2.8860 ha        1 DTE      0.148000
     26 HZ3         4.5360   -3.8270    2.8090 ha        1 DTE      0.148000
     27 HN3        -0.4250   -0.1540    0.6670 hn        1 DTE      0.447467
@<TRIPOS>BOND
     1    1    2 1   
     2    1   17 1   
     3    1   18 1   
     4    1   27 1   
     5    2    3 1   
     6    2    5 1   
     7    2   19 1   
     8    3    4 1   
     9    3   15 1   
    10    5    6 1   
    11    5   20 1   
    12    5   21 1   
    13    6    7 1   
    14    6    8 2   
    15    7   10 ar  
    16    7   14 ar  
    17    8    9 1   
    18    8   22 1   
    19    9   10 1   
    20    9   24 1   
    21   10   11 ar  
    22   11   12 ar  
    23   11   16 1   
    24   12   13 ar  
    25   12   25 1   
    26   13   14 ar  
    27   13   26 1   
    28   14   23 1   
@<TRIPOS>SUBSTRUCTURE
     1 DTE         1 TEMP              0 ****  ****    0 ROOT
