@<TRIPOS>MOLECULE
DTE
   27    28     1     0     0
SMALL
bcc


@<TRIPOS>ATOM
      1 N           0.6330   -0.5740    1.1850 n4        1 DTE     -0.831600
      2 CA          1.5050   -0.1330    0.0580 c3        1 DTE     -0.066500
      3 C           2.9220    0.3370    0.6510 c         1 DTE      0.929600
      4 OXT         3.7870    0.6230   -0.1920 o         1 DTE     -0.761800
      5 CB          1.6840   -1.1700   -1.0460 c3        1 DTE     -0.017200
      6 CG          1.4750   -2.5710   -0.6570 cc        1 DTE     -0.178400
      7 CD2         2.1290   -3.3050    0.4110 ca        1 DTE     -0.108800
      8 CD1         0.6480   -3.4790   -1.3260 cd        1 DTE     -0.098100
      9 NE1         0.7150   -4.7330   -0.7200 na        1 DTE     -0.178400
     10 CE2         1.6330   -4.6600    0.3290 ca        1 DTE     -0.049200
     11 CZ2         2.0780   -5.6410    1.2340 ca        1 DTE     -0.006600
     12 CH2         3.0100   -5.2770    2.1970 ca        1 DTE     -0.098000
     13 CZ3         3.4940   -3.9580    2.2690 ca        1 DTE     -0.144000
     14 CE3         3.0670   -2.9730    1.3930 ca        1 DTE     -0.088000
     15 O           2.9780    0.3810    1.9100 o         1 DTE     -0.761800
     16 CL          1.4820   -7.2270    1.1300 cl        1 DTE     -0.096400
     17 HN1        -0.3290   -0.2820    1.0550 hn        1 DTE      0.447133
     18 HN2         1.0360   -0.1410    2.0460 hn        1 DTE      0.447133
     19 HA          1.0440    0.7960   -0.3810 hx        1 DTE      0.085700
     20 HBC1        0.9890   -0.9190   -1.8950 hc        1 DTE      0.083200
     21 HBC2        2.7400   -1.0400   -1.4320 hc        1 DTE      0.083200
     22 HD1         0.0110   -3.3160   -2.1990 h4        1 DTE      0.171000
     23 HE3         3.4630   -1.9420    1.4590 ha        1 DTE      0.185000
     24 HE1         0.3240   -5.5680   -1.0700 hn        1 DTE      0.309700
     25 HH2         3.3810   -6.0280    2.9120 ha        1 DTE      0.149000
     26 HZ3         4.2390   -3.7110    3.0420 ha        1 DTE      0.148000
     27 HN3         0.6770   -1.5910    1.2890 hn        1 DTE      0.447133
@<TRIPOS>BOND
     1    1    2 1   
     2    1   17 1   
     3    1   18 1   
     4    1   27 1   
     5    2    3 1   
     6    2    5 1   
     7    2   19 1   
     8    3    4 1   
     9    3   15 1   
    10    5    6 1   
    11    5   20 1   
    12    5   21 1   
    13    6    7 1   
    14    6    8 2   
    15    7   10 ar  
    16    7   14 ar  
    17    8    9 1   
    18    8   22 1   
    19    9   10 1   
    20    9   24 1   
    21   10   11 ar  
    22   11   12 ar  
    23   11   16 1   
    24   12   13 ar  
    25   12   25 1   
    26   13   14 ar  
    27   13   26 1   
    28   14   23 1   
@<TRIPOS>SUBSTRUCTURE
     1 DTE         1 TEMP              0 ****  ****    0 ROOT
