@<TRIPOS>MOLECULE
DTE
   26    22     1     0     0
SMALL
bcc


@<TRIPOS>ATOM
      1 N           0.9670    1.8490    2.6280 n3        1 DTE     -0.890800
      2 CA          1.3200    1.7560    1.2610 c3        1 DTE      0.024500
      3 C           2.6880    2.3620    1.0460 c         1 DTE      0.884600
      4 OXT         2.8300    3.3030    0.2430 o         1 DTE     -0.844300
      5 CB          1.3380    0.2930    0.8410 c3        1 DTE      0.006800
      6 CG          0.3460    0.0820   -0.3000 ce        1 DTE     -0.175000
      7 CD2        -0.6150   -0.9050   -0.4000 cg        1 DTE     -0.094300
      8 CD1         0.4150    0.7300   -1.5040 c1        1 DTE      0.231500
      9 NE1        -0.4970    0.1500   -2.3530 nf        1 DTE     -0.486400
     10 CE2        -1.1350   -0.8630   -1.6690 ch        1 DTE      0.039000
     11 CZ2        -2.1750   -1.7430   -2.0360 c1        1 DTE      0.009900
     12 CH2        -2.6770   -2.6600   -1.1040 c1        1 DTE     -0.070500
     13 CZ3        -2.1510   -2.7020    0.1790 c1        1 DTE     -0.069500
     14 CE3        -1.1220   -1.8320    0.5410 c1        1 DTE     -0.069500
     15 O           3.6840    1.9340    1.7050 o         1 DTE     -0.844300
     16 CL         -2.9130   -1.6330   -3.6080 cl        1 DTE     -0.148900
     17 HN1         1.6450    2.1760    3.0880 hn        1 DTE      0.331800
     18 HN2         0.2460    2.3990    2.7190 hn        1 DTE      0.331800
     19 HA          0.6350    2.2600    0.6990 h1        1 DTE      0.047700
     20 HBC1        1.0930   -0.2500    1.5780 hc        1 DTE      0.043700
     21 HBC2        2.2670    0.0410    0.5300 hc        1 DTE      0.043700
     22 HD1         1.0220    1.4200   -1.7280 DU        1 DTE      0.246500
     23 HE3        -0.6800   -1.9280    1.4350 ha        1 DTE      0.068500
     24 HE1        -0.6250    0.3670   -3.2260 DU        1 DTE      0.246500
     25 HH2        -3.4220   -3.2900   -1.3660 ha        1 DTE      0.068500
     26 HZ3        -2.4840   -3.3130    0.8000 ha        1 DTE      0.068500
@<TRIPOS>BOND
     1    1    2 1   
     2    1   17 1   
     3    1   18 1   
     4    2    3 1   
     5    2    5 1   
     6    2   19 1   
     7    3    4 1   
     8    3   15 1   
     9    5    6 1   
    10    5   20 1   
    11    5   21 1   
    12    6    7 1   
    13    6    8 2   
    14    7   10 3   
    15    8    9 2   
    16    9   10 1   
    17   11   12 3   
    18   11   16 1   
    19   12   25 1   
    20   13   14 3   
    21   13   26 1   
    22   14   23 1   
@<TRIPOS>SUBSTRUCTURE
     1 DTE         1 TEMP              0 ****  ****    0 ROOT
