@<TRIPOS>MOLECULE
DTE
   26    27     1     0     0
SMALL
bcc


@<TRIPOS>ATOM
      1 N           8.2760   -9.1070   29.4940 n3        1 DTE     -0.897800
      2 CA          9.5020   -8.8050   28.7700 c3        1 DTE      0.031500
      3 C           9.6280   -7.3230   28.2890 c         1 DTE      0.886600
      4 OXT        10.7630   -6.9160   27.9050 o         1 DTE     -0.844800
      5 CB         10.7740   -9.2420   29.5080 c3        1 DTE     -0.011200
      6 CG         10.8330   -8.8780   30.9310 cc        1 DTE     -0.067400
      7 CD2        11.2580   -7.5970   31.4750 ca        1 DTE     -0.079800
      8 CD1        10.5600   -9.7030   32.0170 cd        1 DTE     -0.154100
      9 NE1        10.8660   -9.0510   33.2310 na        1 DTE     -0.189400
     10 CE2        11.2290   -7.7350   32.9140 ca        1 DTE     -0.054200
     11 CZ2        11.5880   -6.6540   33.7300 ca        1 DTE     -0.019600
     12 CH2        11.9650   -5.4570   33.1280 ca        1 DTE     -0.111000
     13 CZ3        11.9830   -5.3310   31.7320 ca        1 DTE     -0.173000
     14 CE3        11.6300   -6.3860   30.8960 ca        1 DTE     -0.049000
     15 O           8.5820   -6.6140   28.2750 o         1 DTE     -0.844800
     16 CL         11.5480   -6.8080   35.4300 cl        1 DTE     -0.145400
     17 HN1         8.3620   -8.7670   30.4360 hn        1 DTE      0.336300
     18 HN2         7.5360   -8.5750   29.0620 hn        1 DTE      0.336300
     19 HA          9.4590   -9.4150   27.8170 h1        1 DTE      0.040700
     20 HBC1       10.8820  -10.3570   29.4180 hc        1 DTE      0.052200
     21 HBC2       11.6380   -8.7580   28.9680 hc        1 DTE      0.052200
     22 HD1        10.2040  -10.7330   32.0250 h4        1 DTE      0.159000
     23 HE3        11.6030   -6.2810   29.7890 ha        1 DTE      0.215000
     24 HE1        10.4360   -9.2840   34.0890 hn        1 DTE      0.276700
     25 HH2        12.2440   -4.5960   33.7540 ha        1 DTE      0.125000
     26 HZ3        12.2710   -4.3660   31.2900 ha        1 DTE      0.128000
@<TRIPOS>BOND
     1    1    2 1   
     2    1   17 1   
     3    1   18 1   
     4    2    3 1   
     5    2    5 1   
     6    2   19 1   
     7    3    4 1   
     8    3   15 1   
     9    5    6 1   
    10    5   20 1   
    11    5   21 1   
    12    6    7 1   
    13    6    8 2   
    14    7   10 ar  
    15    7   14 ar  
    16    8    9 1   
    17    8   22 1   
    18    9   10 1   
    19    9   24 1   
    20   10   11 ar  
    21   11   12 ar  
    22   11   16 1   
    23   12   13 ar  
    24   12   25 1   
    25   13   14 ar  
    26   13   26 1   
    27   14   23 1   
@<TRIPOS>SUBSTRUCTURE
     1 DTE         1 TEMP              0 ****  ****    0 ROOT
