@<TRIPOS>MOLECULE
DTF
   96   102     1     0     0
SMALL
bcc


@<TRIPOS>ATOM
      1 CBR         0.0000    0.0000    0.0000 ca        1 DTF     -0.002000
      2 CAU         1.4050    0.0000    0.0000 ca        1 DTF     -0.142000
      3 CAL         2.0780    0.0000    1.1820 ca        1 DTF     -0.084000
      4 CAK         1.3960    0.0050    2.3970 ca        1 DTF     -0.087000
      5 CAS         0.0350    0.0100    2.4360 ca        1 DTF     -0.077000
      6 CBQ        -0.6950    0.0100    1.2360 ca        1 DTF     -0.002000
      7 CAT        -2.1000    0.0150    1.2360 ca        1 DTF     -0.062000
      8 CAM        -2.7740    0.0160    0.0530 ca        1 DTF     -0.123000
      9 CAP        -2.0910    0.0110   -1.1610 ca        1 DTF     -0.253000
     10 CBP        -0.7300    0.0060   -1.2000 ca        1 DTF     -0.052000
     11 CBE        -0.0100    0.0010   -2.5250 c3        1 DTF     -0.082000
     12 CBT         0.3380   -1.4380   -2.9090 c3        1 DTF     -0.123000
     13 CAY         1.1760   -1.4350   -4.1890 DU        1 DTF      0.015000
     14 CAI         0.9670   -0.1360   -4.9240 c2        1 DTF     -0.225000
     15 CAJ         1.1590   -0.0790   -6.2180 c2        1 DTF     -0.191000
     16 CBB        -0.9500   -2.2300   -3.1460 c3        1 DTF     -0.231000
     17 NBG        -1.8870   -1.3920   -3.9250 ny        1 DTF      0.655000
     18 C          -3.1560   -1.8780   -4.0510 c2        1 DTF      0.012000
     19 O          -3.4620   -2.9380   -3.5480 o         1 DTF     -0.196000
     20 CA         -4.1700   -1.0780   -4.8270 c3        1 DTF     -0.172000
     21 CB         -5.1940   -2.0240   -5.4580 c3        1 DTF     -0.110000
     22 CG         -4.5220   -2.8540   -6.5200 c2        1 DTF     -0.198000
     23 OD1        -3.3220   -2.7870   -6.6750 o         1 DTF     -0.460000
     24 ND2        -5.2560   -3.6740   -7.2990 nz        1 DTF      0.931000
     25 N          -3.4730   -0.3210   -5.8900 ny        1 DTF      0.462000
     26 CBM        -4.1800   -0.1210   -7.0380 c2        1 DTF     -0.110000
     27 OAE        -5.3010   -0.5700   -7.1530 o         1 DTF     -0.346000
     28 CBV        -3.5590    0.6610   -8.1620 c3        1 DTF     -0.210000
     29 CAZ        -4.3030    0.3810   -9.4670 c3        1 DTF     -0.099000
     30 CAW        -5.7590    0.8300   -9.3310 c3        1 DTF     -0.121000
     31 CAV        -5.8040    2.3290   -9.0240 c3        1 DTF     -0.101000
     32 CAX        -5.0640    2.6030   -7.7130 c3        1 DTF     -0.121000
     33 CBA        -3.6070    2.1560   -7.8470 c3        1 DTF     -0.099000
     34 NBI        -2.1430    0.2480   -8.3180 ny        1 DTF      0.623000
     35 CBK        -1.2380    1.2590   -8.1230 c2        1 DTF      0.048000
     36 OAC        -1.6080    2.3780   -7.8340 o         1 DTF     -0.163000
     37 CBC         0.2280    0.9480   -8.2740 c3        1 DTF     -0.156000
     38 CBS         0.9490    1.2210   -6.9530 DU        1 DTF      0.103000
     39 CBO         0.1130    2.1470   -6.1070 ca        1 DTF     -0.111000
     40 CAR         0.4180    3.4940   -6.0500 ca        1 DTF     -0.099000
     41 CAO        -0.3490    4.3440   -5.2740 ca        1 DTF     -0.071000
     42 CAQ        -0.9610    1.6510   -5.3930 ca        1 DTF     -0.099000
     43 CAN        -1.7250    2.4990   -4.6140 ca        1 DTF     -0.071000
     44 CBN        -1.4210    3.8460   -4.5560 ca        1 DTF     -0.031000
     45 CBF        -2.2560    4.7720   -3.7100 c3        1 DTF     -0.443000
     46 PBW        -3.6270    5.4370   -4.7100 p5        1 DTF      1.024500
     47 OAG        -4.3970    4.3190   -5.2970 o         1 DTF     -0.251500
     48 OAH        -4.5940    6.3220   -3.7740 o         1 DTF     -0.251500
     49 OAF        -3.0330    6.3580   -5.8910 o         1 DTF     -0.251500
     50 HAU1        2.2480    0.0880   -0.6740 ha        1 DTF      0.128000
     51 HAL1        3.1530   -0.0190    1.3190 ha        1 DTF      0.119000
     52 HAK1        1.9480   -0.0070    3.3290 ha        1 DTF      0.122000
     53 HAS1       -0.3780    0.0040    3.4380 ha        1 DTF      0.127000
     54 HAT1       -2.6660    0.0150    2.1600 ha        1 DTF      0.126000
     55 HAM1       -3.8380   -0.0280    0.2510 ha        1 DTF      0.122000
     56 HAP1       -2.7750    0.7020   -1.6380 ha        1 DTF      0.135000
     57 HBE1       -0.6500    0.4330   -3.2850 hc        1 DTF      0.079500
     58 HBE2        0.8990    0.5830   -2.4440 hc        1 DTF      0.079500
     59 HBT1        0.9040   -1.8990   -2.1090 hc        1 DTF      0.131000
     60 HAY1        0.8730   -2.2610   -4.8210 ha        1 DTF      0.076000
     61 HAY2        2.2240   -1.5410   -3.9350 ha        1 DTF      0.076000
     62 HAI1        1.9360   -0.5330   -4.6480 DU        1 DTF      0.095000
     63 HAJ1        1.8670    0.7410   -6.2270 DU        1 DTF      0.077000
     64 HBB1       -0.7250   -3.1340   -3.6980 hx        1 DTF      0.136000
     65 HBB2       -1.3980   -2.4870   -2.1940 hx        1 DTF      0.136000
     66 HAA        -1.5070   -1.2780   -4.8440 hn        1 DTF      0.070500
     67 HA1        -4.6740   -0.3880   -4.1610 hx        1 DTF      0.136000
     68 HB1        -5.9940   -1.4450   -5.9040 hc        1 DTF      0.133500
     69 HB2        -5.6020   -2.6750   -4.6950 hc        1 DTF      0.133500
     70 HAE        -5.3320   -4.5710   -6.8610 hn        1 DTF      0.001333
     71 HAD        -6.1700   -3.2860   -7.4250 hn        1 DTF      0.001333
     72 HAB        -3.2270    0.5750   -5.5200 hn        1 DTF      0.017500
     73 HAZ1       -3.8310    0.9290  -10.2740 hc        1 DTF      0.079500
     74 HAZ2       -4.2720   -0.6810   -9.6780 hc        1 DTF      0.079500
     75 HAW1       -6.2300    0.2830   -8.5240 hc        1 DTF      0.088000
     76 HAW2       -6.2830    0.6380  -10.2590 hc        1 DTF      0.088000
     77 HAV1       -6.8350    2.6460   -8.9270 hc        1 DTF      0.070500
     78 HAV2       -5.3260    2.8760   -9.8280 hc        1 DTF      0.070500
     79 HAX1       -5.0960    3.6640   -7.4970 hc        1 DTF      0.088000
     80 HAX2       -5.5370    2.0510   -6.9100 hc        1 DTF      0.088000
     81 HBA1       -3.0850    2.3450   -6.9160 hc        1 DTF      0.079500
     82 HBA2       -3.1330    2.7080   -8.6500 hc        1 DTF      0.079500
     83 HAC        -1.9520   -0.4790   -7.6560 hn        1 DTF      0.050500
     84 HBC1        0.3500   -0.0940   -8.5430 hc        1 DTF      0.103500
     85 HBC2        0.6510    1.5730   -9.0520 hc        1 DTF      0.103500
     86 HBS1        1.9090    1.6820   -7.1530 ha        1 DTF      0.096000
     87 HAR1        1.2420    3.8880   -6.6310 ha        1 DTF      0.096000
     88 HAO1       -0.1140    5.4010   -5.2340 ha        1 DTF      0.118500
     89 HAQ1       -1.2220    0.6020   -5.4660 ha        1 DTF      0.096000
     90 HAN1       -2.5720    2.1110   -4.0620 ha        1 DTF      0.118500
     91 HBF1       -2.6570    4.2260   -2.8650 hc        1 DTF      0.107500
     92 HBF2       -1.6400    5.5890   -3.3540 hc        1 DTF      0.107500
     93 HBG2       -1.9420   -0.4970   -3.4810 hn        1 DTF      0.070500
     94 HD23       -4.8120   -3.7750   -8.1900 hn        1 DTF      0.001333
     95 H2         -2.6370   -0.8180   -6.1260 hn        1 DTF      0.017500
     96 HBI2       -2.0200   -0.1110   -9.2440 hn        1 DTF      0.050500
@<TRIPOS>BOND
     1    1    2 1   
     2    1    6 1   
     3    1   10 1   
     4    2    3 1   
     5    2   50 1   
     6    3    4 1   
     7    3   51 1   
     8    4    5 1   
     9    4   52 1   
    10    5    6 1   
    11    5   53 1   
    12    6    7 1   
    13    7    8 1   
    14    7   54 1   
    15    8    9 1   
    16    8   55 1   
    17    9   10 1   
    18    9   56 1   
    19   10   11 1   
    20   11   12 1   
    21   11   57 1   
    22   11   58 1   
    23   12   13 1   
    24   12   16 1   
    25   12   59 1   
    26   13   14 1   
    27   13   60 1   
    28   13   61 1   
    29   13   62 1   
    30   14   15 1   
    31   14   62 1   
    32   15   38 1   
    33   15   63 1   
    34   16   17 1   
    35   16   64 1   
    36   16   65 1   
    37   17   18 1   
    38   17   66 1   
    39   17   93 1   
    40   18   19 1   
    41   18   20 1   
    42   20   21 1   
    43   20   25 1   
    44   20   67 1   
    45   21   22 1   
    46   21   68 1   
    47   21   69 1   
    48   22   23 1   
    49   22   24 1   
    50   24   70 1   
    51   24   71 1   
    52   24   94 1   
    53   25   26 1   
    54   25   72 1   
    55   25   95 1   
    56   26   27 1   
    57   26   28 1   
    58   28   29 1   
    59   28   33 1   
    60   28   34 1   
    61   29   30 1   
    62   29   73 1   
    63   29   74 1   
    64   30   31 1   
    65   30   75 1   
    66   30   76 1   
    67   31   32 1   
    68   31   77 1   
    69   31   78 1   
    70   32   33 1   
    71   32   79 1   
    72   32   80 1   
    73   33   81 1   
    74   33   82 1   
    75   34   35 1   
    76   34   83 1   
    77   34   96 1   
    78   35   36 1   
    79   35   37 1   
    80   37   38 1   
    81   37   84 1   
    82   37   85 1   
    83   38   39 1   
    84   38   63 1   
    85   38   86 1   
    86   39   40 1   
    87   39   42 1   
    88   40   41 1   
    89   40   87 1   
    90   41   44 1   
    91   41   88 1   
    92   42   43 1   
    93   42   89 1   
    94   43   44 1   
    95   43   90 1   
    96   44   45 1   
    97   45   46 1   
    98   45   91 1   
    99   45   92 1   
   100   46   47 1   
   101   46   48 1   
   102   46   49 1   
@<TRIPOS>SUBSTRUCTURE
     1 DTF         1 TEMP              0 ****  ****    0 ROOT
