@<TRIPOS>MOLECULE
DTF
   92    95     1     0     0
SMALL
bcc


@<TRIPOS>ATOM
      1 CBR        -5.9440   -0.3550   -0.0670 ca        1 DTF     -0.031000
      2 CAU        -6.4490   -0.8620    1.1640 ca        1 DTF     -0.106000
      3 CAL        -7.7940   -1.0730    1.3450 ca        1 DTF     -0.149000
      4 CAK        -8.7090   -0.7890    0.3040 ca        1 DTF     -0.142000
      5 CAS        -8.2550   -0.2960   -0.8930 ca        1 DTF     -0.123000
      6 CBQ        -6.8680   -0.0670   -1.1060 ca        1 DTF     -0.038000
      7 CAT        -6.3950    0.4510   -2.3420 ca        1 DTF     -0.145000
      8 CAM        -5.0540    0.6730   -2.5310 ca        1 DTF     -0.107000
      9 CAP        -4.1300    0.3850   -1.5010 ca        1 DTF     -0.111000
     10 CBP        -4.5500   -0.1240   -0.2880 ca        1 DTF     -0.049000
     11 CBE        -3.5440   -0.3960    0.7780 c3        1 DTF     -0.136000
     12 CBT        -3.2450   -1.8800    0.9500 c3        1 DTF     -0.096000
     13 CAY        -2.4810   -2.1600    2.2430 c3        1 DTF     -0.128000
     14 CAI        -1.6080   -1.0460    2.6840 c2        1 DTF     -0.203000
     15 CAJ        -0.2730   -1.0840    2.7410 c2        1 DTF     -0.129000
     16 CBB        -2.5620   -2.4700   -0.2920 c3        1 DTF     -0.024000
     17 NBG        -1.1460   -2.2340   -0.3880 n         1 DTF     -0.339000
     18 C          -0.4760   -2.4540   -1.5660 c2        1 DTF      0.289000
     19 O          -1.0620   -2.5750   -2.6630 o         1 DTF     -0.393000
     20 CA          1.0660   -2.5950   -1.5270 c3        1 DTF      0.026000
     21 CB          1.3590   -4.0540   -1.1240 c3        1 DTF     -0.198000
     22 CG          1.2430   -4.2860    0.3700 c2        1 DTF      0.289000
     23 OD1         0.1380   -4.5550    0.9000 o         1 DTF     -0.428000
     24 ND2         2.3950   -4.2810    1.1200 n         1 DTF     -0.373000
     25 N           1.7290   -1.5970   -0.7240 n         1 DTF     -0.382000
     26 CBM         3.1080   -1.5740   -0.5830 c2        1 DTF      0.305000
     27 OAE         3.7900   -2.5410   -0.9850 o         1 DTF     -0.415000
     28 CBV         3.7410   -0.3350    0.1250 c3        1 DTF      0.087000
     29 CAZ         5.2230   -0.6490    0.4390 c3        1 DTF     -0.157000
     30 CAW         6.1010   -0.7590   -0.7890 c3        1 DTF     -0.156000
     31 CAV         5.9690    0.4420   -1.7000 c3        1 DTF     -0.153000
     32 CAX         4.5230    0.6690   -2.0830 c3        1 DTF     -0.156000
     33 CBA         3.6610    0.8600   -0.8580 c3        1 DTF     -0.157000
     34 NBI         3.0120   -0.0060    1.3430 n         1 DTF     -0.355000
     35 CBK         2.7990   -0.8540    2.3960 c2        1 DTF      0.314000
     36 OAC         3.3050   -2.0050    2.4520 o         1 DTF     -0.470000
     37 CBC         1.9640   -0.3490    3.5610 c3        1 DTF     -0.176000
     38 CBS         0.5360    0.0830    3.2100 c3        1 DTF      0.024000
     39 CBO         0.5280    1.2380    2.2790 ca        1 DTF     -0.370000
     40 CAR         1.0390    2.4820    2.7140 ca        1 DTF     -0.069000
     41 CAO         1.1760    3.5430    1.8610 ca        1 DTF     -0.274000
     42 CAQ         0.0830    1.1520    0.9450 ca        1 DTF     -0.069000
     43 CAN         0.2100    2.1990    0.0700 ca        1 DTF     -0.274000
     44 CBN         0.8100    3.4490    0.4680 ca        1 DTF      0.103000
     45 CBF         1.0360    4.4650   -0.4150 c2        1 DTF     -0.554000
     46 PBW         3.0530    4.9460   -1.8780 p3        1 DTF      2.451000
     47 OAG         3.7710    3.6540   -1.7830 o         1 DTF     -1.155667
     48 OAH         2.2000    5.1990   -3.0600 o         1 DTF     -1.155667
     49 OAF         3.5060    6.0890   -1.0570 o         1 DTF     -1.155667
     50 HAU1       -5.7410   -1.0820    1.9780 ha        1 DTF      0.139000
     51 HAL1       -8.1750   -1.4630    2.2990 ha        1 DTF      0.119000
     52 HAK1       -9.7810   -0.9670    0.4700 ha        1 DTF      0.115000
     53 HAS1       -8.9550   -0.0680   -1.7110 ha        1 DTF      0.119000
     54 HAT1       -7.1230    0.6710   -3.1360 ha        1 DTF      0.120000
     55 HAM1       -4.6770    1.0790   -3.4820 ha        1 DTF      0.137000
     56 HAP1       -3.0580    0.5780   -1.6790 ha        1 DTF      0.164000
     57 HBE1       -3.9250    0.0180    1.7510 hc        1 DTF      0.114500
     58 HBE2       -2.5830    0.1470    0.5480 hc        1 DTF      0.114500
     59 HBT1       -4.2320   -2.4240    1.0200 hc        1 DTF      0.077000
     60 HAY1       -1.8920   -3.1110    2.1300 hc        1 DTF      0.082000
     61 HAY2       -3.2380   -2.3440    3.0570 hc        1 DTF      0.082000
     62 HAI1       -2.1380   -0.1230    2.9810 ha        1 DTF      0.127000
     63 HAJ1        0.2960   -1.9830    2.4480 ha        1 DTF      0.118000
     64 HBB1       -2.7480   -3.5850   -0.2870 h1        1 DTF      0.087000
     65 HBB2       -3.0530   -2.0430   -1.2160 h1        1 DTF      0.087000
     66 HAA        -0.6320   -2.2840    0.4680 hn        1 DTF      0.246000
     67 HA1         1.4090   -2.4870   -2.6040 h1        1 DTF      0.118000
     68 HB1         2.3870   -4.3190   -1.4890 hc        1 DTF      0.121500
     69 HB2         0.6160   -4.7160   -1.6410 hc        1 DTF      0.121500
     70 HAE         3.1890   -3.8020    0.7470 hn        1 DTF      0.229000
     71 HAD         2.2910   -4.1870    2.1070 hn        1 DTF      0.229000
     72 HAB         1.2190   -0.7590   -0.5340 hn        1 DTF      0.259000
     73 HAZ1        5.6190    0.1760    1.0890 hc        1 DTF      0.114500
     74 HAZ2        5.2690   -1.6090    1.0180 hc        1 DTF      0.114500
     75 HAW1        7.1670   -0.8640   -0.4540 hc        1 DTF      0.087250
     76 HAW2        5.8350   -1.6900   -1.3580 hc        1 DTF      0.087250
     77 HAV1        6.3590    1.3590   -1.1840 hc        1 DTF      0.072500
     78 HAV2        6.5860    0.2830   -2.6220 hc        1 DTF      0.072500
     79 HAX1        4.4320    1.6160   -2.6890 hc        1 DTF      0.087250
     80 HAX2        4.1530   -0.1950   -2.6930 hc        1 DTF      0.087250
     81 HBA1        2.5980    1.0420   -1.1690 hc        1 DTF      0.114500
     82 HBA2        3.9960    1.8090   -0.3470 hc        1 DTF      0.114500
     83 HAC         2.5220    0.8730    1.3320 hn        1 DTF      0.289000
     84 HBC1        1.9310   -1.1720    4.3220 hc        1 DTF      0.092500
     85 HBC2        2.4940    0.5320    4.0140 hc        1 DTF      0.092500
     86 HBS1        0.0840    0.4260    4.1930 hc        1 DTF      0.066000
     87 HAR1        1.3410    2.5840    3.7690 ha        1 DTF      0.074000
     88 HAO1        1.5890    4.4980    2.2120 ha        1 DTF      0.105000
     89 HAQ1       -0.3800    0.2110    0.6050 ha        1 DTF      0.074000
     90 HAN1       -0.1340    2.1080   -0.9680 ha        1 DTF      0.105000
     91 HBF1        0.6650    4.4120   -1.4450 ha        1 DTF      0.121000
     92 HBF2        1.4210    5.4330   -0.0740 ha        1 DTF      0.121000
@<TRIPOS>BOND
     1    1    2 1   
     2    1    6 1   
     3    1   10 1   
     4    2    3 1   
     5    2   50 1   
     6    3    4 1   
     7    3   51 1   
     8    4    5 1   
     9    4   52 1   
    10    5    6 1   
    11    5   53 1   
    12    6    7 1   
    13    7    8 1   
    14    7   54 1   
    15    8    9 1   
    16    8   55 1   
    17    9   10 1   
    18    9   56 1   
    19   10   11 1   
    20   11   12 1   
    21   11   57 1   
    22   11   58 1   
    23   12   13 1   
    24   12   16 1   
    25   12   59 1   
    26   13   14 1   
    27   13   60 1   
    28   13   61 1   
    29   14   15 1   
    30   14   62 1   
    31   15   38 1   
    32   15   63 1   
    33   16   17 1   
    34   16   64 1   
    35   16   65 1   
    36   17   18 1   
    37   17   66 1   
    38   18   19 1   
    39   18   20 1   
    40   20   21 1   
    41   20   25 1   
    42   20   67 1   
    43   21   22 1   
    44   21   68 1   
    45   21   69 1   
    46   22   23 1   
    47   22   24 1   
    48   24   70 1   
    49   24   71 1   
    50   25   26 1   
    51   25   72 1   
    52   26   27 1   
    53   26   28 1   
    54   28   29 1   
    55   28   33 1   
    56   28   34 1   
    57   29   30 1   
    58   29   73 1   
    59   29   74 1   
    60   30   31 1   
    61   30   75 1   
    62   30   76 1   
    63   31   32 1   
    64   31   77 1   
    65   31   78 1   
    66   32   33 1   
    67   32   79 1   
    68   32   80 1   
    69   33   81 1   
    70   33   82 1   
    71   34   35 1   
    72   34   83 1   
    73   35   36 1   
    74   35   37 1   
    75   37   38 1   
    76   37   84 1   
    77   37   85 1   
    78   38   39 1   
    79   38   86 1   
    80   39   40 1   
    81   39   42 1   
    82   40   41 1   
    83   40   87 1   
    84   41   44 1   
    85   41   88 1   
    86   42   43 1   
    87   42   89 1   
    88   43   44 1   
    89   43   90 1   
    90   44   45 1   
    91   45   91 1   
    92   45   92 1   
    93   46   47 1   
    94   46   48 1   
    95   46   49 1   
@<TRIPOS>SUBSTRUCTURE
     1 DTF         1 TEMP              0 ****  ****    0 ROOT
