@<TRIPOS>MOLECULE
DTF
   92    89     1     0     0
SMALL
bcc


@<TRIPOS>ATOM
      1 CBR         2.6910    0.4340    4.2380 c1        1 DTF     -0.036000
      2 CAU         3.7490    0.7830    3.5730 c1        1 DTF     -0.136750
      3 CAL         5.0140    1.2120    4.3710 c1        1 DTF     -0.136750
      4 CAK         5.0750    1.2400    5.8090 c1        1 DTF     -0.136750
      5 CAS         3.9160    0.8600    6.5630 c1        1 DTF     -0.136750
      6 CBQ         2.6410    0.4260    5.8350 c1        1 DTF     -0.037000
      7 CAT         1.5630    0.0600    6.5090 c2        1 DTF     -0.160000
      8 CAM         0.4140   -0.3500    5.7340 c1        1 DTF     -0.085000
      9 CAP         0.3860   -0.3710    4.3860 c1        1 DTF     -0.106000
     10 CBP         1.5620    0.0310    3.5950 c2        1 DTF     -0.093000
     11 CBE         1.4020   -0.1100    2.0090 c3        1 DTF     -0.135000
     12 CBT         1.7410   -1.4120    1.5830 c3        1 DTF     -0.101000
     13 CAY         3.1810   -1.5730    0.4650 c3        1 DTF     -0.120000
     14 CAI         2.4250    0.1580   -0.1770 c2        1 DTF     -0.184000
     15 CAJ         2.0620   -0.8150   -1.5020 c1        1 DTF     -0.152000
     16 CBB         0.9900   -2.6890    2.2150 c3        1 DTF     -0.021000
     17 NBG        -0.4490   -2.0950    1.1540 n         1 DTF     -0.362000
     18 C          -0.9780   -2.8650    0.5990 c2        1 DTF      0.276000
     19 O          -1.1200   -4.3490    1.1020 o         1 DTF     -0.396000
     20 CA         -1.9210   -1.9610   -0.3190 c3        1 DTF      0.035000
     21 CB         -2.5540   -3.8550   -1.0130 c3        1 DTF     -0.186000
     22 CG         -3.7270   -4.2480   -0.5580 c2        1 DTF      0.305000
     23 OD1        -4.1900   -3.7300    0.7410 o         1 DTF     -0.404000
     24 ND2        -4.4670   -5.3770   -1.2620 n         1 DTF     -0.427000
     25 N          -1.9570   -1.9490   -1.2110 n         1 DTF     -0.380000
     26 CBM        -2.2910   -2.0730   -2.4280 c2        1 DTF      0.302000
     27 OAE        -3.3460   -2.4870   -2.7540 o         1 DTF     -0.398000
     28 CBV        -1.7970   -0.4080   -2.9060 c3        1 DTF      0.079000
     29 CAZ        -2.4290   -1.1110   -4.6950 c3        1 DTF     -0.179000
     30 CAW        -3.8930   -0.7810   -4.8680 c3        1 DTF     -0.153500
     31 CAV        -4.3020    0.5110   -4.4480 c3        1 DTF     -0.160000
     32 CAX        -3.7310    0.9020   -3.0040 c3        1 DTF     -0.153500
     33 CBA        -2.1370    0.6980   -2.7010 c3        1 DTF     -0.179000
     34 NBI        -0.1120   -0.3790   -3.1590 n         1 DTF     -0.339000
     35 CBK         0.3350    0.8470   -4.0340 c2        1 DTF      0.320000
     36 OAC        -0.2390    2.0230   -3.5860 o         1 DTF     -0.407000
     37 CBC         2.2440    0.8660   -3.7790 c3        1 DTF     -0.174000
     38 CBS         2.1670    0.1520   -2.8120 c2        1 DTF      0.015000
     39 CBO         1.5330    1.9120   -1.3930 c2        1 DTF     -0.352000
     40 CAR         1.0910    1.7520   -0.6730 c2        1 DTF     -0.086000
     41 CAO         0.4530    2.9130    0.1550 c1        1 DTF     -0.328000
     42 CAQ         1.7090    3.3680   -1.8830 c1        1 DTF     -0.054000
     43 CAN         1.2090    4.3540   -1.2450 c1        1 DTF     -0.245000
     44 CBN         0.5440    4.0870   -0.1630 c1        1 DTF      0.103000
     45 CBF        -0.2640    5.1350    0.7460 c3        1 DTF     -0.527000
     46 PBW        -0.7470    4.3920    2.4550 p5        1 DTF      1.492500
     47 OAG         0.2560    4.2180    3.1050 o         1 DTF     -0.835167
     48 OAH        -1.5750    5.3540    3.0890 o         1 DTF     -0.835167
     49 OAF        -1.4990    2.8850    2.2430 o         1 DTF     -0.835167
     50 HAU1        3.7750    0.7570    2.7770 ha        1 DTF      0.114250
     51 HAL1        5.8670    1.5260    3.8100 ha        1 DTF      0.114250
     52 HAK1        5.8640    1.3760    6.2470 ha        1 DTF      0.114250
     53 HAS1        3.9970    0.8720    7.5640 ha        1 DTF      0.114250
     54 HAT1        1.5720   -0.0610    7.2350 ha        1 DTF      0.122000
     55 HAM1       -0.3140   -0.5700    6.1710 ha        1 DTF      0.241000
     56 HAP1       -0.3560   -0.7120    3.9660 ha        1 DTF      0.181000
     57 HBE1        2.1470    0.5430    1.7010 hc        1 DTF      0.107500
     58 HBE2        0.6670    0.0930    1.7750 hc        1 DTF      0.107500
     59 HBT1        2.6260   -1.5050    2.6520 hc        1 DTF      0.074000
     60 HAY1        3.1000   -2.1790   -0.0970 hc        1 DTF      0.073000
     61 HAY2        3.9170   -1.5670    0.8840 hc        1 DTF      0.073000
     62 HAI1        2.0090    0.0610    0.9110 ha        1 DTF      0.129000
     63 HAJ1        1.5680   -1.0420   -2.2220 ha        1 DTF      0.111000
     64 HBB1        1.2720   -3.5390    1.7790 h1        1 DTF      0.091500
     65 HBB2        0.8620   -2.6820    2.8630 h1        1 DTF      0.091500
     66 HAA        -0.0830   -1.1870    0.3180 hn        1 DTF      0.252000
     67 HA1        -2.8530   -1.6060    0.1920 h1        1 DTF      0.126000
     68 HB1        -1.8240   -4.4890   -0.7460 hc        1 DTF      0.138000
     69 HB2        -2.6190   -3.8150   -1.9890 hc        1 DTF      0.138000
     70 HAE        -4.3440   -5.4800   -2.1370 hn        1 DTF      0.227500
     71 HAD        -5.3210   -5.8120   -0.8070 hn        1 DTF      0.227500
     72 HAB        -0.9240   -1.1520   -1.2360 hn        1 DTF      0.271000
     73 HAZ1       -1.9150   -0.7410   -5.4500 hc        1 DTF      0.117750
     74 HAZ2       -2.3490   -2.2810   -4.6700 hc        1 DTF      0.117750
     75 HAW1       -3.9450   -0.7000   -5.9070 hc        1 DTF      0.078750
     76 HAW2       -4.5480   -1.5640   -4.5780 hc        1 DTF      0.078750
     77 HAV1       -4.4060    1.0080   -4.9640 hc        1 DTF      0.070500
     78 HAV2       -5.4780    0.2840   -4.1500 hc        1 DTF      0.070500
     79 HAX1       -3.7670    2.0330   -3.0420 hc        1 DTF      0.078750
     80 HAX2       -4.1970    0.6240   -2.4090 hc        1 DTF      0.078750
     81 HBA1       -1.9020    0.8850   -1.6910 hc        1 DTF      0.117750
     82 HBA2       -1.6900    1.3110   -3.3390 hc        1 DTF      0.117750
     83 HAC         0.3850   -1.5470   -3.7910 hn        1 DTF      0.232000
     84 HBC1        2.7260    0.1080   -4.5380 hc        1 DTF      0.094000
     85 HBC2        2.5810    1.6940   -3.8720 hc        1 DTF      0.094000
     86 HBS1        3.4650    0.6900   -2.4510 ha        1 DTF      0.074000
     87 HAR1        0.9930    0.8050   -0.3960 ha        1 DTF      0.074000
     88 HAO1       -0.2420    2.6800    1.0450 ha        1 DTF      0.100000
     89 HAQ1        2.5190    3.5920   -2.6660 ha        1 DTF      0.077000
     90 HAN1        1.2610    5.2800   -1.6510 ha        1 DTF      0.107000
     91 HBF1        0.3810    5.9670    0.9310 hc        1 DTF      0.114000
     92 HBF2       -1.1040    5.4610    0.2820 hc        1 DTF      0.114000
@<TRIPOS>BOND
     1    1    6 1   
     2    1   10 1   
     3    2    3 1   
     4    2   50 1   
     5    3   51 1   
     6    4    5 1   
     7    4   52 1   
     8    5   53 1   
     9    6    7 1   
    10    7    8 1   
    11    7   54 1   
    12    8   55 1   
    13    9   10 1   
    14    9   56 1   
    15   10   11 1   
    16   11   12 1   
    17   11   57 1   
    18   11   58 1   
    19   12   13 1   
    20   12   16 1   
    21   12   59 1   
    22   13   14 1   
    23   13   60 1   
    24   13   61 1   
    25   14   15 1   
    26   14   62 1   
    27   15   63 1   
    28   16   17 1   
    29   16   64 1   
    30   16   65 1   
    31   17   18 1   
    32   17   66 1   
    33   18   19 1   
    34   18   20 1   
    35   20   21 1   
    36   20   25 1   
    37   20   67 1   
    38   21   22 1   
    39   21   68 1   
    40   21   69 1   
    41   22   23 1   
    42   22   24 1   
    43   24   70 1   
    44   24   71 1   
    45   25   26 1   
    46   25   72 1   
    47   26   27 1   
    48   26   28 1   
    49   28   29 1   
    50   28   33 1   
    51   28   34 1   
    52   29   30 1   
    53   29   73 1   
    54   29   74 1   
    55   30   31 1   
    56   30   75 1   
    57   30   76 1   
    58   31   32 1   
    59   31   77 1   
    60   31   78 1   
    61   32   33 1   
    62   32   79 1   
    63   32   80 1   
    64   33   81 1   
    65   33   82 1   
    66   34   35 1   
    67   34   83 1   
    68   35   36 1   
    69   35   37 1   
    70   37   38 1   
    71   37   84 1   
    72   37   85 1   
    73   38   39 1   
    74   38   86 1   
    75   39   40 1   
    76   39   42 1   
    77   40   41 1   
    78   40   87 1   
    79   41   88 1   
    80   42   89 1   
    81   43   44 1   
    82   43   90 1   
    83   44   45 1   
    84   45   46 1   
    85   45   91 1   
    86   45   92 1   
    87   46   47 1   
    88   46   48 1   
    89   46   49 1   
@<TRIPOS>SUBSTRUCTURE
     1 DTF         1 TEMP              0 ****  ****    0 ROOT
