@<TRIPOS>MOLECULE
DTG
   19    18     1     0     0
SMALL
bcc


@<TRIPOS>ATOM
      1 CA          0.0170   -0.0030   -0.0320 c3        1 DTG     -0.184400
      2 CB          1.5440    0.0260   -0.0060 c3        1 DTG     -0.036000
      3 CG1         2.0230    0.0040    1.4400 c3        1 DTG     -0.082767
      4 CG2         2.0460    1.2950   -0.6780 c3        1 DTG     -0.082767
      5 CG3         2.0950   -1.1930   -0.7310 c3        1 DTG     -0.082767
      6 C          -0.5620    0.0190   -1.4580 c         1 DTG      0.906600
      7 O          -0.7710   -1.0870   -2.0380 o         1 DTG     -0.853300
      8 OXT        -0.8220    1.1410   -1.9830 o         1 DTG     -0.853300
      9 HA1        -0.3730    0.8850    0.5260 hc        1 DTG      0.021700
     10 HA2        -0.3370   -0.9310    0.4840 hc        1 DTG      0.021700
     11 H11         1.6300    0.8910    1.9930 hc        1 DTG      0.025144
     12 H12         3.1380    0.0250    1.4810 hc        1 DTG      0.025144
     13 H13         1.6650   -0.9190    1.9540 hc        1 DTG      0.025144
     14 H21         3.1570    1.2720   -0.7840 hc        1 DTG      0.025144
     15 H22         1.7630    2.1890   -0.0730 hc        1 DTG      0.025144
     16 H23         1.5740    1.3940   -1.6880 hc        1 DTG      0.025144
     17 H31         1.8490   -2.1220   -0.1640 hc        1 DTG      0.025144
     18 H32         3.2040   -1.1210   -0.8370 hc        1 DTG      0.025144
     19 H33         1.6240   -1.2680   -1.7440 hc        1 DTG      0.025144
@<TRIPOS>BOND
     1    1    2 1   
     2    1    6 1   
     3    1    9 1   
     4    1   10 1   
     5    2    3 1   
     6    2    4 1   
     7    2    5 1   
     8    3   11 1   
     9    3   12 1   
    10    3   13 1   
    11    4   14 1   
    12    4   15 1   
    13    4   16 1   
    14    5   17 1   
    15    5   18 1   
    16    5   19 1   
    17    6    7 1   
    18    6    8 1   
@<TRIPOS>SUBSTRUCTURE
     1 DTG         1 TEMP              0 ****  ****    0 ROOT
