@<TRIPOS>MOLECULE
DTG
   19    18     1     0     0
SMALL
bcc


@<TRIPOS>ATOM
      1 CA          1.1450    0.6540   -2.4090 c3        1 DTG     -0.184400
      2 CB         -0.2830    0.1710   -2.1610 c3        1 DTG     -0.036000
      3 CG1        -0.6710    0.4680   -0.7180 c3        1 DTG     -0.082767
      4 CG2        -0.3680   -1.3280   -2.4020 c3        1 DTG     -0.082767
      5 CG3        -1.2410    0.8970   -3.0940 c3        1 DTG     -0.082767
      6 C           1.6270    0.3960   -3.8480 c         1 DTG      0.906600
      7 O           1.4320    1.2960   -4.7160 o         1 DTG     -0.853300
      8 OXT         2.2140   -0.6970   -4.0970 o         1 DTG     -0.853300
      9 HA1         1.8340    0.1290   -1.7010 hc        1 DTG      0.021700
     10 HA2         1.1960    1.7540   -2.2060 hc        1 DTG      0.021700
     11 H11        -0.6160    1.5650   -0.5180 hc        1 DTG      0.025256
     12 H12         0.0200   -0.0560   -0.0150 hc        1 DTG      0.025256
     13 H13        -1.7130    0.1220   -0.5160 hc        1 DTG      0.025256
     14 H21        -1.4280   -1.6760   -2.3530 hc        1 DTG      0.025256
     15 H22         0.0610   -1.5700   -3.4060 hc        1 DTG      0.025256
     16 H23         0.2230   -1.8770   -1.6300 hc        1 DTG      0.025256
     17 H31        -1.2900    1.9800   -2.8290 hc        1 DTG      0.025256
     18 H32        -0.8730    0.8110   -4.1470 hc        1 DTG      0.025256
     19 H33        -2.2680    0.4650   -3.0190 hc        1 DTG      0.025256
@<TRIPOS>BOND
     1    1    2 1   
     2    1    6 1   
     3    1    9 1   
     4    1   10 1   
     5    2    3 1   
     6    2    4 1   
     7    2    5 1   
     8    3   11 1   
     9    3   12 1   
    10    3   13 1   
    11    4   14 1   
    12    4   15 1   
    13    4   16 1   
    14    5   17 1   
    15    5   18 1   
    16    5   19 1   
    17    6    7 1   
    18    6    8 1   
@<TRIPOS>SUBSTRUCTURE
     1 DTG         1 TEMP              0 ****  ****    0 ROOT
