@<TRIPOS>MOLECULE
DTG
   19    18     1     0     0
SMALL
bcc


@<TRIPOS>ATOM
      1 CA          0.0190    0.0040   -0.0190 c3        1 DTG     -0.184400
      2 CB          1.5460    0.0250   -0.0090 c3        1 DTG     -0.036000
      3 CG1         2.0400   -0.0020    1.4330 c3        1 DTG     -0.082767
      4 CG2         2.0490    1.2920   -0.6840 c3        1 DTG     -0.082767
      5 CG3         2.0830   -1.1960   -0.7410 c3        1 DTG     -0.082767
      6 C          -0.5750    0.0290   -1.4390 c         1 DTG      0.906600
      7 O          -0.7990   -1.0760   -2.0150 o         1 DTG     -0.853300
      8 OXT        -0.8300    1.1520   -1.9640 o         1 DTG     -0.853300
      9 HA1        -0.3600    0.8950    0.5430 hc        1 DTG      0.021700
     10 HA2        -0.3350   -0.9220    0.5010 hc        1 DTG      0.021700
     11 H11         1.6570    0.8860    1.9900 hc        1 DTG      0.025256
     12 H12         3.1560    0.0130    1.4620 hc        1 DTG      0.025256
     13 H13         1.6820   -0.9250    1.9490 hc        1 DTG      0.025256
     14 H21         3.1580    1.2620   -0.8020 hc        1 DTG      0.025256
     15 H22         1.7780    2.1870   -0.0740 hc        1 DTG      0.025256
     16 H23         1.5660    1.3950   -1.6880 hc        1 DTG      0.025256
     17 H31         1.8370   -2.1250   -0.1730 hc        1 DTG      0.025256
     18 H32         3.1910   -1.1310   -0.8570 hc        1 DTG      0.025256
     19 H33         1.6020   -1.2670   -1.7490 hc        1 DTG      0.025256
@<TRIPOS>BOND
     1    1    2 1   
     2    1    6 1   
     3    1    9 1   
     4    1   10 1   
     5    2    3 1   
     6    2    4 1   
     7    2    5 1   
     8    3   11 1   
     9    3   12 1   
    10    3   13 1   
    11    4   14 1   
    12    4   15 1   
    13    4   16 1   
    14    5   17 1   
    15    5   18 1   
    16    5   19 1   
    17    6    7 1   
    18    6    8 1   
@<TRIPOS>SUBSTRUCTURE
     1 DTG         1 TEMP              0 ****  ****    0 ROOT
