@<TRIPOS>MOLECULE
DTG
   19    18     1     0     0
SMALL
bcc


@<TRIPOS>ATOM
      1 CA         -1.2690   -0.2070   -0.1200 c3        1 DTG     -0.184400
      2 CB          0.2440   -0.2070   -0.1200 c3        1 DTG     -0.036000
      3 CG1         0.7480   -0.2070    1.3070 c3        1 DTG     -0.082767
      4 CG2         0.7480    1.0280   -0.8330 c3        1 DTG     -0.082767
      5 CG3         0.7480   -1.4420   -0.8330 c3        1 DTG     -0.082767
      6 C          -1.7730    1.0280    0.5940 c         1 DTG      0.906600
      7 O          -1.9820    2.0870   -0.0520 o         1 DTG     -0.853300
      8 OXT        -1.9840    0.9950    1.8350 o         1 DTG     -0.853300
      9 HA1        -1.5940   -1.0040    0.3400 hc        1 DTG      0.021700
     10 HA2        -1.5940   -0.2060   -1.0400 hc        1 DTG      0.021700
     11 H11         1.7060   -0.3950    1.3130 hc        1 DTG      0.025256
     12 H12         0.2790   -0.8940    1.8180 hc        1 DTG      0.025256
     13 H13         0.5850    0.6670    1.7100 hc        1 DTG      0.025256
     14 H21         0.2790    1.1280   -1.6830 hc        1 DTG      0.025256
     15 H22         1.7060    0.9400   -0.9990 hc        1 DTG      0.025256
     16 H23         0.5850    1.8140   -0.2770 hc        1 DTG      0.025256
     17 H31         0.4230   -1.4420   -1.7530 hc        1 DTG      0.025256
     18 H32         0.4230   -2.2390   -0.3730 hc        1 DTG      0.025256
     19 H33         1.7240   -1.4420   -0.8330 hc        1 DTG      0.025256
@<TRIPOS>BOND
     1    1    2 1   
     2    1    6 1   
     3    1    9 1   
     4    1   10 1   
     5    2    3 1   
     6    2    4 1   
     7    2    5 1   
     8    3   11 1   
     9    3   12 1   
    10    3   13 1   
    11    4   14 1   
    12    4   15 1   
    13    4   16 1   
    14    5   17 1   
    15    5   18 1   
    16    5   19 1   
    17    6    7 1   
    18    6    8 1   
@<TRIPOS>SUBSTRUCTURE
     1 DTG         1 TEMP              0 ****  ****    0 ROOT
