@<TRIPOS>MOLECULE
DTH
   16    15     1     0     0
SMALL
bcc


@<TRIPOS>ATOM
      1 N           0.4820   -1.6950   -0.3200 n3        1 DTH     -0.889800
      2 CA          0.1860   -0.2910   -0.5700 c3        1 DTH     -0.011500
      3 CB          1.3050    0.6550   -0.0870 c3        1 DTH      0.161100
      4 CG2         2.6060    0.4400   -0.8370 c3        1 DTH     -0.084100
      5 OG1         1.5910    0.4870    1.2960 oh        1 DTH     -0.651800
      6 C          -1.1430    0.1850    0.0990 c         1 DTH      0.881600
      7 O          -1.2500    0.0110    1.3510 o         1 DTH     -0.839800
      8 OXT        -2.0250    0.7070   -0.6310 o         1 DTH     -0.839800
      9 H           0.8610   -1.7790    0.6080 hn        1 DTH      0.332800
     10 HN2        -0.3860   -2.2010   -0.3280 hn        1 DTH      0.332800
     11 HA          0.0830   -0.1680   -1.6850 h1        1 DTH      0.053700
     12 HB          0.9430    1.7120   -0.2490 h1        1 DTH      0.027700
     13 HG21        3.3660    1.1890   -0.5110 hc        1 DTH      0.026367
     14 HG22        3.0080   -0.5810   -0.6360 hc        1 DTH      0.026367
     15 HG23        2.4270    0.5510   -1.9320 hc        1 DTH      0.026367
     16 HG1         0.7340    0.4000    1.7490 ho        1 DTH      0.446000
@<TRIPOS>BOND
     1    1    2 1   
     2    1    9 1   
     3    1   10 1   
     4    2    3 1   
     5    2    6 1   
     6    2   11 1   
     7    3    4 1   
     8    3    5 1   
     9    3   12 1   
    10    4   13 1   
    11    4   14 1   
    12    4   15 1   
    13    5   16 1   
    14    6    7 1   
    15    6    8 1   
@<TRIPOS>SUBSTRUCTURE
     1 DTH         1 TEMP              0 ****  ****    0 ROOT
