@<TRIPOS>MOLECULE
DTH
   16    15     1     0     0
SMALL
bcc


@<TRIPOS>ATOM
      1 N          -1.5900    0.0910   -0.7410 n3        1 DTH     -0.895800
      2 CA         -0.1670    0.0910   -0.7410 c3        1 DTH     -0.005500
      3 CB          0.3360    0.0910    0.6830 c3        1 DTH      0.164100
      4 CG2         0.8300   -1.2920    1.0430 c3        1 DTH     -0.081100
      5 OG1        -0.7100    0.4560    1.5510 oh        1 DTH     -0.649800
      6 C           0.3360    1.3250   -1.4540 c         1 DTH      0.882600
      7 O          -0.0530    2.4650   -1.0900 o         1 DTH     -0.843300
      8 OXT         1.1460    1.2130   -2.4120 o         1 DTH     -0.843300
      9 H          -1.8950   -0.7410   -0.5230 hn        1 DTH      0.337300
     10 HN2        -1.8950    0.3180   -1.5700 hn        1 DTH      0.337300
     11 HA          0.1580   -0.7060   -1.2020 h1        1 DTH      0.043700
     12 HB          1.0690    0.7300    0.7690 h1        1 DTH      0.036700
     13 HG21        1.2270   -1.2740    1.9350 hc        1 DTH      0.025033
     14 HG22        1.5000   -1.5780    0.3940 hc        1 DTH      0.025033
     15 HG23        0.0800   -1.9180    1.0340 hc        1 DTH      0.025033
     16 HG1        -0.3720    0.7290    2.3250 ho        1 DTH      0.441000
@<TRIPOS>BOND
     1    1    2 1   
     2    1    9 1   
     3    1   10 1   
     4    2    3 1   
     5    2    6 1   
     6    2   11 1   
     7    3    4 1   
     8    3    5 1   
     9    3   12 1   
    10    4   13 1   
    11    4   14 1   
    12    4   15 1   
    13    5   16 1   
    14    6    7 1   
    15    6    8 1   
@<TRIPOS>SUBSTRUCTURE
     1 DTH         1 TEMP              0 ****  ****    0 ROOT
