@<TRIPOS>MOLECULE
DTI
   15    11     1     0     0
SMALL
bcc


@<TRIPOS>ATOM
      1 N10        -0.8000    0.0000    0.1860 n2        1 DTI     -0.044000
      2 C9          0.7700    0.0000    0.1860 c1        1 DTI      0.028000
      3 S13        -0.0060    0.0000    2.4560 ss        1 DTI      0.944000
      4 C11        -1.2500    0.0000    1.5420 c1        1 DTI     -0.397000
      5 C14         1.2240    0.0000    1.5560 c1        1 DTI     -0.513000
      6 C1          1.6560   -0.0000   -1.0400 c2        1 DTI     -0.152000
      7 C5         -1.6330    0.0000   -0.9680 c2        1 DTI     -0.152000
      8 H11        -2.1800    0.0000    1.8380 DU        1 DTI      0.238000
      9 H14         2.1530    0.0000    1.8530 DU        1 DTI      0.238000
     10 H13         1.4730   -0.7970   -1.5740 ha        1 DTI      0.134833
     11 H12         1.4740    0.7970   -1.5730 ha        1 DTI      0.134833
     12 H11A        2.5920   -0.0010   -0.7650 ha        1 DTI      0.134833
     13 H53        -1.4510    0.7970   -1.5010 ha        1 DTI      0.134833
     14 H52        -1.4500   -0.7970   -1.5020 ha        1 DTI      0.134833
     15 H51        -2.5700   -0.0000   -0.6940 ha        1 DTI      0.134833
@<TRIPOS>BOND
     1    1    2 1   
     2    1    4 1   
     3    2    5 1   
     4    3    4 1   
     5    3    5 1   
     6    6   10 1   
     7    6   11 1   
     8    6   12 1   
     9    7   13 1   
    10    7   14 1   
    11    7   15 1   
@<TRIPOS>SUBSTRUCTURE
     1 DTI         1 TEMP              0 ****  ****    0 ROOT
