@<TRIPOS>MOLECULE
DTI
   15    15     1     0     0
SMALL
bcc


@<TRIPOS>ATOM
      1 N10         0.6290   -0.6970    0.0500 na        1 DTI      0.023900
      2 C9          0.6740    0.7020   -0.0510 cc        1 DTI     -0.003600
      3 S13        -1.7800    0.0670   -0.0040 ss        1 DTI      0.404200
      4 C11        -0.6620   -1.1410    0.0830 cc        1 DTI     -0.151400
      5 C14        -0.6130    1.2360   -0.0890 cd        1 DTI     -0.243100
      6 C1          1.9420    1.4600   -0.1070 c3        1 DTI     -0.064800
      7 C5          1.7990   -1.5370    0.1100 c3        1 DTI     -0.015400
      8 H11        -0.8800   -2.2190    0.1610 h5        1 DTI      0.240000
      9 H14        -0.8120    2.3120   -0.1670 h4        1 DTI      0.236000
     10 H13         2.5500    1.2830    0.8180 hc        1 DTI      0.092033
     11 H12         2.5490    1.1520   -0.9970 hc        1 DTI      0.092033
     12 H11A        1.7210    2.5550   -0.1860 hc        1 DTI      0.092033
     13 H53         2.4110   -1.3850   -0.8230 h1        1 DTI      0.099033
     14 H52         2.4140   -1.2500    1.0080 h1        1 DTI      0.099033
     15 H51         1.4940   -2.6140    0.1900 h1        1 DTI      0.099033
@<TRIPOS>BOND
     1    1    2 1   
     2    1    4 2   
     3    1    7 1   
     4    2    5 2   
     5    2    6 1   
     6    3    4 1   
     7    3    5 1   
     8    4    8 1   
     9    5    9 1   
    10    6   10 1   
    11    6   11 1   
    12    6   12 1   
    13    7   13 1   
    14    7   14 1   
    15    7   15 1   
@<TRIPOS>SUBSTRUCTURE
     1 DTI         1 TEMP              0 ****  ****    0 ROOT
