@<TRIPOS>MOLECULE
DTL
   18    17     1     0     0
SMALL
bcc


@<TRIPOS>ATOM
      1 C1         -1.7250   -0.1100   -0.7260 c3        1 DTL      0.095400
      2 C2         -0.2130   -0.1100   -0.7260 c3        1 DTL      0.148100
      3 C3          0.2910   -0.1100    0.6990 c3        1 DTL      0.148100
      4 C4          1.4670    0.8320    0.8170 c3        1 DTL      0.095400
      5 O1         -2.1950   -0.2200   -2.0520 oh        1 DTL     -0.618800
      6 O2          0.2570   -1.2600   -1.3900 oh        1 DTL     -0.602800
      7 O3          0.6950   -1.4120    1.0540 oh        1 DTL     -0.602800
      8 O4          2.0060    0.7510    2.1180 oh        1 DTL     -0.618800
      9 H1C1       -2.0500   -0.8670   -0.2020 h1        1 DTL      0.049200
     10 H1C2       -2.0500    0.7220   -0.3340 h1        1 DTL      0.049200
     11 H2          0.1130    0.6870   -1.1860 h1        1 DTL      0.047700
     12 H3         -0.4230    0.1830    1.2960 h1        1 DTL      0.047700
     13 H4C1        1.1710    1.7460    0.6450 h1        1 DTL      0.049200
     14 H4C2        2.1510    0.5840    0.1660 h1        1 DTL      0.049200
     15 H1         -3.0780   -0.1320   -2.0610 ho        1 DTL      0.410000
     16 HA          0.5820   -1.0310   -2.1840 ho        1 DTL      0.422000
     17 HB          0.3620   -1.6180    1.8500 ho        1 DTL      0.422000
     18 H4          2.6380    1.3660    2.2160 ho        1 DTL      0.410000
@<TRIPOS>BOND
     1    1    2 1   
     2    1    5 1   
     3    1    9 1   
     4    1   10 1   
     5    2    3 1   
     6    2    6 1   
     7    2   11 1   
     8    3    4 1   
     9    3    7 1   
    10    3   12 1   
    11    4    8 1   
    12    4   13 1   
    13    4   14 1   
    14    5   15 1   
    15    6   16 1   
    16    7   17 1   
    17    8   18 1   
@<TRIPOS>SUBSTRUCTURE
     1 DTL         1 TEMP              0 ****  ****    0 ROOT
