@<TRIPOS>MOLECULE
DTL
   18    17     1     0     0
SMALL
bcc


@<TRIPOS>ATOM
      1 C1          0.0040    0.0330   -0.0210 c3        1 DTL      0.095400
      2 C2          1.5320    0.1230   -0.0040 c3        1 DTL      0.148100
      3 C3          2.0490    0.1250    1.4430 c3        1 DTL      0.148100
      4 C4          3.5640   -0.0980    1.4650 c3        1 DTL      0.095400
      5 O1         -0.3770    0.0470   -1.3900 oh        1 DTL     -0.618800
      6 O2          2.1210   -0.9710   -0.6890 oh        1 DTL     -0.602800
      7 O3          1.3680   -0.8880    2.1640 oh        1 DTL     -0.602800
      8 O4          3.9470   -0.0700    2.8330 oh        1 DTL     -0.618800
      9 H1C1       -0.4400    0.9150    0.5090 h1        1 DTL      0.049200
     10 H1C2       -0.3300   -0.9160    0.4740 h1        1 DTL      0.049200
     11 H2          1.8610    1.0780   -0.5050 h1        1 DTL      0.047700
     12 H3          1.8060    1.1220    1.9100 h1        1 DTL      0.047700
     13 H4C1        3.8120   -1.0900    1.0030 h1        1 DTL      0.049200
     14 H4C2        4.0830    0.7230    0.9050 h1        1 DTL      0.049200
     15 H1         -1.3130   -0.1820   -1.4190 ho        1 DTL      0.410000
     16 HA          1.6120   -1.0960   -1.5020 ho        1 DTL      0.422000
     17 HB          1.8650   -1.0290    2.9820 ho        1 DTL      0.422000
     18 H4          4.8590   -0.3790    2.8720 ho        1 DTL      0.410000
@<TRIPOS>BOND
     1    1    2 1   
     2    1    5 1   
     3    1    9 1   
     4    1   10 1   
     5    2    3 1   
     6    2    6 1   
     7    2   11 1   
     8    3    4 1   
     9    3    7 1   
    10    3   12 1   
    11    4    8 1   
    12    4   13 1   
    13    4   14 1   
    14    5   15 1   
    15    6   16 1   
    16    7   17 1   
    17    8   18 1   
@<TRIPOS>SUBSTRUCTURE
     1 DTL         1 TEMP              0 ****  ****    0 ROOT
