@<TRIPOS>MOLECULE
DTL
   18    17     1     0     0
SMALL
bcc


@<TRIPOS>ATOM
      1 C1          0.6920    0.0280    1.9430 c3        1 DTL      0.093400
      2 C2         -0.3550   -0.0900    0.8270 c3        1 DTL      0.111100
      3 C3          0.2750    0.2330   -0.5370 c3        1 DTL      0.111100
      4 C4         -0.8150    0.3960   -1.6000 c3        1 DTL      0.093400
      5 O1          0.9090    1.3750    2.3040 oh        1 DTL     -0.603300
      6 O2         -0.9420   -1.3760    0.8360 oh        1 DTL     -0.606800
      7 O3          1.1290   -0.8570   -0.8550 oh        1 DTL     -0.606800
      8 O4         -0.1430    0.5360   -2.8420 oh        1 DTL     -0.603300
      9 H1C1        1.6900   -0.3410    1.5850 h1        1 DTL      0.052950
     10 H1C2        0.3590   -0.5770    2.8280 h1        1 DTL      0.052950
     11 H2         -1.2100    0.6180    1.0180 h1        1 DTL      0.070200
     12 H3          0.8850    1.1760   -0.4590 h1        1 DTL      0.070200
     13 H4C1       -1.4760   -0.5100   -1.6090 h1        1 DTL      0.052950
     14 H4C2       -1.4280    1.3110   -1.3900 h1        1 DTL      0.052950
     15 H1          0.0980    1.6960    2.7150 ho        1 DTL      0.404000
     16 HA         -0.2660   -2.0000    0.5360 ho        1 DTL      0.426500
     17 HB          1.4150   -0.7300   -1.7690 ho        1 DTL      0.426500
     18 H4         -0.8180    0.5050   -3.5300 ho        1 DTL      0.404000
@<TRIPOS>BOND
     1    1    2 1   
     2    1    5 1   
     3    1    9 1   
     4    1   10 1   
     5    2    3 1   
     6    2    6 1   
     7    2   11 1   
     8    3    4 1   
     9    3    7 1   
    10    3   12 1   
    11    4    8 1   
    12    4   13 1   
    13    4   14 1   
    14    5   15 1   
    15    6   16 1   
    16    7   17 1   
    17    8   18 1   
@<TRIPOS>SUBSTRUCTURE
     1 DTL         1 TEMP              0 ****  ****    0 ROOT
