@<TRIPOS>MOLECULE
DTL
   18    17     1     0     0
SMALL
bcc


@<TRIPOS>ATOM
      1 C1          0.0110   -0.0130   -0.0410 c3        1 DTL      0.095400
      2 C2          1.5340    0.1420   -0.0050 c3        1 DTL      0.148100
      3 C3          2.0350    0.1420    1.4470 c3        1 DTL      0.148100
      4 C4          3.5580   -0.0140    1.4820 c3        1 DTL      0.095400
      5 O1         -0.3570    0.0070   -1.4120 oh        1 DTL     -0.618800
      6 O2          2.1770   -0.9120   -0.7030 oh        1 DTL     -0.602800
      7 O3          1.3920   -0.9130    2.1440 oh        1 DTL     -0.602800
      8 O4          3.9260    0.0050    2.8540 oh        1 DTL     -0.618800
      9 H1C1       -0.4770    0.8390    0.5000 h1        1 DTL      0.049200
     10 H1C2       -0.2860   -0.9850    0.4350 h1        1 DTL      0.049200
     11 H2          1.8250    1.1200   -0.4860 h1        1 DTL      0.047700
     12 H3          1.7430    1.1190    1.9290 h1        1 DTL      0.047700
     13 H4C1        4.0460    0.8380    0.9420 h1        1 DTL      0.049200
     14 H4C2        3.8550   -0.9860    1.0060 h1        1 DTL      0.049200
     15 H1         -1.2810   -0.2620   -1.4560 ho        1 DTL      0.410000
     16 HA          1.6820   -1.0450   -1.5230 ho        1 DTL      0.422000
     17 HB          1.8870   -1.0460    2.9640 ho        1 DTL      0.422000
     18 H4          4.8500   -0.2640    2.8970 ho        1 DTL      0.410000
@<TRIPOS>BOND
     1    1    2 1   
     2    1    5 1   
     3    1    9 1   
     4    1   10 1   
     5    2    3 1   
     6    2    6 1   
     7    2   11 1   
     8    3    4 1   
     9    3    7 1   
    10    3   12 1   
    11    4    8 1   
    12    4   13 1   
    13    4   14 1   
    14    5   15 1   
    15    6   16 1   
    16    7   17 1   
    17    8   18 1   
@<TRIPOS>SUBSTRUCTURE
     1 DTL         1 TEMP              0 ****  ****    0 ROOT
