@<TRIPOS>MOLECULE
DTM
   52    54     1     0     0
SMALL
bcc


@<TRIPOS>ATOM
      1 C2B         0.3250    0.0640    0.0830 ca        1 DTM      0.771900
      2 C4B         1.4590   -1.2440    1.6320 ca        1 DTM      0.616200
      3 C4A         2.0710   -0.0630    2.1930 ca        1 DTM     -0.285600
      4 C5B         2.9370   -0.0260    3.3220 ca        1 DTM     -0.030000
      5 C6B         3.5520    1.1670    3.6720 ca        1 DTM     -0.083700
      6 C7'         3.2270    2.3570    2.9030 ca        1 DTM      0.490200
      7 C8A         1.7690    1.1840    1.5200 ca        1 DTM      0.711300
      8 C9'         5.7970    0.4950    4.5520 c3        1 DTM      0.188100
      9 C1'         5.6160   -0.9770    4.5610 ca        1 DTM     -0.179300
     10 C2'         5.2980   -1.6360    3.3730 ca        1 DTM     -0.154500
     11 C3'         5.0590   -3.0140    3.3890 ca        1 DTM      0.070100
     12 C4'         5.2390   -3.7790    4.5650 ca        1 DTM      0.160100
     13 C5'         5.6620   -3.0990    5.7460 ca        1 DTM      0.070100
     14 C6'         5.8200   -1.7110    5.7390 ca        1 DTM     -0.154500
     15 C31         5.4010   -4.5550    1.5990 c3        1 DTM      0.113700
     16 C41         5.4230   -6.0200    5.4410 c3        1 DTM      0.116700
     17 C51         6.5710   -3.3120    7.9500 c3        1 DTM      0.113700
     18 CN'         3.8790    0.9430    6.0880 c3        1 DTM      0.080100
     19 N1'         0.8670    1.2320    0.4620 nb        1 DTM     -0.544000
     20 N2'        -0.6620    0.1050   -1.0370 n4        1 DTM     -0.819300
     21 N3'         0.5940   -1.2020    0.6110 nb        1 DTM     -0.663000
     22 N4'         1.8090   -2.5840    2.1480 n4        1 DTM     -0.849300
     23 N8'         2.3740    2.3750    1.9020 nb        1 DTM     -0.541000
     24 N9'         4.5050    1.2840    4.7790 n4        1 DTM     -0.573800
     25 O3'         4.5510   -3.5750    2.2280 os        1 DTM     -0.375900
     26 O4'         4.9210   -5.0960    4.4580 os        1 DTM     -0.319900
     27 O5'         5.8380   -3.8800    6.8570 os        1 DTM     -0.375900
     28 H5'         3.1150   -0.9430    3.9150 ha        1 DTM      0.189000
     29 H7'         3.6870    3.3490    3.1350 h4        1 DTM      0.105100
     30 HC91        6.2170    0.8440    3.5630 hx        1 DTM      0.127200
     31 HC92        6.4930    0.8170    5.3850 hx        1 DTM      0.127200
     32 H2'         5.2630   -1.0990    2.4130 ha        1 DTM      0.155500
     33 H6'         6.1310   -1.1950    6.6630 ha        1 DTM      0.155500
     34 H311        4.8310   -4.8370    0.6790 h1        1 DTM      0.074367
     35 H312        5.5320   -5.4320    2.2790 h1        1 DTM      0.074367
     36 H313        6.3830   -4.0920    1.3430 h1        1 DTM      0.074367
     37 H411        6.5200   -5.8810    5.5870 h1        1 DTM      0.081700
     38 H412        4.8660   -5.8840    6.3990 h1        1 DTM      0.081700
     39 H413        5.1940   -7.0130    4.9730 h1        1 DTM      0.081700
     40 H511        6.7170   -4.1930    8.6310 h1        1 DTM      0.074367
     41 H512        7.5520   -2.9090    7.6040 h1        1 DTM      0.074367
     42 H513        5.9580   -2.5250    8.4520 h1        1 DTM      0.074367
     43 HCN1        4.5930    1.2320    6.9100 hx        1 DTM      0.118367
     44 HCN2        3.6880   -0.1620    6.1390 hx        1 DTM      0.118367
     45 HCN3        2.9180    1.5120    6.2140 hx        1 DTM      0.118367
     46 HN21       -0.3310   -0.4910   -1.8140 hn        1 DTM      0.512467
     47 HN22       -0.7730    1.0790   -1.3810 hn        1 DTM      0.512467
     48 HN41        2.7850   -2.8220    1.8540 hn        1 DTM      0.509800
     49 HN42        1.7550   -2.5900    3.1750 hn        1 DTM      0.509800
     50 H2'3       -1.5770   -0.2430   -0.7040 hn        1 DTM      0.512467
     51 H4'3        1.1740   -3.3150    1.7790 hn        1 DTM      0.509800
     52 H9'1        4.7910    2.2800    4.8270 hn        1 DTM      0.473800
@<TRIPOS>BOND
     1    1   19 ar  
     2    1   20 1   
     3    1   21 ar  
     4    2    3 ar  
     5    2   21 ar  
     6    2   22 1   
     7    3    4 ar  
     8    3    7 ar  
     9    4    5 ar  
    10    4   28 1   
    11    5    6 ar  
    12    5   24 1   
    13    6   23 ar  
    14    6   29 1   
    15    7   19 ar  
    16    7   23 ar  
    17    8    9 1   
    18    8   24 1   
    19    8   30 1   
    20    8   31 1   
    21    9   10 ar  
    22    9   14 ar  
    23   10   11 ar  
    24   10   32 1   
    25   11   12 ar  
    26   11   25 1   
    27   12   13 ar  
    28   12   26 1   
    29   13   14 ar  
    30   13   27 1   
    31   14   33 1   
    32   15   25 1   
    33   15   34 1   
    34   15   35 1   
    35   15   36 1   
    36   16   26 1   
    37   16   37 1   
    38   16   38 1   
    39   16   39 1   
    40   17   27 1   
    41   17   40 1   
    42   17   41 1   
    43   17   42 1   
    44   18   24 1   
    45   18   43 1   
    46   18   44 1   
    47   18   45 1   
    48   20   46 1   
    49   20   47 1   
    50   20   50 1   
    51   22   48 1   
    52   22   49 1   
    53   22   51 1   
    54   24   52 1   
@<TRIPOS>SUBSTRUCTURE
     1 DTM         1 TEMP              0 ****  ****    0 ROOT
