@<TRIPOS>MOLECULE
DTM
   49    44     1     0     0
SMALL
bcc


@<TRIPOS>ATOM
      1 C2B        -4.2070    2.6760    4.1890 c1        1 DTM      0.189000
      2 C4B        -1.9010    2.1980    3.9520 c1        1 DTM      0.213000
      3 C4A        -2.2220    1.1410    3.1230 c1        1 DTM     -0.230000
      4 C5B        -1.2130    0.3500    2.5790 c1        1 DTM     -0.108000
      5 C6B        -1.5300   -0.6940    1.7680 c1        1 DTM     -0.044000
      6 C7'        -2.8750   -0.9720    1.4800 c1        1 DTM     -0.024000
      7 C8A        -3.5450    0.8650    2.8380 c1        1 DTM      0.107000
      8 C9'         0.5230   -1.8870    0.9580 c3        1 DTM     -0.017000
      9 C1'         1.4720   -1.4200   -0.2180 c2        1 DTM     -0.055000
     10 C2'         1.4790   -0.1110   -0.6060 c1        1 DTM     -0.236000
     11 C3'         2.2390    0.2940   -1.7510 c1        1 DTM      0.022500
     12 C4'         2.9710   -0.6570   -2.4680 c1        1 DTM      0.022500
     13 C5'         2.9560   -1.9870   -2.0650 c1        1 DTM      0.111000
     14 C6'         2.2060   -2.3720   -0.9370 c2        1 DTM     -0.185000
     15 C31         1.2370    2.2830   -2.6270 c3        1 DTM     -0.077500
     16 C41         3.2410    0.2860   -4.6260 c3        1 DTM     -0.077500
     17 C51         3.3260   -3.5600   -3.8700 c3        1 DTM     -0.066000
     18 CN'        -1.4910   -1.8950   -0.5170 c3        1 DTM     -0.102000
     19 N1'        -4.5260    1.6350    3.3730 n1        1 DTM     -0.175000
     20 N2'        -5.2760    3.4290    4.7970 n3        1 DTM     -0.323000
     21 N3'        -2.8780    2.9560    4.4780 n1        1 DTM     -0.299000
     22 N4'        -0.9390    3.2230    4.3470 n3        1 DTM     -0.347000
     23 N8'        -3.8660   -0.1940    2.0150 n1        1 DTM     -0.175000
     24 N9'        -0.7810   -1.4400    0.7080 n3        1 DTM     -0.235000
     25 O3'         2.4010    1.6690   -2.0380 os        1 DTM     -0.210000
     26 O4'         3.8570   -0.2500   -3.4590 os        1 DTM     -0.210000
     27 O5'         3.8610   -2.9480   -2.6890 os        1 DTM     -0.211000
     28 H5'        -0.2520    0.5510    2.7880 ha        1 DTM      0.139000
     29 H7'        -3.0940   -1.6870    0.9290 ha        1 DTM      0.168000
     30 HC91        0.5260   -2.8180    1.0110 h1        1 DTM      0.110500
     31 HC92        0.8190   -1.5390    1.7480 h1        1 DTM      0.110500
     32 H2'         0.9540    0.5620   -0.0890 ha        1 DTM      0.148000
     33 H6'         2.1950   -3.3440   -0.6430 ha        1 DTM      0.154000
     34 H311        0.3940    1.9630   -2.1310 h1        1 DTM      0.085500
     35 H312        1.1780    2.0370   -3.5500 h1        1 DTM      0.085500
     36 H313        1.3060    3.2070   -2.5580 h1        1 DTM      0.085500
     37 H411        3.5110    1.1850   -4.7360 h1        1 DTM      0.085500
     38 H412        3.5080   -0.2140   -5.3770 h1        1 DTM      0.085500
     39 H413        2.2510    0.2450   -4.5340 h1        1 DTM      0.085500
     40 H511        2.5190   -3.0540   -4.1680 h1        1 DTM      0.088667
     41 H512        3.9250   -3.5480   -4.5010 h1        1 DTM      0.088667
     42 H513        3.0870   -4.4490   -3.6830 h1        1 DTM      0.088667
     43 HCN1       -1.4420   -1.2530   -1.1470 h1        1 DTM      0.080000
     44 HCN2       -1.0460   -2.7620   -0.8700 h1        1 DTM      0.080000
     45 HCN3       -2.4760   -2.0800   -0.2940 h1        1 DTM      0.080000
     46 HN21       -6.0960    3.1610    4.7120 hn        1 DTM      0.222500
     47 HN22       -5.0790    4.1630    5.3460 hn        1 DTM      0.222500
     48 HN41       -1.2110    3.9220    4.9200 hn        1 DTM      0.225000
     49 HN42        0.0090    3.1360    4.0930 hn        1 DTM      0.225000
@<TRIPOS>BOND
     1    1   20 1   
     2    1   21 1   
     3    2    3 1   
     4    2   22 1   
     5    3    4 1   
     6    4   28 1   
     7    5    6 1   
     8    5   24 1   
     9    6   29 1   
    10    7   19 1   
    11    7   23 1   
    12    8    9 1   
    13    8   24 1   
    14    8   30 1   
    15    8   31 1   
    16    9   10 1   
    17    9   14 1   
    18   10   32 1   
    19   11   12 1   
    20   11   25 1   
    21   12   26 1   
    22   13   14 1   
    23   13   27 1   
    24   14   33 1   
    25   15   25 1   
    26   15   34 1   
    27   15   35 1   
    28   15   36 1   
    29   16   26 1   
    30   16   37 1   
    31   16   38 1   
    32   16   39 1   
    33   17   27 1   
    34   17   40 1   
    35   17   41 1   
    36   17   42 1   
    37   18   24 1   
    38   18   43 1   
    39   18   44 1   
    40   18   45 1   
    41   20   46 1   
    42   20   47 1   
    43   22   48 1   
    44   22   49 1   
@<TRIPOS>SUBSTRUCTURE
     1 DTM         1 TEMP              0 ****  ****    0 ROOT
