@<TRIPOS>MOLECULE
DTM
   49    51     1     0     0
SMALL
bcc


@<TRIPOS>ATOM
      1 C2B         0.1840   -0.0620    0.0310 ca        1 DTM      0.911900
      2 C4B         0.3310   -0.7960    2.2550 ca        1 DTM      0.733200
      3 C4A         1.5990   -0.0890    2.3910 ca        1 DTM     -0.365600
      4 C5B         2.3970   -0.1060    3.5570 ca        1 DTM     -0.088000
      5 C6B         3.5750    0.6270    3.6060 ca        1 DTM     -0.039700
      6 C7'         3.9230    1.3750    2.4150 ca        1 DTM      0.447200
      7 C8A         2.0440    0.6570    1.2430 ca        1 DTM      0.703300
      8 C9'         5.7670    0.2620    4.5840 c3        1 DTM      0.225100
      9 C1'         5.9620   -1.2300    4.5820 ca        1 DTM     -0.066300
     10 C2'         6.0040   -1.9220    3.3710 ca        1 DTM     -0.215000
     11 C3'         6.2100   -3.3080    3.3680 ca        1 DTM      0.137100
     12 C4'         6.4020   -4.0050    4.5810 ca        1 DTM      0.045100
     13 C5'         6.3370   -3.2880    5.7950 ca        1 DTM      0.137100
     14 C6'         6.1190   -1.9060    5.7940 ca        1 DTM     -0.215000
     15 C31         6.1420   -3.3930    0.9910 c3        1 DTM      0.111200
     16 C41         5.7130   -6.2220    4.9670 c3        1 DTM      0.115700
     17 C51         6.6620   -3.3280    8.1510 c3        1 DTM      0.111200
     18 CN'         3.7960    0.3890    6.0080 c3        1 DTM      0.162100
     19 N1'         1.3370    0.6740    0.0600 nb        1 DTM     -0.762000
     20 N2'        -0.4870   -0.1650   -1.1910 nh        1 DTM     -0.927500
     21 N3'        -0.3770   -0.7650    1.1060 nb        1 DTM     -0.825000
     22 N4'        -0.1540   -1.5600    3.3050 nh        1 DTM     -0.946500
     23 N8'         3.2270    1.3970    1.3010 nb        1 DTM     -0.648000
     24 N9'         4.4060    0.7510    4.7500 nh        1 DTM     -0.617000
     25 O3'         6.2440   -4.0860    2.2320 os        1 DTM     -0.312400
     26 O4'         6.7570   -5.3400    4.5470 os        1 DTM     -0.309900
     27 O5'         6.4690   -4.0500    6.9390 os        1 DTM     -0.312400
     28 H5'         2.0920   -0.7080    4.4270 ha        1 DTM      0.133000
     29 H7'         4.8420    1.9960    2.4080 h4        1 DTM      0.031100
     30 HC91        6.1700    0.6840    3.6190 h1        1 DTM      0.063200
     31 HC92        6.3690    0.7030    5.4310 h1        1 DTM      0.063200
     32 H2'         5.8700   -1.3760    2.4270 ha        1 DTM      0.142500
     33 H6'         6.0750   -1.3440    6.7370 ha        1 DTM      0.142500
     34 H311        6.2300   -4.2120    0.2330 h1        1 DTM      0.046867
     35 H312        6.9760   -2.6590    0.8770 h1        1 DTM      0.046867
     36 H313        5.1520   -2.8820    0.9060 h1        1 DTM      0.046867
     37 H411        6.1810   -7.2350    4.8890 h1        1 DTM      0.041700
     38 H412        5.4170   -5.9980    6.0200 h1        1 DTM      0.041700
     39 H413        4.8350   -6.1360    4.2840 h1        1 DTM      0.041700
     40 H511        7.5270   -2.6270    8.0670 h1        1 DTM      0.046867
     41 H512        5.7320   -2.7730    8.4250 h1        1 DTM      0.046867
     42 H513        6.8750   -4.1330    8.9000 h1        1 DTM      0.046867
     43 HCN1        3.6700   -0.7210    6.1400 h1        1 DTM      0.039033
     44 HCN2        2.7930    0.8830    6.0880 h1        1 DTM      0.039033
     45 HCN3        4.4540    0.7690    6.8340 h1        1 DTM      0.039033
     46 HN21       -0.2520    0.5040   -1.8880 hn        1 DTM      0.430300
     47 HN22       -1.4330   -0.4640   -1.1620 hn        1 DTM      0.430300
     48 HN41       -1.0700   -1.9380    3.2280 hn        1 DTM      0.426300
     49 HN42        0.1450   -1.3120    4.2160 hn        1 DTM      0.426300
@<TRIPOS>BOND
     1    1   19 ar  
     2    1   20 1   
     3    1   21 ar  
     4    2    3 ar  
     5    2   21 ar  
     6    2   22 1   
     7    3    4 ar  
     8    3    7 ar  
     9    4    5 ar  
    10    4   28 1   
    11    5    6 ar  
    12    5   24 1   
    13    6   23 ar  
    14    6   29 1   
    15    7   19 ar  
    16    7   23 ar  
    17    8    9 1   
    18    8   24 1   
    19    8   30 1   
    20    8   31 1   
    21    9   10 ar  
    22    9   14 ar  
    23   10   11 ar  
    24   10   32 1   
    25   11   12 ar  
    26   11   25 1   
    27   12   13 ar  
    28   12   26 1   
    29   13   14 ar  
    30   13   27 1   
    31   14   33 1   
    32   15   25 1   
    33   15   34 1   
    34   15   35 1   
    35   15   36 1   
    36   16   26 1   
    37   16   37 1   
    38   16   38 1   
    39   16   39 1   
    40   17   27 1   
    41   17   40 1   
    42   17   41 1   
    43   17   42 1   
    44   18   24 1   
    45   18   43 1   
    46   18   44 1   
    47   18   45 1   
    48   20   46 1   
    49   20   47 1   
    50   22   48 1   
    51   22   49 1   
@<TRIPOS>SUBSTRUCTURE
     1 DTM         1 TEMP              0 ****  ****    0 ROOT
