@<TRIPOS>MOLECULE
DTM
   49    51     1     0     0
SMALL
bcc


@<TRIPOS>ATOM
      1 C2B         0.1230   -0.0000    0.0650 ca        1 DTM      0.911900
      2 C4B         0.3420   -0.8140    2.2550 ca        1 DTM      0.731200
      3 C4A         1.6000   -0.0890    2.3860 ca        1 DTM     -0.364600
      4 C5B         2.4060   -0.0990    3.5470 ca        1 DTM     -0.088000
      5 C6B         3.5890    0.6270    3.5800 ca        1 DTM     -0.038700
      6 C7'         3.9370    1.3560    2.3770 ca        1 DTM      0.447200
      7 C8A         2.0320    0.6580    1.2340 ca        1 DTM      0.703300
      8 C9'         5.7820    0.2620    4.5560 c3        1 DTM      0.225100
      9 C1'         5.9680   -1.2320    4.5700 ca        1 DTM     -0.066300
     10 C2'         6.0270   -1.9340    3.3660 ca        1 DTM     -0.214500
     11 C3'         6.2250   -3.3220    3.3780 ca        1 DTM      0.137100
     12 C4'         6.3900   -4.0100    4.5990 ca        1 DTM      0.046100
     13 C5'         6.3080   -3.2830    5.8060 ca        1 DTM      0.137100
     14 C6'         6.0990   -1.8990    5.7900 ca        1 DTM     -0.214500
     15 C31         6.2240   -3.4230    1.0010 c3        1 DTM      0.111200
     16 C41         5.6810   -6.2190    4.9960 c3        1 DTM      0.115700
     17 C51         6.5900   -3.3050    8.1680 c3        1 DTM      0.111200
     18 CN'         3.8170    0.4260    5.9840 c3        1 DTM      0.162100
     19 N1'         1.3040    0.6900    0.0650 nb        1 DTM     -0.762000
     20 N2'        -0.6910    0.1090   -1.0670 nv        1 DTM     -0.929500
     21 N3'        -0.3890   -0.7660    1.1210 nb        1 DTM     -0.823000
     22 N4'        -0.1000   -1.6310    3.2860 nv        1 DTM     -0.945500
     23 N8'         3.2280    1.3780    1.2710 nb        1 DTM     -0.647000
     24 N9'         4.4260    0.7620    4.7190 nh        1 DTM     -0.617000
     25 O3'         6.2720   -4.1090    2.2480 os        1 DTM     -0.312400
     26 O4'         6.7350   -5.3480    4.5830 os        1 DTM     -0.309900
     27 O5'         6.4140   -4.0350    6.9590 os        1 DTM     -0.312400
     28 H5'         2.1020   -0.6860    4.4260 ha        1 DTM      0.132000
     29 H7'         4.8650    1.9620    2.3540 h4        1 DTM      0.031100
     30 HC91        6.1860    0.6700    3.5860 h1        1 DTM      0.063200
     31 HC92        6.3890    0.7070    5.3970 h1        1 DTM      0.063200
     32 H2'         5.9140   -1.3950    2.4150 ha        1 DTM      0.142500
     33 H6'         6.0440   -1.3290    6.7280 ha        1 DTM      0.142500
     34 H311        7.0710   -2.7000    0.9120 h1        1 DTM      0.046533
     35 H312        6.3290   -4.2480    0.2510 h1        1 DTM      0.046533
     36 H313        5.2450   -2.9000    0.8770 h1        1 DTM      0.046533
     37 H411        4.8120   -6.1330    4.3010 h1        1 DTM      0.041367
     38 H412        6.1420   -7.2350    4.9330 h1        1 DTM      0.041367
     39 H413        5.3720   -5.9840    6.0430 h1        1 DTM      0.041367
     40 H511        5.6590   -2.7410    8.4210 h1        1 DTM      0.046533
     41 H512        6.7830   -4.1050    8.9280 h1        1 DTM      0.046533
     42 H513        7.4610   -2.6110    8.0950 h1        1 DTM      0.046533
     43 HCN1        4.4810    0.8140    6.8020 h1        1 DTM      0.039033
     44 HCN2        3.6800   -0.6800    6.1350 h1        1 DTM      0.039033
     45 HCN3        2.8190    0.9320    6.0590 h1        1 DTM      0.039033
     46 HN21       -1.3950   -0.5800   -1.1830 hn        1 DTM      0.430300
     47 HN22       -0.2620    0.4550   -1.8940 hn        1 DTM      0.430300
     48 HN41        0.2150   -1.4070    4.1990 hn        1 DTM      0.425300
     49 HN42       -1.0160   -2.0120    3.2190 hn        1 DTM      0.425300
@<TRIPOS>BOND
     1    1   19 ar  
     2    1   20 1   
     3    1   21 ar  
     4    2    3 ar  
     5    2   21 ar  
     6    2   22 1   
     7    3    4 ar  
     8    3    7 ar  
     9    4    5 ar  
    10    4   28 1   
    11    5    6 ar  
    12    5   24 1   
    13    6   23 ar  
    14    6   29 1   
    15    7   19 ar  
    16    7   23 ar  
    17    8    9 1   
    18    8   24 1   
    19    8   30 1   
    20    8   31 1   
    21    9   10 ar  
    22    9   14 ar  
    23   10   11 ar  
    24   10   32 1   
    25   11   12 ar  
    26   11   25 1   
    27   12   13 ar  
    28   12   26 1   
    29   13   14 ar  
    30   13   27 1   
    31   14   33 1   
    32   15   25 1   
    33   15   34 1   
    34   15   35 1   
    35   15   36 1   
    36   16   26 1   
    37   16   37 1   
    38   16   38 1   
    39   16   39 1   
    40   17   27 1   
    41   17   40 1   
    42   17   41 1   
    43   17   42 1   
    44   18   24 1   
    45   18   43 1   
    46   18   44 1   
    47   18   45 1   
    48   20   46 1   
    49   20   47 1   
    50   22   48 1   
    51   22   49 1   
@<TRIPOS>SUBSTRUCTURE
     1 DTM         1 TEMP              0 ****  ****    0 ROOT
