@<TRIPOS>MOLECULE
DTM
   49    51     1     0     0
SMALL
bcc


@<TRIPOS>ATOM
      1 C2B         1.1580    0.4330    5.1190 ca        1 DTM      0.911900
      2 C4B        -0.4130    1.3580    3.6420 ca        1 DTM      0.733200
      3 C4A        -0.4940    0.0790    2.9470 ca        1 DTM     -0.365600
      4 C5B        -1.2820   -0.1520    1.7970 ca        1 DTM     -0.089000
      5 C6B        -1.3220   -1.4150    1.2220 ca        1 DTM     -0.038700
      6 C7'        -0.5190   -2.4420    1.8550 ca        1 DTM      0.447200
      7 C8A         0.2990   -0.9950    3.4860 ca        1 DTM      0.702300
      8 C9'        -1.4250   -2.2450   -1.0570 c3        1 DTM      0.225100
      9 C1'        -0.7220   -1.2030   -1.8850 ca        1 DTM     -0.068300
     10 C2'         0.6330   -0.9460   -1.6720 ca        1 DTM     -0.213500
     11 C3'         1.2940    0.0020   -2.4630 ca        1 DTM      0.136100
     12 C4'         0.6020    0.6950   -3.4810 ca        1 DTM      0.047100
     13 C5'        -0.7740    0.4370   -3.6630 ca        1 DTM      0.136100
     14 C6'        -1.4300   -0.5150   -2.8730 ca        1 DTM     -0.213500
     15 C31         3.3560   -0.3890   -1.3380 c3        1 DTM      0.111200
     16 C41         1.6690    2.7700   -3.7990 c3        1 DTM      0.114700
     17 C51        -2.6910    0.7610   -5.0310 c3        1 DTM      0.111200
     18 CN'        -3.2360   -0.8830   -0.1670 c3        1 DTM      0.161100
     19 N1'         1.1260   -0.8210    4.5740 nb        1 DTM     -0.762000
     20 N2'         2.0790    0.6710    6.1440 nh        1 DTM     -0.927500
     21 N3'         0.3780    1.5280    4.7210 nb        1 DTM     -0.825000
     22 N4'        -1.1240    2.4510    3.1690 nh        1 DTM     -0.946500
     23 N8'         0.2490   -2.2650    2.9060 nb        1 DTM     -0.648000
     24 N9'        -2.1420   -1.7800    0.1210 nh        1 DTM     -0.617000
     25 O3'         2.6230    0.3400   -2.3180 os        1 DTM     -0.312400
     26 O4'         1.2540    1.5270   -4.3690 os        1 DTM     -0.309900
     27 O5'        -1.3930    1.1930   -4.6360 os        1 DTM     -0.312400
     28 H5'        -1.8580    0.6710    1.3470 ha        1 DTM      0.134000
     29 H7'        -0.5330   -3.4740    1.4500 h4        1 DTM      0.031100
     30 HC91       -2.1850   -2.7690   -1.7060 h1        1 DTM      0.063200
     31 HC92       -0.6700   -3.0130   -0.7210 h1        1 DTM      0.063200
     32 H2'         1.1730   -1.4920   -0.8850 ha        1 DTM      0.142500
     33 H6'        -2.4980   -0.7260   -3.0220 ha        1 DTM      0.142500
     34 H311        4.3900    0.0320   -1.4270 h1        1 DTM      0.046867
     35 H312        2.9420   -0.2040   -0.3180 h1        1 DTM      0.046867
     36 H313        3.3540   -1.4810   -1.5740 h1        1 DTM      0.046867
     37 H411        2.1810    3.2870   -4.6480 h1        1 DTM      0.042367
     38 H412        0.7810    3.3540   -3.4560 h1        1 DTM      0.042367
     39 H413        2.3750    2.5940   -2.9520 h1        1 DTM      0.042367
     40 H511       -2.9270    1.4200   -5.9050 h1        1 DTM      0.046867
     41 H512       -2.6810   -0.3120   -5.3360 h1        1 DTM      0.046867
     42 H513       -3.4250    0.9270   -4.2050 h1        1 DTM      0.046867
     43 HCN1       -3.9360   -1.4060   -0.8720 h1        1 DTM      0.039033
     44 HCN2       -3.7840   -0.6520    0.7830 h1        1 DTM      0.039033
     45 HCN3       -2.9080    0.0810   -0.6450 h1        1 DTM      0.039033
     46 HN21        1.9270    1.4730    6.7080 hn        1 DTM      0.429300
     47 HN22        2.4570   -0.1290    6.5980 hn        1 DTM      0.429300
     48 HN41       -1.1410    3.2760    3.7240 hn        1 DTM      0.426300
     49 HN42       -1.9380    2.2600    2.6380 hn        1 DTM      0.426300
@<TRIPOS>BOND
     1    1   19 ar  
     2    1   20 1   
     3    1   21 ar  
     4    2    3 ar  
     5    2   21 ar  
     6    2   22 1   
     7    3    4 ar  
     8    3    7 ar  
     9    4    5 ar  
    10    4   28 1   
    11    5    6 ar  
    12    5   24 1   
    13    6   23 ar  
    14    6   29 1   
    15    7   19 ar  
    16    7   23 ar  
    17    8    9 1   
    18    8   24 1   
    19    8   30 1   
    20    8   31 1   
    21    9   10 ar  
    22    9   14 ar  
    23   10   11 ar  
    24   10   32 1   
    25   11   12 ar  
    26   11   25 1   
    27   12   13 ar  
    28   12   26 1   
    29   13   14 ar  
    30   13   27 1   
    31   14   33 1   
    32   15   25 1   
    33   15   34 1   
    34   15   35 1   
    35   15   36 1   
    36   16   26 1   
    37   16   37 1   
    38   16   38 1   
    39   16   39 1   
    40   17   27 1   
    41   17   40 1   
    42   17   41 1   
    43   17   42 1   
    44   18   24 1   
    45   18   43 1   
    46   18   44 1   
    47   18   45 1   
    48   20   46 1   
    49   20   47 1   
    50   22   48 1   
    51   22   49 1   
@<TRIPOS>SUBSTRUCTURE
     1 DTM         1 TEMP              0 ****  ****    0 ROOT
