@<TRIPOS>MOLECULE
DTN
    6     4     1     0     0
SMALL
bcc


@<TRIPOS>ATOM
      1 S1          1.0640   -0.5220   -0.1110 ss        1 DTN      0.789000
      2 O1          1.8060    0.1110   -1.3500 o         1 DTN     -0.895000
      3 O2          1.8000    0.1130    1.1300 o         1 DTN     -0.895000
      4 S2         -1.0640    0.5220   -0.1180 ss        1 DTN      0.789000
      5 O3         -1.8000   -0.1130   -1.3590 o         1 DTN     -0.895000
      6 O4         -1.8060   -0.1110    1.1210 o         1 DTN     -0.895000
@<TRIPOS>BOND
     1    1    2 1   
     2    1    3 1   
     3    4    5 1   
     4    4    6 1   
@<TRIPOS>SUBSTRUCTURE
     1 DTN         1 TEMP              0 ****  ****    0 ROOT
