@<TRIPOS>MOLECULE
DTN
    6     4     1     0     0
SMALL
bcc


@<TRIPOS>ATOM
      1 S1          0.9630   -0.6900   -0.1420 ss        1 DTN      0.789000
      2 O1          1.7650   -0.1820   -1.4010 o         1 DTN     -0.895000
      3 O2          1.8280   -0.1920    1.0780 o         1 DTN     -0.895000
      4 S2         -0.9630    0.6900   -0.0870 ss        1 DTN      0.789000
      5 O3         -1.8280    0.1930   -1.3070 o         1 DTN     -0.895000
      6 O4         -1.7650    0.1810    1.1710 o         1 DTN     -0.895000
@<TRIPOS>BOND
     1    1    2 1   
     2    1    3 1   
     3    4    5 1   
     4    4    6 1   
@<TRIPOS>SUBSTRUCTURE
     1 DTN         1 TEMP              0 ****  ****    0 ROOT
