@<TRIPOS>MOLECULE
DTO
   19    18     1     0     0
SMALL
bcc


@<TRIPOS>ATOM
      1 S1          2.0980   -0.0370   -2.2530 ss        1 DTO     -0.004300
      2 O1          3.6080   -0.0310   -2.2540 oh        1 DTO     -0.521800
      3 C1          1.5040   -0.0840   -0.5660 c3        1 DTO     -0.104300
      4 C2         -0.0170   -0.0550   -0.5610 c3        1 DTO      0.158100
      5 O2         -0.5090   -1.1440   -1.2930 oh        1 DTO     -0.596800
      6 C3         -0.5170   -0.1390    0.8650 c3        1 DTO      0.100100
      7 O3         -0.8280   -1.4810    1.1770 oh        1 DTO     -0.618800
      8 C4         -1.7530    0.7100    1.0120 c3        1 DTO     -0.035300
      9 S4         -2.3430    0.6080    2.6730 sh        1 DTO     -0.368900
     10 H1          3.9080   -0.0190   -3.1040 ho        1 DTO      0.414000
     11 H12         1.8180   -0.9110   -0.1300 h1        1 DTO      0.094700
     12 H11         1.8430    0.6820   -0.0840 h1        1 DTO      0.094700
     13 H2         -0.3290    0.7800   -0.9680 h1        1 DTO      0.090700
     14 H2O1       -0.8720   -0.8510   -2.0510 ho        1 DTO      0.417000
     15 H3          0.1780    0.1850    1.4750 h1        1 DTO      0.077700
     16 H3O1       -0.6170   -1.6450    2.0260 ho        1 DTO      0.420000
     17 H42        -1.5370    1.6390    0.7990 h1        1 DTO      0.091200
     18 H41        -2.4450    0.3870    0.4000 h1        1 DTO      0.091200
     19 H4S        -3.1920    1.4050    2.8360 hs        1 DTO      0.201800
@<TRIPOS>BOND
     1    1    2 1   
     2    1    3 1   
     3    2   10 1   
     4    3    4 1   
     5    3   11 1   
     6    3   12 1   
     7    4    5 1   
     8    4    6 1   
     9    4   13 1   
    10    5   14 1   
    11    6    7 1   
    12    6    8 1   
    13    6   15 1   
    14    7   16 1   
    15    8    9 1   
    16    8   17 1   
    17    8   18 1   
    18    9   19 1   
@<TRIPOS>SUBSTRUCTURE
     1 DTO         1 TEMP              0 ****  ****    0 ROOT
