@<TRIPOS>MOLECULE
DTO
   19    18     1     0     0
SMALL
bcc


@<TRIPOS>ATOM
      1 S1          0.2630    0.6310    0.2180 ss        1 DTO     -0.024300
      2 O1          1.1180   -0.8270   -0.0250 oh        1 DTO     -0.506800
      3 C1         -0.2500    0.4150    1.8880 c3        1 DTO     -0.105300
      4 C2         -1.7600    0.3270    2.0410 c3        1 DTO      0.156100
      5 O2         -2.3060   -0.8070    1.3850 oh        1 DTO     -0.592800
      6 C3         -2.1400    0.2270    3.5330 c3        1 DTO      0.152100
      7 O3         -1.3490   -0.8020    4.1050 oh        1 DTO     -0.593800
      8 C4         -3.6290   -0.0450    3.6790 c3        1 DTO     -0.034300
      9 S4         -4.1560   -0.0670    5.3670 sh        1 DTO     -0.377900
     10 H1          0.5250   -1.4100   -0.5070 ho        1 DTO      0.411000
     11 H12         0.2210   -0.5120    2.3090 h1        1 DTO      0.105700
     12 H11         0.1230    1.2830    2.4860 h1        1 DTO      0.105700
     13 H2         -2.2450    1.2550    1.6210 h1        1 DTO      0.043700
     14 H2O1       -1.9340   -0.8120    0.4920 ho        1 DTO      0.406000
     15 H3         -1.8800    1.2080    4.0260 h1        1 DTO      0.049700
     16 H3O1       -1.6280   -0.8770    5.0290 ho        1 DTO      0.411000
     17 H42        -4.2000    0.7790    3.1840 h1        1 DTO      0.094700
     18 H41        -3.8830   -1.0020    3.1610 h1        1 DTO      0.094700
     19 H4S        -4.1570   -1.3710    5.5830 hs        1 DTO      0.206800
@<TRIPOS>BOND
     1    1    2 1   
     2    1    3 1   
     3    2   10 1   
     4    3    4 1   
     5    3   11 1   
     6    3   12 1   
     7    4    5 1   
     8    4    6 1   
     9    4   13 1   
    10    5   14 1   
    11    6    7 1   
    12    6    8 1   
    13    6   15 1   
    14    7   16 1   
    15    8    9 1   
    16    8   17 1   
    17    8   18 1   
    18    9   19 1   
@<TRIPOS>SUBSTRUCTURE
     1 DTO         1 TEMP              0 ****  ****    0 ROOT
