@<TRIPOS>MOLECULE
DTO
   19    18     1     0     0
SMALL
bcc


@<TRIPOS>ATOM
      1 S1          0.2180    0.6040    0.1730 ss        1 DTO     -0.024300
      2 O1          1.0500   -0.8640   -0.0860 oh        1 DTO     -0.506800
      3 C1         -0.2600    0.3960    1.8540 c3        1 DTO     -0.105300
      4 C2         -1.7670    0.3260    2.0400 c3        1 DTO      0.156100
      5 O2         -2.3400   -0.8030    1.3990 oh        1 DTO     -0.592800
      6 C3         -2.1150    0.2330    3.5410 c3        1 DTO      0.152100
      7 O3         -1.3230   -0.8030    4.0980 oh        1 DTO     -0.593800
      8 C4         -3.6040   -0.0220    3.7200 c3        1 DTO     -0.034300
      9 S4         -4.0940   -0.0340    5.4190 sh        1 DTO     -0.377900
     10 H1          0.4400   -1.4410   -0.5550 ho        1 DTO      0.411000
     11 H12         0.2090   -0.5360    2.2660 h1        1 DTO      0.105700
     12 H11         0.1360    1.2610    2.4420 h1        1 DTO      0.105700
     13 H2         -2.2510    1.2580    1.6290 h1        1 DTO      0.043700
     14 H2O1       -1.9880   -0.8140    0.4980 ho        1 DTO      0.406000
     15 H3         -1.8330    1.2120    4.0260 h1        1 DTO      0.049700
     16 H3O1       -1.5830   -0.8730    5.0280 ho        1 DTO      0.411000
     17 H42        -4.1760    0.8070    3.2350 h1        1 DTO      0.094700
     18 H41        -3.8790   -0.9780    3.2110 h1        1 DTO      0.094700
     19 H4S        -4.1040   -1.3380    5.6390 hs        1 DTO      0.206800
@<TRIPOS>BOND
     1    1    2 1   
     2    1    3 1   
     3    2   10 1   
     4    3    4 1   
     5    3   11 1   
     6    3   12 1   
     7    4    5 1   
     8    4    6 1   
     9    4   13 1   
    10    5   14 1   
    11    6    7 1   
    12    6    8 1   
    13    6   15 1   
    14    7   16 1   
    15    8    9 1   
    16    8   17 1   
    17    8   18 1   
    18    9   19 1   
@<TRIPOS>SUBSTRUCTURE
     1 DTO         1 TEMP              0 ****  ****    0 ROOT
