@<TRIPOS>MOLECULE
DTO
   19    18     1     0     0
SMALL
bcc


@<TRIPOS>ATOM
      1 S1          0.3370   -0.4210    2.8100 ss        1 DTO      0.008700
      2 O1         -0.3160   -1.9330    2.3670 oh        1 DTO     -0.517800
      3 C1          0.7400    0.2460    1.2370 c3        1 DTO     -0.103300
      4 C2         -0.4560    0.6290    0.3830 c3        1 DTO      0.116100
      5 O2         -1.0390    1.8580    0.7760 oh        1 DTO     -0.584800
      6 C3         -0.0520    0.7220   -1.1070 c3        1 DTO      0.114100
      7 O3         -0.7370    1.7980   -1.7240 oh        1 DTO     -0.591800
      8 C4         -0.3120   -0.5730   -1.8590 c3        1 DTO     -0.024300
      9 S4          1.1150   -1.6040   -1.6520 sh        1 DTO     -0.383900
     10 H1          0.4070   -2.5650    2.4140 ho        1 DTO      0.411000
     11 H12         1.3690    1.1470    1.4480 h1        1 DTO      0.091200
     12 H11         1.3580   -0.4950    0.6620 h1        1 DTO      0.091200
     13 H2         -1.2860   -0.1210    0.5290 h1        1 DTO      0.097700
     14 H2O1       -0.4060    2.5600    0.5770 ho        1 DTO      0.408000
     15 H3          1.0360    1.0090   -1.2040 h1        1 DTO      0.090700
     16 H3O1       -1.6670    1.7420   -1.4660 ho        1 DTO      0.415000
     17 H42        -1.2290   -1.0840   -1.4800 h1        1 DTO      0.075200
     18 H41        -0.4690   -0.3420   -2.9410 h1        1 DTO      0.075200
     19 H4S         0.7010   -2.6700   -2.3150 hs        1 DTO      0.211800
@<TRIPOS>BOND
     1    1    2 1   
     2    1    3 1   
     3    2   10 1   
     4    3    4 1   
     5    3   11 1   
     6    3   12 1   
     7    4    5 1   
     8    4    6 1   
     9    4   13 1   
    10    5   14 1   
    11    6    7 1   
    12    6    8 1   
    13    6   15 1   
    14    7   16 1   
    15    8    9 1   
    16    8   17 1   
    17    8   18 1   
    18    9   19 1   
@<TRIPOS>SUBSTRUCTURE
     1 DTO         1 TEMP              0 ****  ****    0 ROOT
