@<TRIPOS>MOLECULE
DTQ
   37    33     1     0     0
SMALL
bcc


@<TRIPOS>ATOM
      1 N1          0.6300   -0.5950   -1.9780 n1        1 DTQ     -0.240000
      2 C2          2.0060   -0.6420   -2.0320 c1        1 DTQ      0.012000
      3 N3          2.7380   -0.6150   -0.8800 n1        1 DTQ     -0.195000
      4 C4          2.1190   -0.5430    0.3090 c1        1 DTQ     -0.053000
      5 C5          0.7400   -0.4950    0.3720 c1        1 DTQ     -0.053000
      6 C6          0.0050   -0.5220   -0.7850 c1        1 DTQ      0.183000
      7 C7          2.8750   -0.5210    1.4850 c2        1 DTQ     -0.142500
      8 C8          2.2410   -0.4500    2.7170 c1        1 DTQ      0.059000
      9 C9          0.8440   -0.4020    2.7830 c1        1 DTQ      0.059000
     10 C10         0.0960   -0.4230    1.6250 c2        1 DTQ     -0.142500
     11 N12        -1.3680   -0.6320   -1.0420 n3        1 DTQ     -0.249000
     12 C14        -1.9120   -0.2380   -2.3730 c2        1 DTQ      0.088000
     13 C15        -2.1710    1.1120   -2.6540 c2        1 DTQ     -0.142000
     14 C16        -2.7820    1.4790   -3.8790 c1        1 DTQ      0.094000
     15 C17        -3.1250    0.4920   -4.8100 c1        1 DTQ     -0.150500
     16 C18        -2.8640   -0.8630   -4.5290 c1        1 DTQ     -0.150500
     17 C19        -2.2570   -1.2240   -3.3080 c1        1 DTQ     -0.205000
     18 O21        -2.9670    2.8270   -4.1920 oh        1 DTQ     -0.249000
     19 O26         2.9410   -0.7330    3.8460 os        1 DTQ     -0.208500
     20 C27         3.8800    0.2870    4.2290 c3        1 DTQ     -0.078000
     21 O31         0.2030   -0.6350    4.0770 os        1 DTQ     -0.208500
     22 C32        -0.6480    0.4280    4.4990 c3        1 DTQ     -0.078000
     23 H21         2.4400   -0.6970   -2.8610 ha        1 DTQ      0.191000
     24 H71         3.8860   -0.5550    1.4370 ha        1 DTQ      0.155000
     25 H101       -0.8730   -0.3900    1.6730 ha        1 DTQ      0.155000
     26 H121       -1.9440   -0.8840   -0.3650 hn        1 DTQ      0.230000
     27 H151       -1.9260    1.8140   -1.9880 ha        1 DTQ      0.171000
     28 H171       -3.5510    0.7460   -5.6650 ha        1 DTQ      0.135500
     29 H181       -3.1160   -1.5890   -5.2130 ha        1 DTQ      0.135500
     30 H191       -2.0730   -2.1810   -3.1090 ha        1 DTQ      0.133000
     31 H211       -3.8330    3.0260   -4.1520 ho        1 DTQ      0.218000
     32 H271        4.7600    0.0910    3.8330 h1        1 DTQ      0.087500
     33 H272        3.9590    0.3040    5.1910 h1        1 DTQ      0.087500
     34 H273        3.5630    1.1670    3.9080 h1        1 DTQ      0.087500
     35 H321       -0.1320    1.3230    4.4440 h1        1 DTQ      0.087500
     36 H322       -0.9480    0.2620    5.4730 h1        1 DTQ      0.087500
     37 H323       -1.4360    0.4690    3.9160 h1        1 DTQ      0.087500
@<TRIPOS>BOND
     1    1    6 1   
     2    2    3 1   
     3    2   23 1   
     4    4    5 1   
     5    4    7 1   
     6    5   10 1   
     7    6   11 1   
     8    7    8 1   
     9    7   24 1   
    10    8   19 1   
    11    9   10 1   
    12    9   21 1   
    13   10   25 1   
    14   11   12 1   
    15   11   26 1   
    16   12   13 1   
    17   12   17 1   
    18   13   14 1   
    19   13   27 1   
    20   14   18 1   
    21   15   16 1   
    22   15   28 1   
    23   16   29 1   
    24   17   30 1   
    25   18   31 1   
    26   19   20 1   
    27   20   32 1   
    28   20   33 1   
    29   20   34 1   
    30   21   22 1   
    31   22   35 1   
    32   22   36 1   
    33   22   37 1   
@<TRIPOS>SUBSTRUCTURE
     1 DTQ         1 TEMP              0 ****  ****    0 ROOT
