@<TRIPOS>MOLECULE
DTQ
   37    39     1     0     0
SMALL
bcc


@<TRIPOS>ATOM
      1 N1          0.1220    0.1320   -0.2300 nb        1 DTQ     -0.765000
      2 C2          1.4900    0.0870   -0.1070 ca        1 DTQ      0.663900
      3 N3          2.2180    0.0130    1.0060 nb        1 DTQ     -0.713000
      4 C4          1.5100   -0.0000    2.1940 ca        1 DTQ      0.446600
      5 C5          0.0830    0.0630    2.2190 ca        1 DTQ     -0.280600
      6 C6         -0.5900    0.1160    0.9200 ca        1 DTQ      0.693200
      7 C7          2.2250   -0.0750    3.4300 ca        1 DTQ     -0.254300
      8 C8          1.5450   -0.0690    4.6260 ca        1 DTQ      0.145100
      9 C9          0.1090    0.0220    4.6440 ca        1 DTQ      0.108100
     10 C10        -0.5950    0.0870    3.4610 ca        1 DTQ     -0.165000
     11 N12        -1.9900    0.1880    0.8990 nh        1 DTQ     -0.725300
     12 C14        -2.7540    0.1860   -0.2910 ca        1 DTQ      0.174600
     13 C15        -2.4860    1.0920   -1.3340 ca        1 DTQ     -0.199000
     14 C16        -3.3190    1.1050   -2.4600 ca        1 DTQ      0.140100
     15 C17        -4.4260    0.2490   -2.5670 ca        1 DTQ     -0.171000
     16 C18        -4.6850   -0.6330   -1.5240 ca        1 DTQ     -0.079000
     17 C19        -3.8670   -0.6790   -0.3990 ca        1 DTQ     -0.208000
     18 O21        -3.1060    1.9630   -3.5140 oh        1 DTQ     -0.498100
     19 O26         2.1280   -0.1390    5.8710 os        1 DTQ     -0.299900
     20 C27         3.5500   -0.2230    5.8920 c3        1 DTQ      0.106700
     21 O31        -0.4440    0.0330    5.9070 os        1 DTQ     -0.299900
     22 C32        -1.8570    0.1930    5.9720 c3        1 DTQ      0.107700
     23 H21         2.0400    0.1040   -1.0720 h5        1 DTQ      0.053100
     24 H71         3.3240   -0.1340    3.3980 ha        1 DTQ      0.164000
     25 H101       -1.6900    0.1800    3.4970 ha        1 DTQ      0.140000
     26 H121       -2.4300   -0.2850    1.6610 hn        1 DTQ      0.427800
     27 H151       -1.6320    1.7840   -1.2820 ha        1 DTQ      0.155000
     28 H171       -5.0620    0.2860   -3.4610 ha        1 DTQ      0.152000
     29 H181       -5.5490   -1.3130   -1.5910 ha        1 DTQ      0.136000
     30 H191       -4.0980   -1.3950    0.4040 ha        1 DTQ      0.130000
     31 H211       -2.2920    2.4580   -3.3380 ho        1 DTQ      0.423000
     32 H271        3.8980   -1.1480    5.3720 h1        1 DTQ      0.050033
     33 H272        4.0050    0.6850    5.4270 h1        1 DTQ      0.050033
     34 H273        3.7870   -0.2690    6.9860 h1        1 DTQ      0.050033
     35 H321       -2.1700    1.1560    5.5020 h1        1 DTQ      0.046700
     36 H322       -2.3740   -0.6690    5.4850 h1        1 DTQ      0.046700
     37 H323       -2.0620    0.2040    7.0730 h1        1 DTQ      0.046700
@<TRIPOS>BOND
     1    1    2 ar  
     2    1    6 ar  
     3    2    3 ar  
     4    2   23 1   
     5    3    4 ar  
     6    4    5 ar  
     7    4    7 ar  
     8    5    6 ar  
     9    5   10 ar  
    10    6   11 1   
    11    7    8 ar  
    12    7   24 1   
    13    8    9 ar  
    14    8   19 1   
    15    9   10 ar  
    16    9   21 1   
    17   10   25 1   
    18   11   12 1   
    19   11   26 1   
    20   12   13 ar  
    21   12   17 ar  
    22   13   14 ar  
    23   13   27 1   
    24   14   15 ar  
    25   14   18 1   
    26   15   16 ar  
    27   15   28 1   
    28   16   17 ar  
    29   16   29 1   
    30   17   30 1   
    31   18   31 1   
    32   19   20 1   
    33   20   32 1   
    34   20   33 1   
    35   20   34 1   
    36   21   22 1   
    37   22   35 1   
    38   22   36 1   
    39   22   37 1   
@<TRIPOS>SUBSTRUCTURE
     1 DTQ         1 TEMP              0 ****  ****    0 ROOT
