@<TRIPOS>MOLECULE
DTQ
   37    39     1     0     0
SMALL
bcc


@<TRIPOS>ATOM
      1 N1          1.6940   -0.2740   -1.1750 nb        1 DTQ     -0.765000
      2 C2          2.7550   -0.3730   -0.3100 ca        1 DTQ      0.663900
      3 N3          2.7400   -0.3590    1.0230 nb        1 DTQ     -0.713000
      4 C4          1.4990   -0.2050    1.6130 ca        1 DTQ      0.446600
      5 C5          0.3090   -0.0680    0.8340 ca        1 DTQ     -0.280600
      6 C6          0.4690   -0.1270   -0.6200 ca        1 DTQ      0.693200
      7 C7          1.4040   -0.1770    3.0400 ca        1 DTQ     -0.254300
      8 C8          0.1830   -0.0040    3.6510 ca        1 DTQ      0.145100
      9 C9         -1.0080    0.1590    2.8590 ca        1 DTQ      0.108100
     10 C10        -0.9340    0.1270    1.4840 ca        1 DTQ     -0.165000
     11 N12        -0.6720    0.0120   -1.4220 nh        1 DTQ     -0.725300
     12 C14        -0.6510   -0.0850   -2.8320 ca        1 DTQ      0.174600
     13 C15         0.2370    0.6860   -3.6050 ca        1 DTQ     -0.199000
     14 C16         0.1670    0.6140   -5.0020 ca        1 DTQ      0.140100
     15 C17        -0.7800   -0.1930   -5.6520 ca        1 DTQ     -0.171000
     16 C18        -1.6600   -0.9400   -4.8750 ca        1 DTQ     -0.079000
     17 C19        -1.6040   -0.9000   -3.4850 ca        1 DTQ     -0.208000
     18 O21         1.0110    1.3380   -5.8120 oh        1 DTQ     -0.498100
     19 O26        -0.0250    0.0350    5.0100 os        1 DTQ     -0.299900
     20 C27         1.1340   -0.1160    5.8260 c3        1 DTQ      0.106700
     21 O31        -2.1590    0.3380    3.5960 os        1 DTQ     -0.299900
     22 C32        -3.3500    0.5740    2.8530 c3        1 DTQ      0.107700
     23 H21         3.7440   -0.4910   -0.8030 h5        1 DTQ      0.053100
     24 H71         2.3260   -0.2940    3.6290 ha        1 DTQ      0.164000
     25 H101       -1.8520    0.2780    0.8970 ha        1 DTQ      0.140000
     26 H121       -1.5040   -0.3510   -1.0040 hn        1 DTQ      0.427800
     27 H151        0.9870    1.3360   -3.1310 ha        1 DTQ      0.155000
     28 H171       -0.8120   -0.2240   -6.7490 ha        1 DTQ      0.152000
     29 H181       -2.4090   -1.5790   -5.3670 ha        1 DTQ      0.136000
     30 H191       -2.3100   -1.5100   -2.9030 ha        1 DTQ      0.130000
     31 H211        1.6400    1.8090   -5.2460 ho        1 DTQ      0.423000
     32 H271        0.7240   -0.0530    6.8650 h1        1 DTQ      0.050033
     33 H272        1.6130   -1.1100    5.6490 h1        1 DTQ      0.050033
     34 H273        1.8610    0.7100    5.6350 h1        1 DTQ      0.050033
     35 H321       -4.1240    0.7180    3.6490 h1        1 DTQ      0.046700
     36 H322       -3.2520    1.4940    2.2270 h1        1 DTQ      0.046700
     37 H323       -3.6000   -0.3100    2.2170 h1        1 DTQ      0.046700
@<TRIPOS>BOND
     1    1    2 ar  
     2    1    6 ar  
     3    2    3 ar  
     4    2   23 1   
     5    3    4 ar  
     6    4    5 ar  
     7    4    7 ar  
     8    5    6 ar  
     9    5   10 ar  
    10    6   11 1   
    11    7    8 ar  
    12    7   24 1   
    13    8    9 ar  
    14    8   19 1   
    15    9   10 ar  
    16    9   21 1   
    17   10   25 1   
    18   11   12 1   
    19   11   26 1   
    20   12   13 ar  
    21   12   17 ar  
    22   13   14 ar  
    23   13   27 1   
    24   14   15 ar  
    25   14   18 1   
    26   15   16 ar  
    27   15   28 1   
    28   16   17 ar  
    29   16   29 1   
    30   17   30 1   
    31   18   31 1   
    32   19   20 1   
    33   20   32 1   
    34   20   33 1   
    35   20   34 1   
    36   21   22 1   
    37   22   35 1   
    38   22   36 1   
    39   22   37 1   
@<TRIPOS>SUBSTRUCTURE
     1 DTQ         1 TEMP              0 ****  ****    0 ROOT
