@<TRIPOS>MOLECULE
DTQ
   38    40     1     0     0
SMALL
bcc


@<TRIPOS>ATOM
      1 N1          0.3990    1.9320   -0.1020 nb        1 DTQ     -0.691000
      2 C2          1.7280    1.6000   -0.0040 ca        1 DTQ      0.654900
      3 N3          2.3200    0.9420    1.0000 nb        1 DTQ     -0.624000
      4 C4          1.5230    0.5500    2.0470 ca        1 DTQ      0.456600
      5 C5          0.1060    0.8260    2.0640 ca        1 DTQ     -0.214600
      6 C6         -0.3790    1.5470    0.9250 ca        1 DTQ      0.513200
      7 C7          2.1040   -0.1510    3.1530 ca        1 DTQ     -0.253300
      8 C8          1.3240   -0.5540    4.2080 ca        1 DTQ      0.170100
      9 C9         -0.1020   -0.2810    4.2120 ca        1 DTQ      0.186100
     10 C10        -0.6830    0.3910    3.1590 ca        1 DTQ     -0.245000
     11 N12        -1.8160    1.9220    0.8340 n4        1 DTQ     -0.622100
     12 C14        -2.6000    0.9590    0.0460 ca        1 DTQ     -0.003400
     13 C15        -2.4720    0.9600   -1.3530 ca        1 DTQ     -0.194000
     14 C16        -3.2450    0.0520   -2.0900 ca        1 DTQ      0.163100
     15 C17        -4.1300   -0.8400   -1.4470 ca        1 DTQ     -0.103000
     16 C18        -4.2300   -0.8160   -0.0640 ca        1 DTQ     -0.075000
     17 C19        -3.4700    0.0760    0.7000 ca        1 DTQ     -0.143000
     18 O21        -3.1970   -0.0260   -3.4530 oh        1 DTQ     -0.463100
     19 O26         1.7640   -1.2230    5.3150 os        1 DTQ     -0.281900
     20 C27         3.1610   -1.5250    5.3700 c3        1 DTQ      0.100700
     21 O31        -0.7510   -0.7490    5.3180 os        1 DTQ     -0.272900
     22 C32        -2.1550   -0.5060    5.4020 c3        1 DTQ      0.101700
     23 H21         2.3660    1.9240   -0.8580 h5        1 DTQ      0.091100
     24 H71         3.1890   -0.3550    3.1330 ha        1 DTQ      0.188000
     25 H101       -1.7680    0.5640    3.1740 ha        1 DTQ      0.130000
     26 H121       -1.8990    2.8470    0.3850 hn        1 DTQ      0.468300
     27 H151       -1.7800    1.6430   -1.8710 ha        1 DTQ      0.172000
     28 H171       -4.7240   -1.5410   -2.0570 ha        1 DTQ      0.187000
     29 H181       -4.9180   -1.5100    0.4480 ha        1 DTQ      0.171000
     30 H191       -3.5700    0.0650    1.7960 ha        1 DTQ      0.147000
     31 H211       -2.5490    0.6150   -3.7870 ho        1 DTQ      0.441000
     32 H271        3.7630   -0.5850    5.3650 h1        1 DTQ      0.065700
     33 H272        3.4490   -2.1910    4.5210 h1        1 DTQ      0.065700
     34 H273        3.2590   -2.0600    6.3500 h1        1 DTQ      0.065700
     35 H321       -2.4310   -0.9780    6.3810 h1        1 DTQ      0.059367
     36 H322       -2.3630    0.5910    5.4170 h1        1 DTQ      0.059367
     37 H323       -2.6900   -1.0050    4.5580 h1        1 DTQ      0.059367
     38 H122       -2.1940    1.9790    1.7870 hn        1 DTQ      0.468300
@<TRIPOS>BOND
     1    1    2 ar  
     2    1    6 ar  
     3    2    3 ar  
     4    2   23 1   
     5    3    4 ar  
     6    4    5 ar  
     7    4    7 ar  
     8    5    6 ar  
     9    5   10 ar  
    10    6   11 1   
    11    7    8 ar  
    12    7   24 1   
    13    8    9 ar  
    14    8   19 1   
    15    9   10 ar  
    16    9   21 1   
    17   10   25 1   
    18   11   12 1   
    19   11   26 1   
    20   11   38 1   
    21   12   13 ar  
    22   12   17 ar  
    23   13   14 ar  
    24   13   27 1   
    25   14   15 ar  
    26   14   18 1   
    27   15   16 ar  
    28   15   28 1   
    29   16   17 ar  
    30   16   29 1   
    31   17   30 1   
    32   18   31 1   
    33   19   20 1   
    34   20   32 1   
    35   20   33 1   
    36   20   34 1   
    37   21   22 1   
    38   22   35 1   
    39   22   36 1   
    40   22   37 1   
@<TRIPOS>SUBSTRUCTURE
     1 DTQ         1 TEMP              0 ****  ****    0 ROOT
