@<TRIPOS>MOLECULE
DTQ
   37    39     1     0     0
SMALL
bcc


@<TRIPOS>ATOM
      1 N1          0.1250    0.1320   -0.2290 nb        1 DTQ     -0.765000
      2 C2          1.4930    0.0890   -0.1040 ca        1 DTQ      0.663900
      3 N3          2.2200    0.0170    1.0100 nb        1 DTQ     -0.713000
      4 C4          1.5100    0.0040    2.1970 ca        1 DTQ      0.446600
      5 C5          0.0830    0.0650    2.2200 ca        1 DTQ     -0.280600
      6 C6         -0.5890    0.1160    0.9200 ca        1 DTQ      0.693200
      7 C7          2.2230   -0.0680    3.4350 ca        1 DTQ     -0.254300
      8 C8          1.5420   -0.0620    4.6300 ca        1 DTQ      0.145100
      9 C9          0.1050    0.0260    4.6450 ca        1 DTQ      0.108100
     10 C10        -0.5970    0.0880    3.4620 ca        1 DTQ     -0.165000
     11 N12        -1.9890    0.1850    0.8970 nu        1 DTQ     -0.725300
     12 C14        -2.7510    0.1810   -0.2940 ca        1 DTQ      0.174600
     13 C15        -2.4830    1.0870   -1.3370 ca        1 DTQ     -0.199000
     14 C16        -3.3140    1.0970   -2.4640 ca        1 DTQ      0.140100
     15 C17        -4.4200    0.2390   -2.5720 ca        1 DTQ     -0.171000
     16 C18        -4.6790   -0.6430   -1.5280 ca        1 DTQ     -0.079000
     17 C19        -3.8630   -0.6860   -0.4020 ca        1 DTQ     -0.208000
     18 O21        -3.1020    1.9550   -3.5190 oh        1 DTQ     -0.498100
     19 O26         2.1230   -0.1310    5.8750 os        1 DTQ     -0.299900
     20 C27         3.5450   -0.2120    5.8980 c3        1 DTQ      0.106700
     21 O31        -0.4500    0.0370    5.9070 os        1 DTQ     -0.299900
     22 C32        -1.8630    0.1940    5.9710 c3        1 DTQ      0.107700
     23 H21         2.0440    0.1060   -1.0680 h5        1 DTQ      0.053100
     24 H71         3.3220   -0.1250    3.4040 ha        1 DTQ      0.164000
     25 H101       -1.6920    0.1790    3.4950 ha        1 DTQ      0.140000
     26 H121       -2.4290   -0.2880    1.6590 hn        1 DTQ      0.427800
     27 H151       -1.6310    1.7800   -1.2840 ha        1 DTQ      0.155000
     28 H171       -5.0550    0.2750   -3.4670 ha        1 DTQ      0.152000
     29 H181       -5.5420   -1.3230   -1.5960 ha        1 DTQ      0.136000
     30 H191       -4.0930   -1.4020    0.4000 ha        1 DTQ      0.130000
     31 H211       -2.2890    2.4520   -3.3420 ho        1 DTQ      0.423000
     32 H271        3.7800   -0.2570    6.9920 h1        1 DTQ      0.050033
     33 H272        3.8960   -1.1370    5.3800 h1        1 DTQ      0.050033
     34 H273        3.9990    0.6960    5.4330 h1        1 DTQ      0.050033
     35 H321       -2.1780    1.1560    5.4990 h1        1 DTQ      0.046700
     36 H322       -2.3780   -0.6700    5.4830 h1        1 DTQ      0.046700
     37 H323       -2.0700    0.2060    7.0710 h1        1 DTQ      0.046700
@<TRIPOS>BOND
     1    1    2 ar  
     2    1    6 ar  
     3    2    3 ar  
     4    2   23 1   
     5    3    4 ar  
     6    4    5 ar  
     7    4    7 ar  
     8    5    6 ar  
     9    5   10 ar  
    10    6   11 1   
    11    7    8 ar  
    12    7   24 1   
    13    8    9 ar  
    14    8   19 1   
    15    9   10 ar  
    16    9   21 1   
    17   10   25 1   
    18   11   12 1   
    19   11   26 1   
    20   12   13 ar  
    21   12   17 ar  
    22   13   14 ar  
    23   13   27 1   
    24   14   15 ar  
    25   14   18 1   
    26   15   16 ar  
    27   15   28 1   
    28   16   17 ar  
    29   16   29 1   
    30   17   30 1   
    31   18   31 1   
    32   19   20 1   
    33   20   32 1   
    34   20   33 1   
    35   20   34 1   
    36   21   22 1   
    37   22   35 1   
    38   22   36 1   
    39   22   37 1   
@<TRIPOS>SUBSTRUCTURE
     1 DTQ         1 TEMP              0 ****  ****    0 ROOT
