@<TRIPOS>MOLECULE
DTR
   26    27     1     0     0
SMALL
bcc


@<TRIPOS>ATOM
      1 N          -3.5120    2.2900    7.1290 n3        1 DTR     -0.890800
      2 CA         -3.8850    1.2870    6.1340 c3        1 DTR      0.025500
      3 CB         -3.6310    1.7950    4.7040 c3        1 DTR      0.007800
      4 CG         -3.3390    0.7110    3.7560 cc        1 DTR     -0.135400
      5 CD1        -3.8700   -0.5800    3.7740 cd        1 DTR     -0.085100
      6 NE1        -3.3670   -1.3230    2.7000 na        1 DTR     -0.205400
      7 CE2        -2.5120   -0.5090    1.9570 ca        1 DTR     -0.061200
      8 CZ2        -1.7680   -0.7660    0.7980 ca        1 DTR     -0.156000
      9 CH2        -0.9820    0.2580    0.2890 ca        1 DTR     -0.136000
     10 CZ3        -0.9240    1.5160    0.9110 ca        1 DTR     -0.177000
     11 CE3        -1.6550    1.7880    2.0600 ca        1 DTR     -0.085000
     12 CD2        -2.4620    0.7910    2.6040 ca        1 DTR     -0.079800
     13 C          -5.3770    0.8440    6.2710 c         1 DTR      0.884600
     14 O          -6.2360    1.7330    6.5260 o         1 DTR     -0.845800
     15 OXT        -5.6460   -0.3880    6.1510 o         1 DTR     -0.845800
     16 H          -3.7430    1.9190    8.0340 hn        1 DTR      0.330800
     17 HN2        -4.0990    3.0950    6.9920 hn        1 DTR      0.330800
     18 HA         -3.2360    0.3830    6.3160 h1        1 DTR      0.047700
     19 HB2        -4.5450    2.3550    4.3620 hc        1 DTR      0.042700
     20 HB3        -2.7710    2.5200    4.6910 hc        1 DTR      0.042700
     21 HD1        -4.5800   -1.0030    4.5080 h4        1 DTR      0.242000
     22 HE1        -3.6290   -2.2390    2.4630 hn        1 DTR      0.285700
     23 HZ2        -1.8060   -1.7470    0.3070 ha        1 DTR      0.115000
     24 HH2        -0.3900    0.0830   -0.6200 ha        1 DTR      0.109000
     25 HZ3        -0.2860    2.2970    0.4740 ha        1 DTR      0.111000
     26 HE3        -1.6040    2.7730    2.5440 ha        1 DTR      0.130000
@<TRIPOS>BOND
     1    1    2 1   
     2    1   16 1   
     3    1   17 1   
     4    2    3 1   
     5    2   13 1   
     6    2   18 1   
     7    3    4 1   
     8    3   19 1   
     9    3   20 1   
    10    4    5 2   
    11    4   12 1   
    12    5    6 1   
    13    5   21 1   
    14    6    7 1   
    15    6   22 1   
    16    7    8 ar  
    17    7   12 ar  
    18    8    9 ar  
    19    8   23 1   
    20    9   10 ar  
    21    9   24 1   
    22   10   11 ar  
    23   10   25 1   
    24   11   12 ar  
    25   11   26 1   
    26   13   14 1   
    27   13   15 1   
@<TRIPOS>SUBSTRUCTURE
     1 DTR         1 TEMP              0 ****  ****    0 ROOT
