@<TRIPOS>MOLECULE
DTR
   26    22     1     0     0
SMALL
bcc


@<TRIPOS>ATOM
      1 N           0.1230    2.1590   -2.4460 n3        1 DTR     -0.890800
      2 CA          0.9620    1.1550   -1.9400 c3        1 DTR      0.025500
      3 CB          1.0120    1.2520   -0.3810 c3        1 DTR      0.007800
      4 CG          0.5300   -0.0370    0.2170 ce        1 DTR     -0.177000
      5 CD1         1.4340   -1.0780    0.2810 c1        1 DTR      0.225500
      6 NE1         0.8550   -2.0980    0.9920 ne        1 DTR     -0.500400
      7 CE2        -0.4150   -1.6870    1.3710 cg        1 DTR      0.036000
      8 CZ2        -1.4230   -2.3070    2.1610 c1        1 DTR     -0.098500
      9 CH2        -2.6210   -1.6130    2.4480 c1        1 DTR     -0.099000
     10 CZ3        -2.8080   -0.3240    1.9560 c1        1 DTR     -0.099000
     11 CE3        -1.8080    0.2820    1.1760 c1        1 DTR     -0.027500
     12 CD2        -0.6080   -0.4160    0.8890 cg        1 DTR     -0.101300
     13 C           2.3310    1.3330   -2.4960 c         1 DTR      0.884600
     14 O           2.9860    2.4040   -2.2490 o         1 DTR     -0.845800
     15 OXT         2.8110    0.4660   -3.2880 o         1 DTR     -0.845800
     16 H          -0.3780    1.8240   -3.1090 hn        1 DTR      0.330800
     17 HN2         0.6370    2.8580   -2.7710 hn        1 DTR      0.330800
     18 HA          0.5950    0.2300   -2.2120 h1        1 DTR      0.047700
     19 HB2         0.4320    1.9900   -0.0780 hc        1 DTR      0.042200
     20 HB3         1.9280    1.4200   -0.0950 hc        1 DTR      0.042200
     21 HD1         2.3480   -1.0830   -0.1150 DU        1 DTR      0.239000
     22 HE1         1.2230   -2.8680    1.1750 DU        1 DTR      0.239000
     23 HZ2        -1.2850   -3.2140    2.5060 ha        1 DTR      0.057500
     24 HH2        -3.3010   -2.0210    3.0490 ha        1 DTR      0.052500
     25 HZ3        -3.6120    0.1470    2.1470 ha        1 DTR      0.052500
     26 HE3        -1.9490    1.2250    0.8110 ha        1 DTR      0.072500
@<TRIPOS>BOND
     1    1    2 1   
     2    1   16 1   
     3    1   17 1   
     4    2    3 1   
     5    2   13 1   
     6    2   18 1   
     7    3    4 1   
     8    3   19 1   
     9    3   20 1   
    10    4    5 2   
    11    4   12 1   
    12    5    6 2   
    13    6    7 1   
    14    7    8 3   
    15    8   23 1   
    16    9   10 3   
    17    9   24 1   
    18   10   25 1   
    19   11   12 3   
    20   11   26 1   
    21   13   14 1   
    22   13   15 1   
@<TRIPOS>SUBSTRUCTURE
     1 DTR         1 TEMP              0 ****  ****    0 ROOT
