@<TRIPOS>MOLECULE
DTT
   18    17     1     0     0
SMALL
bcc


@<TRIPOS>ATOM
      1 S1          0.0320   -0.3430    0.0540 sh        1 DTT     -0.395900
      2 C1          1.7700    0.0080    0.0450 c3        1 DTT     -0.026300
      3 C2          2.3160   -0.1650    1.4530 c3        1 DTT      0.161100
      4 O2          1.9040    0.8790    2.3210 oh        1 DTT     -0.599800
      5 C3          3.8610   -0.1630    1.4280 c3        1 DTT      0.161100
      6 O3          4.2720    0.8910    0.5720 oh        1 DTT     -0.599800
      7 C4          4.4060   -0.0070    2.8380 c3        1 DTT     -0.026300
      8 S4          6.1450   -0.3550    2.8240 sh        1 DTT     -0.395900
      9 HS1        -0.3680    0.5190   -0.8650 hs        1 DTT      0.213800
     10 H11         1.9770    1.0470   -0.3080 h1        1 DTT      0.088200
     11 H12         2.2910   -0.7000   -0.6440 h1        1 DTT      0.088200
     12 H2          1.9740   -1.1510    1.8820 h1        1 DTT      0.051700
     13 HO2         0.9500    0.9830    2.1930 ho        1 DTT      0.419000
     14 H3          4.2040   -1.1440    0.9870 h1        1 DTT      0.051700
     15 HO3         5.2260    0.9950    0.7010 ho        1 DTT      0.419000
     16 H41         4.1980    1.0280    3.2030 h1        1 DTT      0.088200
     17 H42         3.8860   -0.7230    3.5180 h1        1 DTT      0.088200
     18 HS2         6.5440    0.4960    3.7540 hs        1 DTT      0.213800
@<TRIPOS>BOND
     1    1    2 1   
     2    1    9 1   
     3    2    3 1   
     4    2   10 1   
     5    2   11 1   
     6    3    4 1   
     7    3    5 1   
     8    3   12 1   
     9    4   13 1   
    10    5    6 1   
    11    5    7 1   
    12    5   14 1   
    13    6   15 1   
    14    7    8 1   
    15    7   16 1   
    16    7   17 1   
    17    8   18 1   
@<TRIPOS>SUBSTRUCTURE
     1 DTT         1 TEMP              0 ****  ****    0 ROOT
