@<TRIPOS>MOLECULE
DTT
   18    17     1     0     0
SMALL
bcc


@<TRIPOS>ATOM
      1 S1          0.6040   -2.1770   -1.4190 sh        1 DTT     -0.378900
      2 C1          0.9360   -0.4440   -1.4070 c3        1 DTT     -0.036800
      3 C2         -0.1320    0.3640   -0.6840 c3        1 DTT      0.105600
      4 O2         -0.2990    1.6270   -1.3060 oh        1 DTT     -0.596300
      5 C3          0.1830    0.5660    0.8180 c3        1 DTT      0.105600
      6 O3          0.1950    1.9550    1.1010 oh        1 DTT     -0.596300
      7 C4         -0.8040   -0.1570    1.7200 c3        1 DTT     -0.036800
      8 S4         -0.3770   -1.8330    2.0560 sh        1 DTT     -0.378900
      9 HS1        -0.3180   -2.2220   -2.3660 hs        1 DTT      0.227800
     10 H11         1.0370   -0.0550   -2.4510 h1        1 DTT      0.086450
     11 H12         1.9310   -0.3380   -0.9080 h1        1 DTT      0.086450
     12 H2         -1.1380   -0.1300   -0.8140 h1        1 DTT      0.090200
     13 HO2         0.4990    2.1470   -1.1350 ho        1 DTT      0.415000
     14 H3          1.2340    0.2350    1.0600 h1        1 DTT      0.090200
     15 HO3        -0.6890    2.2990    0.9150 ho        1 DTT      0.415000
     16 H41        -0.8100    0.3420    2.7240 h1        1 DTT      0.086450
     17 H42        -1.8370   -0.0880    1.3000 h1        1 DTT      0.086450
     18 HS2        -0.2160   -2.2790    0.7960 hs        1 DTT      0.227800
@<TRIPOS>BOND
     1    1    2 1   
     2    1    9 1   
     3    2    3 1   
     4    2   10 1   
     5    2   11 1   
     6    3    4 1   
     7    3    5 1   
     8    3   12 1   
     9    4   13 1   
    10    5    6 1   
    11    5    7 1   
    12    5   14 1   
    13    6   15 1   
    14    7    8 1   
    15    7   16 1   
    16    7   17 1   
    17    8   18 1   
@<TRIPOS>SUBSTRUCTURE
     1 DTT         1 TEMP              0 ****  ****    0 ROOT
