@<TRIPOS>MOLECULE
DTU
   18    17     1     0     0
SMALL
bcc


@<TRIPOS>ATOM
      1 S1          0.0400    0.4190    0.1020 sh        1 DTU     -0.392900
      2 C1          1.7740    0.0440    0.0330 c3        1 DTU     -0.030300
      3 C2          2.3160    0.0250    1.4520 c3        1 DTU      0.158100
      4 O2          1.8980   -1.1330    2.1620 oh        1 DTU     -0.605800
      5 C3          3.8610   -0.0260    1.4320 c3        1 DTU      0.158100
      6 O3          4.2790    1.1320    0.7230 oh        1 DTU     -0.605800
      7 C4          4.4030   -0.0450    2.8520 c3        1 DTU     -0.030300
      8 S4          6.1370   -0.4210    2.7830 sh        1 DTU     -0.392900
      9 H1         -0.3580   -0.2050   -0.9930 hs        1 DTU      0.211800
     10 H1C1        2.3090    0.8330   -0.5510 h1        1 DTU      0.086700
     11 H1C2        1.9490   -0.9420   -0.4580 h1        1 DTU      0.086700
     12 H2          1.9810    0.9480    2.0040 h1        1 DTU      0.062700
     13 HA          0.9340   -1.1700    2.0790 ho        1 DTU      0.422000
     14 H3          4.1960   -0.9490    0.8810 h1        1 DTU      0.062700
     15 HB          5.2430    1.1690    0.8060 ho        1 DTU      0.422000
     16 H4C1        3.8680   -0.8340    3.4360 h1        1 DTU      0.086700
     17 H4C2        4.2290    0.9410    3.3430 h1        1 DTU      0.086700
     18 H4          6.5350    0.2040    3.8780 hs        1 DTU      0.211800
@<TRIPOS>BOND
     1    1    2 1   
     2    1    9 1   
     3    2    3 1   
     4    2   10 1   
     5    2   11 1   
     6    3    4 1   
     7    3    5 1   
     8    3   12 1   
     9    4   13 1   
    10    5    6 1   
    11    5    7 1   
    12    5   14 1   
    13    6   15 1   
    14    7    8 1   
    15    7   16 1   
    16    7   17 1   
    17    8   18 1   
@<TRIPOS>SUBSTRUCTURE
     1 DTU         1 TEMP              0 ****  ****    0 ROOT
