@<TRIPOS>MOLECULE
DTU
   18    17     1     0     0
SMALL
bcc


@<TRIPOS>ATOM
      1 S1          0.0300    0.4240    0.1250 sh        1 DTU     -0.392900
      2 C1          1.7700    0.0830    0.0370 c3        1 DTU     -0.030300
      3 C2          2.3160    0.0100    1.4540 c3        1 DTU      0.158100
      4 O2          1.9200   -1.1850    2.1130 oh        1 DTU     -0.605800
      5 C3          3.8610   -0.0110    1.4300 c3        1 DTU      0.158100
      6 O3          4.2580    1.1840    0.7720 oh        1 DTU     -0.605800
      7 C4          4.4070   -0.0840    2.8470 c3        1 DTU     -0.030300
      8 S4          6.1470   -0.4250    2.7600 sh        1 DTU     -0.392900
      9 H1         -0.3580   -0.1570   -0.9970 hs        1 DTU      0.211800
     10 H1C1        2.2910    0.9060   -0.5120 h1        1 DTU      0.086700
     11 H1C2        1.9620   -0.8770   -0.4960 h1        1 DTU      0.086700
     12 H2          1.9650    0.9020    2.0470 h1        1 DTU      0.062700
     13 HA          0.9570   -1.2350    2.0290 ho        1 DTU      0.422000
     14 H3          4.2120   -0.9030    0.8380 h1        1 DTU      0.062700
     15 HB          5.2210    1.2340    0.8560 ho        1 DTU      0.422000
     16 H4C1        3.8860   -0.9070    3.3970 h1        1 DTU      0.086700
     17 H4C2        4.2160    0.8760    3.3810 h1        1 DTU      0.086700
     18 H4          6.5350    0.1550    3.8820 hs        1 DTU      0.211800
@<TRIPOS>BOND
     1    1    2 1   
     2    1    9 1   
     3    2    3 1   
     4    2   10 1   
     5    2   11 1   
     6    3    4 1   
     7    3    5 1   
     8    3   12 1   
     9    4   13 1   
    10    5    6 1   
    11    5    7 1   
    12    5   14 1   
    13    6   15 1   
    14    7    8 1   
    15    7   16 1   
    16    7   17 1   
    17    8   18 1   
@<TRIPOS>SUBSTRUCTURE
     1 DTU         1 TEMP              0 ****  ****    0 ROOT
