@<TRIPOS>MOLECULE
DTU
   18    17     1     0     0
SMALL
bcc


@<TRIPOS>ATOM
      1 S1         -0.3510    0.3730    3.2200 sh        1 DTU     -0.363900
      2 C1         -0.4140   -0.6470    1.7740 c3        1 DTU     -0.032300
      3 C2          0.3740    0.0520    0.6760 c3        1 DTU      0.119100
      4 O2          1.6860   -0.4620    0.5550 oh        1 DTU     -0.580800
      5 C3         -0.3740   -0.0520   -0.6760 c3        1 DTU      0.119100
      6 O3         -1.6860    0.4610   -0.5550 oh        1 DTU     -0.580800
      7 C4          0.4140    0.6470   -1.7740 c3        1 DTU     -0.032300
      8 S4          0.3510   -0.3730   -3.2200 sh        1 DTU     -0.363900
      9 H1         -1.3330   -0.1800    3.9090 hs        1 DTU      0.201800
     10 H1C1       -1.4740   -0.7940    1.4510 h1        1 DTU      0.077700
     11 H1C2        0.0280   -1.6490    1.9900 h1        1 DTU      0.077700
     12 H2          0.5310    1.1410    0.9370 h1        1 DTU      0.095700
     13 HA          1.6150   -1.3950    0.3160 ho        1 DTU      0.404000
     14 H3         -0.5310   -1.1410   -0.9370 h1        1 DTU      0.095700
     15 HB         -1.6150    1.3940   -0.3160 ho        1 DTU      0.404000
     16 H4C1       -0.0280    1.6500   -1.9900 h1        1 DTU      0.077700
     17 H4C2        1.4750    0.7940   -1.4510 h1        1 DTU      0.077700
     18 H4          1.3330    0.1800   -3.9090 hs        1 DTU      0.201800
@<TRIPOS>BOND
     1    1    2 1   
     2    1    9 1   
     3    2    3 1   
     4    2   10 1   
     5    2   11 1   
     6    3    4 1   
     7    3    5 1   
     8    3   12 1   
     9    4   13 1   
    10    5    6 1   
    11    5    7 1   
    12    5   14 1   
    13    6   15 1   
    14    7    8 1   
    15    7   16 1   
    16    7   17 1   
    17    8   18 1   
@<TRIPOS>SUBSTRUCTURE
     1 DTU         1 TEMP              0 ****  ****    0 ROOT
