@<TRIPOS>MOLECULE
DTV
   18    17     1     0     0
SMALL
bcc


@<TRIPOS>ATOM
      1 S1          0.0370    0.3620    0.0480 sh        1 DTV     -0.395900
      2 C1          1.7750    0.0070    0.0420 c3        1 DTV     -0.026300
      3 C2          2.3170    0.1660    1.4530 c3        1 DTV      0.161100
      4 O2          1.8990   -0.8840    2.3100 oh        1 DTV     -0.599800
      5 C3          3.8610    0.1620    1.4330 c3        1 DTV      0.161100
      6 O3          4.2730   -0.8850    0.5690 oh        1 DTV     -0.599800
      7 C4          4.4020   -0.0090    2.8430 c3        1 DTV     -0.026300
      8 S4          6.1420    0.3370    2.8390 sh        1 DTV     -0.395900
      9 H1         -0.3610   -0.4910   -0.8800 hs        1 DTV      0.213800
     10 H1C1        1.9810   -1.0290   -0.3200 h1        1 DTV      0.088200
     11 H1C2        2.3000    0.7200   -0.6390 h1        1 DTV      0.088200
     12 H2          1.9750    1.1490    1.8900 h1        1 DTV      0.051700
     13 HA          0.9450   -0.9850    2.1790 ho        1 DTV      0.419000
     14 H3          4.2080    1.1460    1.0020 h1        1 DTV      0.051700
     15 HB          5.2260   -0.9920    0.7000 ho        1 DTV      0.419000
     16 H4C1        4.1900   -1.0460    3.1980 h1        1 DTV      0.088200
     17 H4C2        3.8810    0.7030    3.5280 h1        1 DTV      0.088200
     18 H4          6.5350   -0.5240    3.7620 hs        1 DTV      0.213800
@<TRIPOS>BOND
     1    1    2 1   
     2    1    9 1   
     3    2    3 1   
     4    2   10 1   
     5    2   11 1   
     6    3    4 1   
     7    3    5 1   
     8    3   12 1   
     9    4   13 1   
    10    5    6 1   
    11    5    7 1   
    12    5   14 1   
    13    6   15 1   
    14    7    8 1   
    15    7   16 1   
    16    7   17 1   
    17    8   18 1   
@<TRIPOS>SUBSTRUCTURE
     1 DTV         1 TEMP              0 ****  ****    0 ROOT
