@<TRIPOS>MOLECULE
DTV
   18    17     1     0     0
SMALL
bcc


@<TRIPOS>ATOM
      1 S1         -3.0230   -0.0500   -1.4050 sh        1 DTV     -0.395900
      2 C1         -1.2550    0.0830   -1.3770 c3        1 DTV     -0.026300
      3 C2         -0.7570   -0.1150    0.0370 c3        1 DTV      0.161100
      4 O2         -1.2550   -1.3300    0.5440 oh        1 DTV     -0.599800
      5 C3          0.7540   -0.1510    0.0380 c3        1 DTV      0.161100
      6 O3          1.1920   -1.4800    0.1840 oh        1 DTV     -0.599800
      7 C4          1.2760    0.6820    1.1870 c3        1 DTV     -0.026300
      8 S4          3.0400    0.5200    1.2800 sh        1 DTV     -0.395900
      9 H1         -3.4200    0.2120   -2.4830 hs        1 DTV      0.213800
     10 H1C1       -0.9900    0.9690   -1.6950 h1        1 DTV      0.088200
     11 H1C2       -0.8680   -0.6020   -1.9580 h1        1 DTV      0.088200
     12 H2         -1.0660    0.6230    0.5980 h1        1 DTV      0.051700
     13 HA         -1.8760   -1.1630    1.1590 ho        1 DTV      0.419000
     14 H3          1.0890    0.2120   -0.8060 h1        1 DTV      0.051700
     15 HB          1.7810   -1.6710   -0.4540 ho        1 DTV      0.419000
     16 H4C1        0.8760    0.3710    2.0230 h1        1 DTV      0.088200
     17 H4C2        1.0420    1.6200    1.0430 h1        1 DTV      0.088200
     18 H4          3.4600    1.2680    2.0860 hs        1 DTV      0.213800
@<TRIPOS>BOND
     1    1    2 1   
     2    1    9 1   
     3    2    3 1   
     4    2   10 1   
     5    2   11 1   
     6    3    4 1   
     7    3    5 1   
     8    3   12 1   
     9    4   13 1   
    10    5    6 1   
    11    5    7 1   
    12    5   14 1   
    13    6   15 1   
    14    7    8 1   
    15    7   16 1   
    16    7   17 1   
    17    8   18 1   
@<TRIPOS>SUBSTRUCTURE
     1 DTV         1 TEMP              0 ****  ****    0 ROOT
