@<TRIPOS>MOLECULE
DTV
   18    17     1     0     0
SMALL
bcc


@<TRIPOS>ATOM
      1 S1          0.0450    0.3490    0.0270 sh        1 DTV     -0.395900
      2 C1          1.7840    0.0000    0.0330 c3        1 DTV     -0.026300
      3 C2          2.3160    0.1650    1.4470 c3        1 DTV      0.161100
      4 O2          1.8950   -0.8840    2.3050 oh        1 DTV     -0.599800
      5 C3          3.8610    0.1640    1.4370 c3        1 DTV      0.161100
      6 O3          4.2810   -0.8850    0.5790 oh        1 DTV     -0.599800
      7 C4          4.3920   -0.0000    2.8510 c3        1 DTV     -0.026300
      8 S4          6.1310    0.3480    2.8570 sh        1 DTV     -0.395900
      9 H1         -0.3450   -0.5110   -0.8990 hs        1 DTV      0.213800
     10 H1C1        1.9960   -1.0370   -0.3250 h1        1 DTV      0.088200
     11 H1C2        2.3110    0.7130   -0.6460 h1        1 DTV      0.088200
     12 H2          1.9690    1.1480    1.8790 h1        1 DTV      0.051700
     13 HA          0.9430   -0.9880    2.1670 ho        1 DTV      0.419000
     14 H3          4.2080    1.1470    1.0050 h1        1 DTV      0.051700
     15 HB          5.2340   -0.9890    0.7170 ho        1 DTV      0.419000
     16 H4C1        4.1800   -1.0370    3.2090 h1        1 DTV      0.088200
     17 H4C2        3.8660    0.7130    3.5300 h1        1 DTV      0.088200
     18 H4          6.5210   -0.5120    3.7830 hs        1 DTV      0.213800
@<TRIPOS>BOND
     1    1    2 1   
     2    1    9 1   
     3    2    3 1   
     4    2   10 1   
     5    2   11 1   
     6    3    4 1   
     7    3    5 1   
     8    3   12 1   
     9    4   13 1   
    10    5    6 1   
    11    5    7 1   
    12    5   14 1   
    13    6   15 1   
    14    7    8 1   
    15    7   16 1   
    16    7   17 1   
    17    8   18 1   
@<TRIPOS>SUBSTRUCTURE
     1 DTV         1 TEMP              0 ****  ****    0 ROOT
