@<TRIPOS>MOLECULE
DTV
   18    17     1     0     0
SMALL
bcc


@<TRIPOS>ATOM
      1 S1          0.5020   -1.1270    2.9900 sh        1 DTV     -0.362400
      2 C1          0.9100   -0.4410    1.4190 c3        1 DTV     -0.033300
      3 C2         -0.2040    0.3220    0.7250 c3        1 DTV      0.113100
      4 O2         -0.5450    1.5310    1.3750 oh        1 DTV     -0.588300
      5 C3          0.1980    0.6360   -0.7370 c3        1 DTV      0.113100
      6 O3         -0.0640    1.9960   -1.0300 oh        1 DTV     -0.588300
      7 C4         -0.5190   -0.2630   -1.7300 c3        1 DTV     -0.033300
      8 S4          0.1490   -1.8960   -1.5800 sh        1 DTV     -0.362400
      9 H1         -0.5130   -1.8960    2.6400 hs        1 DTV      0.206300
     10 H1C1        1.2590   -1.2550    0.7300 h1        1 DTV      0.080200
     11 H1C2        1.7750    0.2390    1.6250 h1        1 DTV      0.080200
     12 H2         -1.1610   -0.2750    0.7510 h1        1 DTV      0.089700
     13 HA          0.2450    2.0860    1.3960 ho        1 DTV      0.414500
     14 H3          1.3150    0.5410   -0.8730 h1        1 DTV      0.089700
     15 HB         -0.9720    2.1870   -0.7560 ho        1 DTV      0.414500
     16 H4C1       -1.6180   -0.2690   -1.5320 h1        1 DTV      0.080200
     17 H4C2       -0.3600    0.1380   -2.7620 h1        1 DTV      0.080200
     18 H4         -0.3970   -2.4420   -2.6530 hs        1 DTV      0.206300
@<TRIPOS>BOND
     1    1    2 1   
     2    1    9 1   
     3    2    3 1   
     4    2   10 1   
     5    2   11 1   
     6    3    4 1   
     7    3    5 1   
     8    3   12 1   
     9    4   13 1   
    10    5    6 1   
    11    5    7 1   
    12    5   14 1   
    13    6   15 1   
    14    7    8 1   
    15    7   16 1   
    16    7   17 1   
    17    8   18 1   
@<TRIPOS>SUBSTRUCTURE
     1 DTV         1 TEMP              0 ****  ****    0 ROOT
