@<TRIPOS>MOLECULE
DTX
   61    65     1     0     0
SMALL
bcc


@<TRIPOS>ATOM
      1 O23         0.6390   -0.2850   -7.1440 o         1 DTX     -0.564500
      2 C23         0.3880    0.0080   -5.9830 c         1 DTX      0.706800
      3 C22         1.2100    0.3580   -4.8010 ce        1 DTX     -0.254200
      4 O21        -0.9590    0.0390   -5.6240 os        1 DTX     -0.420900
      5 C21        -1.0500    0.4080   -4.2240 c3        1 DTX      0.134600
      6 C20         0.3790    0.5910   -3.7560 c2        1 DTX     -0.061400
      7 C17         0.7670    0.9800   -2.3850 c3        1 DTX     -0.019500
      8 C16        -0.0950    2.1170   -1.8190 c3        1 DTX     -0.072400
      9 C13         0.6890   -0.1760   -1.3450 c3        1 DTX     -0.022000
     10 C12         1.8610    0.0180   -0.3800 c3        1 DTX     -0.074400
     11 C11         1.7110   -0.7510    0.9120 c3        1 DTX     -0.077400
     12 C18         0.7710   -1.5450   -1.9860 c3        1 DTX     -0.082100
     13 C14        -0.6670    0.0490   -0.6110 c3        1 DTX      0.161800
     14 C15        -0.8620    1.5760   -0.6220 c3        1 DTX     -0.106400
     15 O14        -1.6620   -0.5670   -1.4380 oh        1 DTX     -0.607800
     16 C8         -0.7570   -0.5910    0.7880 c3        1 DTX     -0.077700
     17 C7         -2.0440   -0.1750    1.4850 c3        1 DTX     -0.077400
     18 C9          0.4660   -0.2950    1.6580 c3        1 DTX     -0.042700
     19 C10         0.3540   -0.9230    3.0580 c3        1 DTX     -0.033000
     20 C1          1.5220   -0.5120    3.9650 c3        1 DTX     -0.071400
     21 C19         0.3860   -2.4480    2.9780 c3        1 DTX     -0.090100
     22 C5         -0.9560   -0.4800    3.7370 c3        1 DTX     -0.054700
     23 C6         -2.1590   -0.7880    2.8630 c3        1 DTX     -0.072400
     24 C4         -0.9600    0.9890    4.1330 c3        1 DTX     -0.068400
     25 C3          0.2340    1.3700    5.0000 c3        1 DTX      0.142100
     26 C2          1.5370    0.9540    4.3300 c3        1 DTX     -0.110400
     27 O32         0.0530    0.7440    6.2650 oh        1 DTX     -0.598800
     28 H22         2.2970    0.3970   -4.8470 ha        1 DTX      0.174000
     29 H211       -1.5740   -0.4250   -3.6890 h1        1 DTX      0.092700
     30 H212       -1.6460    1.3530   -4.1760 h1        1 DTX      0.092700
     31 H17         1.8390    1.3310   -2.4410 hc        1 DTX      0.063700
     32 H161        0.5640    2.9660   -1.5060 hc        1 DTX      0.049200
     33 H162       -0.7990    2.5130   -2.5930 hc        1 DTX      0.049200
     34 H121        1.9590    1.1110   -0.1390 hc        1 DTX      0.043700
     35 H122        2.8050   -0.3010   -0.8950 hc        1 DTX      0.043700
     36 H111        2.6250   -0.5770    1.5370 hc        1 DTX      0.048200
     37 H112        1.6500   -1.8510    0.7020 hc        1 DTX      0.048200
     38 H181        1.7280   -1.6490   -2.5520 hc        1 DTX      0.045033
     39 H182        0.7260   -2.3370   -1.2000 hc        1 DTX      0.045033
     40 H183       -0.0810   -1.7070   -2.6900 hc        1 DTX      0.045033
     41 H151       -0.4650    2.0160    0.3270 hc        1 DTX      0.051700
     42 H152       -1.9480    1.8330   -0.6910 hc        1 DTX      0.051700
     43 H14O       -2.5220   -0.3370   -1.0670 ho        1 DTX      0.402000
     44 HC8        -0.7990   -1.7050    0.6090 hc        1 DTX      0.068700
     45 HC71       -2.9270   -0.5020    0.8750 hc        1 DTX      0.036700
     46 HC72       -2.0890    0.9430    1.5640 hc        1 DTX      0.036700
     47 HC9         0.5310    0.8220    1.8020 hc        1 DTX      0.047700
     48 HC11        1.4390   -1.1060    4.9170 hc        1 DTX      0.046200
     49 HC12        2.4960   -0.7890    3.4860 hc        1 DTX      0.046200
     50 H191        0.1680   -2.8890    3.9810 hc        1 DTX      0.037033
     51 H192       -0.3700   -2.8330    2.2550 hc        1 DTX      0.037033
     52 H193        1.3960   -2.7960    2.6540 hc        1 DTX      0.037033
     53 HC5        -1.0520   -1.0750    4.6930 hc        1 DTX      0.066700
     54 HC61       -2.2700   -1.9010    2.7690 hc        1 DTX      0.044700
     55 HC62       -3.0880   -0.4020    3.3610 hc        1 DTX      0.044700
     56 HC41       -1.9020    1.2060    4.7020 hc        1 DTX      0.049700
     57 HC42       -0.9460    1.6420    3.2230 hc        1 DTX      0.049700
     58 HC3         0.2380    2.4880    5.1590 h1        1 DTX      0.029700
     59 HC21        2.3960    1.1530    5.0240 hc        1 DTX      0.044700
     60 HC22        1.6910    1.5850    3.4160 hc        1 DTX      0.044700
     61 H32O        0.8790    0.8510    6.7510 ho        1 DTX      0.398000
@<TRIPOS>BOND
     1    1    2 2   
     2    2    3 1   
     3    2    4 1   
     4    3    6 2   
     5    3   28 1   
     6    4    5 1   
     7    5    6 1   
     8    5   29 1   
     9    5   30 1   
    10    6    7 1   
    11    7    8 1   
    12    7    9 1   
    13    7   31 1   
    14    8   14 1   
    15    8   32 1   
    16    8   33 1   
    17    9   10 1   
    18    9   12 1   
    19    9   13 1   
    20   10   11 1   
    21   10   34 1   
    22   10   35 1   
    23   11   18 1   
    24   11   36 1   
    25   11   37 1   
    26   12   38 1   
    27   12   39 1   
    28   12   40 1   
    29   13   14 1   
    30   13   15 1   
    31   13   16 1   
    32   14   41 1   
    33   14   42 1   
    34   15   43 1   
    35   16   17 1   
    36   16   18 1   
    37   16   44 1   
    38   17   23 1   
    39   17   45 1   
    40   17   46 1   
    41   18   19 1   
    42   18   47 1   
    43   19   20 1   
    44   19   21 1   
    45   19   22 1   
    46   20   26 1   
    47   20   48 1   
    48   20   49 1   
    49   21   50 1   
    50   21   51 1   
    51   21   52 1   
    52   22   23 1   
    53   22   24 1   
    54   22   53 1   
    55   23   54 1   
    56   23   55 1   
    57   24   25 1   
    58   24   56 1   
    59   24   57 1   
    60   25   26 1   
    61   25   27 1   
    62   25   58 1   
    63   26   59 1   
    64   26   60 1   
    65   27   61 1   
@<TRIPOS>SUBSTRUCTURE
     1 DTX         1 TEMP              0 ****  ****    0 ROOT
