@<TRIPOS>MOLECULE
DTX
   61    64     1     0     0
SMALL
bcc


@<TRIPOS>ATOM
      1 O23         2.7130   -3.4040   -4.0930 o         1 DTX     -0.291000
      2 C23         2.8150   -3.5410   -2.8860 c1        1 DTX      0.322000
      3 C22         2.8220   -2.5060   -1.9350 c1        1 DTX     -0.237000
      4 O21         2.4290   -4.8030   -2.0780 os        1 DTX     -0.260000
      5 C21         2.0110   -4.2530   -0.6270 c3        1 DTX     -0.015000
      6 C20         2.4420   -2.8670   -0.7350 c2        1 DTX     -0.051000
      7 C17         2.8980   -2.2730    0.2710 c3        1 DTX     -0.058000
      8 C16         2.4270   -3.1210    1.4880 c3        1 DTX     -0.147000
      9 C13         1.9570   -0.8880    0.4230 c3        1 DTX     -0.030000
     10 C12         2.0020    0.0640   -0.6080 c3        1 DTX     -0.141000
     11 C11         1.1470    1.2610   -0.3320 c3        1 DTX     -0.151000
     12 C18         2.5320   -0.1510    1.6550 c3        1 DTX     -0.211000
     13 C14         0.5580   -1.3210    0.8380 c3        1 DTX      0.080000
     14 C15         0.7560   -2.6220    1.7630 c3        1 DTX     -0.180000
     15 O14        -0.0590   -1.7970   -0.3490 oh        1 DTX     -0.336000
     16 C8         -0.3530   -0.1970    1.3310 c3        1 DTX     -0.113000
     17 C7         -1.7840   -0.6000    1.6320 c3        1 DTX     -0.157000
     18 C9         -0.2490    0.8950    0.0430 c3        1 DTX     -0.085000
     19 C10        -1.1850    2.2150    0.2060 c3        1 DTX     -0.036000
     20 C1         -1.0500    2.3290   -1.4450 c3        1 DTX     -0.148000
     21 C19        -0.5460    3.3720    1.0030 c3        1 DTX     -0.205000
     22 C5         -2.3670    1.8400    0.5630 c3        1 DTX     -0.096000
     23 C6         -2.5450    0.4760    1.8730 c3        1 DTX     -0.148000
     24 C4         -3.6790    2.6480   -0.4170 c3        1 DTX     -0.150000
     25 C3         -3.5090    2.5990   -1.6750 c3        1 DTX      0.031000
     26 C2         -2.0860    3.0700   -2.0950 c3        1 DTX     -0.192000
     27 O32        -4.5540    3.5100   -2.3530 oh        1 DTX     -0.330000
     28 H22         2.7180   -1.5760   -2.2230 ha        1 DTX      0.174000
     29 H211        2.3070   -4.8610    0.0860 h1        1 DTX      0.133000
     30 H212        1.0410   -4.2350   -0.4770 h1        1 DTX      0.133000
     31 H17         3.8610   -2.1890    0.0780 hc        1 DTX      0.101000
     32 H161        2.9790   -2.9220    2.2780 hc        1 DTX      0.089000
     33 H162        2.4670   -4.0770    1.2740 hc        1 DTX      0.089000
     34 H121        1.6960   -0.3580   -1.4410 hc        1 DTX      0.092500
     35 H122        2.9350    0.3610   -0.7260 hc        1 DTX      0.092500
     36 H111        1.1220    1.8250   -1.1370 hc        1 DTX      0.081500
     37 H112        1.5500    1.7750    0.4050 hc        1 DTX      0.081500
     38 H181        3.2800    0.4250    1.3740 hc        1 DTX      0.080333
     39 H182        2.8540   -0.8110    2.3100 hc        1 DTX      0.080333
     40 H183        1.8310    0.4000    2.0630 hc        1 DTX      0.080333
     41 H151        0.6190   -2.3930    2.7100 hc        1 DTX      0.091500
     42 H152        0.1360   -3.3350    1.4880 hc        1 DTX      0.091500
     43 H14O       -0.6950   -2.3880   -0.1380 ho        1 DTX      0.202000
     44 HC8         0.0430    0.2100    2.1330 hc        1 DTX      0.103000
     45 HC71       -2.1510   -1.0890    0.8620 hc        1 DTX      0.078500
     46 HC72       -1.7950   -1.1870    2.4230 hc        1 DTX      0.078500
     47 HC9        -0.6100    0.4140   -0.7340 hc        1 DTX      0.098000
     48 HC11       -0.1890    2.7560   -1.6540 hc        1 DTX      0.083500
     49 HC12       -1.0430    1.4200   -1.8160 hc        1 DTX      0.083500
     50 H191        0.2470    3.7020    0.5240 hc        1 DTX      0.074333
     51 H192       -1.1980    4.1030    1.1010 hc        1 DTX      0.074333
     52 H193       -0.2790    3.0490    1.8930 hc        1 DTX      0.074333
     53 HC5        -2.4340    2.5280    1.2630 hc        1 DTX      0.097000
     54 HC61       -3.4890    0.1930    1.9060 hc        1 DTX      0.083000
     55 HC62       -2.2970    0.8480    2.7500 hc        1 DTX      0.083000
     56 HC41       -3.7310    3.5930   -0.1470 hc        1 DTX      0.095000
     57 HC42       -4.5380    2.2150   -0.2030 hc        1 DTX      0.095000
     58 HC3        -3.6440    1.6740   -1.9810 h1        1 DTX      0.071000
     59 HC21       -1.9900    2.9620   -3.0690 hc        1 DTX      0.087000
     60 HC22       -1.9860    4.0220   -1.8680 hc        1 DTX      0.087000
     61 H32O       -5.1620    3.0080   -2.7680 ho        1 DTX      0.197000
@<TRIPOS>BOND
     1    1    2 1   
     2    2    4 1   
     3    3    6 1   
     4    3   28 1   
     5    4    5 1   
     6    5    6 1   
     7    5   29 1   
     8    5   30 1   
     9    6    7 1   
    10    7    8 1   
    11    7    9 1   
    12    7   31 1   
    13    8   14 1   
    14    8   32 1   
    15    8   33 1   
    16    9   10 1   
    17    9   12 1   
    18    9   13 1   
    19   10   11 1   
    20   10   34 1   
    21   10   35 1   
    22   11   18 1   
    23   11   36 1   
    24   11   37 1   
    25   12   38 1   
    26   12   39 1   
    27   12   40 1   
    28   13   14 1   
    29   13   15 1   
    30   13   16 1   
    31   14   41 1   
    32   14   42 1   
    33   15   43 1   
    34   16   17 1   
    35   16   18 1   
    36   16   44 1   
    37   17   23 1   
    38   17   45 1   
    39   17   46 1   
    40   18   19 1   
    41   18   47 1   
    42   19   20 1   
    43   19   21 1   
    44   19   22 1   
    45   20   26 1   
    46   20   48 1   
    47   20   49 1   
    48   21   50 1   
    49   21   51 1   
    50   21   52 1   
    51   22   23 1   
    52   22   24 1   
    53   22   53 1   
    54   23   54 1   
    55   23   55 1   
    56   24   25 1   
    57   24   56 1   
    58   24   57 1   
    59   25   26 1   
    60   25   27 1   
    61   25   58 1   
    62   26   59 1   
    63   26   60 1   
    64   27   61 1   
@<TRIPOS>SUBSTRUCTURE
     1 DTX         1 TEMP              0 ****  ****    0 ROOT
