@<TRIPOS>MOLECULE
DTX
   61    65     1     0     0
SMALL
bcc


@<TRIPOS>ATOM
      1 O23        -0.1870   -0.1950    0.1530 o         1 DTX     -0.564500
      2 C23         1.0330   -0.1940    0.2510 c         1 DTX      0.706800
      3 C22         1.9820   -0.0220    1.3760 ce        1 DTX     -0.254200
      4 O21         1.7550   -0.3940   -0.9240 os        1 DTX     -0.420900
      5 C21         3.1690   -0.3640   -0.6040 c3        1 DTX      0.134600
      6 C20         3.2440   -0.1140    0.8890 c2        1 DTX     -0.061400
      7 C17         4.5010   -0.0140    1.6590 c3        1 DTX     -0.019500
      8 C16         5.5220   -1.0950    1.2800 c3        1 DTX     -0.072400
      9 C13         5.2390    1.3480    1.5040 c3        1 DTX     -0.022000
     10 C12         5.8530    1.6760    2.8670 c3        1 DTX     -0.074400
     11 C11         6.9320    2.7310    2.8040 c3        1 DTX     -0.077400
     12 C18         4.3160    2.4670    1.0720 c3        1 DTX     -0.082100
     13 C14         6.3560    1.0690    0.4540 c3        1 DTX      0.161800
     14 C15         6.7370   -0.4060    0.6790 c3        1 DTX     -0.106400
     15 O14         5.7300    1.2120   -0.8270 oh        1 DTX     -0.607800
     16 C8          7.5480    2.0460    0.5050 c3        1 DTX     -0.077700
     17 C7          8.6530    1.5910   -0.4360 c3        1 DTX     -0.077400
     18 C9          8.0810    2.2610    1.9230 c3        1 DTX     -0.042700
     19 C10         9.2820    3.2210    1.9570 c3        1 DTX     -0.033000
     20 C1          9.8900    3.3290    3.3630 c3        1 DTX     -0.071400
     21 C19         8.8630    4.6360    1.5600 c3        1 DTX     -0.090100
     22 C5         10.3830    2.7330    0.9970 c3        1 DTX     -0.054700
     23 C6          9.8380    2.5310   -0.4070 c3        1 DTX     -0.072400
     24 C4         11.0770    1.4660    1.4750 c3        1 DTX     -0.068400
     25 C3         11.6330    1.5950    2.8870 c3        1 DTX      0.142100
     26 C2         10.5480    2.0600    3.8510 c3        1 DTX     -0.110400
     27 O32        12.7280    2.5020    2.8280 oh        1 DTX     -0.598800
     28 H22         1.6410    0.1490    2.3950 ha        1 DTX      0.174000
     29 H211        3.6340    0.4630   -1.2010 h1        1 DTX      0.092700
     30 H212        3.5900   -1.3570   -0.8980 h1        1 DTX      0.092700
     31 H17         4.2230   -0.1420    2.7460 hc        1 DTX      0.063700
     32 H161        5.8150   -1.6700    2.1950 hc        1 DTX      0.049200
     33 H162        5.0850   -1.8270    0.5560 hc        1 DTX      0.049200
     34 H121        5.0350    2.0210    3.5540 hc        1 DTX      0.043700
     35 H122        6.2910    0.7380    3.3050 hc        1 DTX      0.043700
     36 H111        7.2960    2.9290    3.8450 hc        1 DTX      0.048200
     37 H112        6.5120    3.6910    2.4050 hc        1 DTX      0.048200
     38 H181        3.8640    2.2480    0.0740 hc        1 DTX      0.045033
     39 H182        4.8890    3.4230    0.9900 hc        1 DTX      0.045033
     40 H183        3.4950    2.5990    1.8170 hc        1 DTX      0.045033
     41 H151        7.0350   -0.8860   -0.2860 hc        1 DTX      0.051700
     42 H152        7.6080   -0.4700    1.3780 hc        1 DTX      0.051700
     43 H14O        6.3690    0.9270   -1.4900 ho        1 DTX      0.402000
     44 HC8         7.1480    3.0310    0.1270 hc        1 DTX      0.068700
     45 HC71        8.2610    1.5470   -1.4870 hc        1 DTX      0.036700
     46 HC72        8.9850    0.5550   -0.1610 hc        1 DTX      0.036700
     47 HC9         8.4420    1.2670    2.3160 hc        1 DTX      0.047700
     48 HC11       10.6720    4.1370    3.3340 hc        1 DTX      0.046200
     49 HC12        9.1070    3.6510    4.0950 hc        1 DTX      0.046200
     50 H191        8.1990    5.0750    2.3420 hc        1 DTX      0.037033
     51 H192        9.7640    5.2890    1.4580 hc        1 DTX      0.037033
     52 H193        8.3160    4.6400    0.5880 hc        1 DTX      0.037033
     53 HC5        11.1710    3.5400    0.9580 hc        1 DTX      0.066700
     54 HC61       10.6500    2.1220   -1.0640 hc        1 DTX      0.044700
     55 HC62        9.5360    3.5260   -0.8300 hc        1 DTX      0.044700
     56 HC41       11.9210    1.2320    0.7740 hc        1 DTX      0.049700
     57 HC42       10.3660    0.5990    1.4640 hc        1 DTX      0.049700
     58 HC3        12.0260    0.5920    3.2270 h1        1 DTX      0.029700
     59 HC21        9.7900    1.2420    3.9630 hc        1 DTX      0.044700
     60 HC22       10.9980    2.2430    4.8620 hc        1 DTX      0.044700
     61 H32O       12.9730    2.7050    3.7380 ho        1 DTX      0.398000
@<TRIPOS>BOND
     1    1    2 2   
     2    2    3 1   
     3    2    4 1   
     4    3    6 2   
     5    3   28 1   
     6    4    5 1   
     7    5    6 1   
     8    5   29 1   
     9    5   30 1   
    10    6    7 1   
    11    7    8 1   
    12    7    9 1   
    13    7   31 1   
    14    8   14 1   
    15    8   32 1   
    16    8   33 1   
    17    9   10 1   
    18    9   12 1   
    19    9   13 1   
    20   10   11 1   
    21   10   34 1   
    22   10   35 1   
    23   11   18 1   
    24   11   36 1   
    25   11   37 1   
    26   12   38 1   
    27   12   39 1   
    28   12   40 1   
    29   13   14 1   
    30   13   15 1   
    31   13   16 1   
    32   14   41 1   
    33   14   42 1   
    34   15   43 1   
    35   16   17 1   
    36   16   18 1   
    37   16   44 1   
    38   17   23 1   
    39   17   45 1   
    40   17   46 1   
    41   18   19 1   
    42   18   47 1   
    43   19   20 1   
    44   19   21 1   
    45   19   22 1   
    46   20   26 1   
    47   20   48 1   
    48   20   49 1   
    49   21   50 1   
    50   21   51 1   
    51   21   52 1   
    52   22   23 1   
    53   22   24 1   
    54   22   53 1   
    55   23   54 1   
    56   23   55 1   
    57   24   25 1   
    58   24   56 1   
    59   24   57 1   
    60   25   26 1   
    61   25   27 1   
    62   25   58 1   
    63   26   59 1   
    64   26   60 1   
    65   27   61 1   
@<TRIPOS>SUBSTRUCTURE
     1 DTX         1 TEMP              0 ****  ****    0 ROOT
