@<TRIPOS>MOLECULE
DTX
   61    65     1     0     0
SMALL
bcc


@<TRIPOS>ATOM
      1 O23        -0.1680   -0.2140    0.0810 o         1 DTX     -0.564500
      2 C23         1.0490   -0.2090    0.1990 c         1 DTX      0.706800
      3 C22         1.9800   -0.0210    1.3370 ce        1 DTX     -0.254200
      4 O21         1.7920   -0.4230   -0.9620 os        1 DTX     -0.420900
      5 C21         3.2000   -0.3860   -0.6190 c3        1 DTX      0.134600
      6 C20         3.2490   -0.1170    0.8720 c2        1 DTX     -0.061400
      7 C17         4.4940   -0.0040    1.6610 c3        1 DTX     -0.019500
      8 C16         5.5220   -1.0890    1.3130 c3        1 DTX     -0.072400
      9 C13         5.2320    1.3560    1.5000 c3        1 DTX     -0.021000
     10 C12         5.8240    1.7020    2.8690 c3        1 DTX     -0.074400
     11 C11         6.9050    2.7560    2.8090 c3        1 DTX     -0.077400
     12 C18         4.3160    2.4690    1.0400 c3        1 DTX     -0.082100
     13 C14         6.3670    1.0660    0.4720 c3        1 DTX      0.161800
     14 C15         6.7460   -0.4060    0.7210 c3        1 DTX     -0.106400
     15 O14         5.7610    1.1920   -0.8210 oh        1 DTX     -0.607800
     16 C8          7.5550    2.0450    0.5300 c3        1 DTX     -0.078700
     17 C7          8.6740    1.5850   -0.3930 c3        1 DTX     -0.076400
     18 C9          8.0670    2.2740    1.9540 c3        1 DTX     -0.042700
     19 C10         9.2690    3.2330    1.9970 c3        1 DTX     -0.033000
     20 C1          9.8570    3.3520    3.4100 c3        1 DTX     -0.073400
     21 C19         8.8580    4.6440    1.5810 c3        1 DTX     -0.090100
     22 C5         10.3820    2.7340    1.0560 c3        1 DTX     -0.052700
     23 C6          9.8570    2.5250   -0.3540 c3        1 DTX     -0.073400
     24 C4         11.0590    1.4670    1.5570 c3        1 DTX     -0.108400
     25 C3         11.6090    1.6140    2.9700 c3        1 DTX      0.142100
     26 C2         10.5190    2.0940    3.9210 c3        1 DTX     -0.070400
     27 O32        12.6750    2.5540    3.0430 oh        1 DTX     -0.598800
     28 H22         1.6220    0.1630    2.3480 ha        1 DTX      0.175000
     29 H211        3.6730    0.4340   -1.2180 h1        1 DTX      0.092200
     30 H212        3.6270   -1.3820   -0.8930 h1        1 DTX      0.092200
     31 H17         4.1990   -0.1190    2.7450 hc        1 DTX      0.063700
     32 H161        5.0980   -1.8310    0.5930 hc        1 DTX      0.048700
     33 H162        5.8030   -1.6500    2.2410 hc        1 DTX      0.048700
     34 H121        4.9950    2.0570    3.5370 hc        1 DTX      0.044200
     35 H122        6.2550    0.7710    3.3270 hc        1 DTX      0.044200
     36 H111        6.4910    3.7110    2.3910 hc        1 DTX      0.049200
     37 H112        7.2520    2.9680    3.8540 hc        1 DTX      0.049200
     38 H181        3.4820    2.6080    1.7700 hc        1 DTX      0.045367
     39 H182        3.8800    2.2370    0.0370 hc        1 DTX      0.045367
     40 H183        4.8880    3.4250    0.9560 hc        1 DTX      0.045367
     41 H151        7.6060   -0.4600    1.4340 hc        1 DTX      0.051200
     42 H152        7.0580   -0.8980   -0.2330 hc        1 DTX      0.051200
     43 H14O        6.4080    0.8930   -1.4690 ho        1 DTX      0.402000
     44 HC8         7.1590    3.0260    0.1370 hc        1 DTX      0.068700
     45 HC71        8.2960    1.5350   -1.4490 hc        1 DTX      0.037200
     46 HC72        9.0010    0.5500   -0.1080 hc        1 DTX      0.037200
     47 HC9         8.4200    1.2860    2.3660 hc        1 DTX      0.048700
     48 HC11       10.6340    4.1660    3.3890 hc        1 DTX      0.050200
     49 HC12        9.0610    3.6720    4.1300 hc        1 DTX      0.050200
     50 H191        8.1860    5.0930    2.3520 hc        1 DTX      0.037033
     51 H192        8.3220    4.6410    0.6030 hc        1 DTX      0.037033
     52 H193        9.7610    5.2950    1.4830 hc        1 DTX      0.037033
     53 HC5        11.1730    3.5400    1.0240 hc        1 DTX      0.057700
     54 HC61       10.6780    2.1110   -0.9980 hc        1 DTX      0.043200
     55 HC62        9.5620    3.5170   -0.7870 hc        1 DTX      0.043200
     56 HC41       10.3350    0.6120    1.5520 hc        1 DTX      0.044200
     57 HC42       11.8970    1.2040    0.8580 hc        1 DTX      0.044200
     58 HC3        12.0000    0.6130    3.3180 h1        1 DTX      0.029700
     59 HC21        9.7700    1.2710    4.0450 hc        1 DTX      0.049700
     60 HC22       10.9760    2.3010    4.9240 hc        1 DTX      0.049700
     61 H32O       13.2870    2.3390    2.3310 ho        1 DTX      0.398000
@<TRIPOS>BOND
     1    1    2 2   
     2    2    3 1   
     3    2    4 1   
     4    3    6 2   
     5    3   28 1   
     6    4    5 1   
     7    5    6 1   
     8    5   29 1   
     9    5   30 1   
    10    6    7 1   
    11    7    8 1   
    12    7    9 1   
    13    7   31 1   
    14    8   14 1   
    15    8   32 1   
    16    8   33 1   
    17    9   10 1   
    18    9   12 1   
    19    9   13 1   
    20   10   11 1   
    21   10   34 1   
    22   10   35 1   
    23   11   18 1   
    24   11   36 1   
    25   11   37 1   
    26   12   38 1   
    27   12   39 1   
    28   12   40 1   
    29   13   14 1   
    30   13   15 1   
    31   13   16 1   
    32   14   41 1   
    33   14   42 1   
    34   15   43 1   
    35   16   17 1   
    36   16   18 1   
    37   16   44 1   
    38   17   23 1   
    39   17   45 1   
    40   17   46 1   
    41   18   19 1   
    42   18   47 1   
    43   19   20 1   
    44   19   21 1   
    45   19   22 1   
    46   20   26 1   
    47   20   48 1   
    48   20   49 1   
    49   21   50 1   
    50   21   51 1   
    51   21   52 1   
    52   22   23 1   
    53   22   24 1   
    54   22   53 1   
    55   23   54 1   
    56   23   55 1   
    57   24   25 1   
    58   24   56 1   
    59   24   57 1   
    60   25   26 1   
    61   25   27 1   
    62   25   58 1   
    63   26   59 1   
    64   26   60 1   
    65   27   61 1   
@<TRIPOS>SUBSTRUCTURE
     1 DTX         1 TEMP              0 ****  ****    0 ROOT
