@<TRIPOS>MOLECULE
DTY
   23    23     1     0     0
SMALL
bcc


@<TRIPOS>ATOM
      1 N           0.1220   -1.3150    1.9380 n3        1 DTY     -0.886800
      2 CA          1.1120   -1.4560    0.8760 c3        1 DTY      0.020500
      3 C           1.2440   -2.9170    0.3290 c         1 DTY      0.885600
      4 O           0.3310   -3.7440    0.6120 o         1 DTY     -0.842800
      5 CB          0.8340   -0.5100   -0.3070 c3        1 DTY     -0.016100
      6 CG          2.0210    0.3150   -0.6640 ca        1 DTY     -0.081300
      7 CD1         1.9380    1.7080   -0.7150 ca        1 DTY     -0.101000
      8 CD2         3.2380   -0.3160   -0.9750 ca        1 DTY     -0.101000
      9 CE1         3.0450    2.4760   -1.0770 ca        1 DTY     -0.196000
     10 CE2         4.3510    0.4320   -1.3380 ca        1 DTY     -0.196000
     11 CZ          4.2480    1.8320   -1.3880 ca        1 DTY      0.089100
     12 OH          5.3840    2.5290   -1.7590 oh        1 DTY     -0.516100
     13 OXT         2.2680   -3.1960   -0.3580 o         1 DTY     -0.842800
     14 H          -0.7760   -1.5720    1.5630 hn        1 DTY      0.330800
     15 H2          0.3370   -2.0030    2.6390 hn        1 DTY      0.330800
     16 HA          2.1110   -1.1880    1.3280 h1        1 DTY      0.048700
     17 HB2         0.5560   -1.1340   -1.2000 hc        1 DTY      0.044200
     18 HB3        -0.0360    0.1650   -0.0880 hc        1 DTY      0.044200
     19 HD1         0.9930    2.2100   -0.4640 ha        1 DTY      0.167000
     20 HD2         3.2840   -1.4260   -0.9150 ha        1 DTY      0.167000
     21 HE1         2.9750    3.5700   -1.1140 ha        1 DTY      0.124000
     22 HE2         5.3060   -0.0520   -1.5830 ha        1 DTY      0.124000
     23 HH          5.1680    3.4700   -1.7260 ho        1 DTY      0.401000
@<TRIPOS>BOND
     1    1    2 1   
     2    1   14 1   
     3    1   15 1   
     4    2    3 1   
     5    2    5 1   
     6    2   16 1   
     7    3    4 1   
     8    3   13 1   
     9    5    6 1   
    10    5   17 1   
    11    5   18 1   
    12    6    7 ar  
    13    6    8 ar  
    14    7    9 ar  
    15    7   19 1   
    16    8   10 ar  
    17    8   20 1   
    18    9   11 ar  
    19    9   21 1   
    20   10   11 ar  
    21   10   22 1   
    22   11   12 1   
    23   12   23 1   
@<TRIPOS>SUBSTRUCTURE
     1 DTY         1 TEMP              0 ****  ****    0 ROOT
