@<TRIPOS>MOLECULE
DTY
   23    21     1     0     0
SMALL
bcc


@<TRIPOS>ATOM
      1 N          -2.8350   -1.5280    0.3650 n3        1 DTY     -0.319000
      2 CA         -1.8330   -0.8870   -0.3960 c3        1 DTY     -0.127000
      3 C          -2.4030   -0.4830   -1.7150 c2        1 DTY      0.305000
      4 O          -1.8950   -0.9050   -2.7660 o         1 DTY     -0.577500
      5 CB         -1.3370    0.3570    0.3500 c3        1 DTY     -0.102000
      6 CG          0.1640    0.3860    0.3280 c2        1 DTY     -0.074000
      7 CD1         0.8910   -0.4580    1.1650 c1        1 DTY     -0.110000
      8 CD2         0.8400    1.3000   -0.5080 c2        1 DTY     -0.092000
      9 CE1         2.3090   -0.3960    1.1740 c1        1 DTY     -0.229000
     10 CE2         2.2410    1.3600   -0.4980 c1        1 DTY     -0.163000
     11 CZ          2.9740    0.5120    0.3430 c1        1 DTY      0.044000
     12 OH          4.4460    0.5770    0.3520 oh        1 DTY     -0.270000
     13 OXT        -3.4430    0.1980   -1.7580 o         1 DTY     -0.577500
     14 H          -3.3650   -2.0280   -0.1870 hn        1 DTY      0.125500
     15 H2         -3.3550   -0.8870    0.8010 hn        1 DTY      0.125500
     16 HA         -1.0540   -1.5290   -0.5440 h1        1 DTY      0.088000
     17 HB2        -1.6700    1.1280   -0.0750 hc        1 DTY      0.083500
     18 HB3        -1.6520    0.3330    1.2690 hc        1 DTY      0.083500
     19 HD1         0.4130   -1.1070    1.7580 ha        1 DTY      0.121000
     20 HD2         0.3020    1.9150   -1.1480 ha        1 DTY      0.213000
     21 HE1         2.8240   -0.9910    1.7630 ha        1 DTY      0.111000
     22 HE2         2.7190    2.0100   -1.0920 ha        1 DTY      0.137000
     23 HH          4.7190    1.1230    1.0170 ho        1 DTY      0.200000
@<TRIPOS>BOND
     1    1    2 1   
     2    1   14 1   
     3    1   15 1   
     4    2    3 1   
     5    2    5 1   
     6    2   16 1   
     7    3    4 1   
     8    3   13 1   
     9    5    6 1   
    10    5   17 1   
    11    5   18 1   
    12    6    7 1   
    13    6    8 1   
    14    7   19 1   
    15    8   10 1   
    16    8   20 1   
    17    9   11 1   
    18    9   21 1   
    19   10   22 1   
    20   11   12 1   
    21   12   23 1   
@<TRIPOS>SUBSTRUCTURE
     1 DTY         1 TEMP              0 ****  ****    0 ROOT
