@<TRIPOS>MOLECULE
DU
   31    32     1     0     0
SMALL
bcc


@<TRIPOS>ATOM
      1 OP3        -4.8700   -0.9190    3.2560 oh        1 DU      -0.785400
      2 P          -3.8330    0.0380    4.0840 p5        1 DU       1.438800
      3 OP1        -4.4350    0.0860    5.4320 o         1 DU      -0.849000
      4 OP2        -3.4420    1.1940    3.2470 o         1 DU      -0.849000
      5 O5'        -2.5380   -0.9780    4.1240 os        1 DU      -0.585200
      6 C5'        -1.9590   -1.3270    2.9010 c3        1 DU       0.192400
      7 C4'        -0.6570   -0.5500    2.6530 c3        1 DU       0.087100
      8 O4'         0.3740   -1.4870    2.3190 os        1 DU      -0.434600
      9 C3'        -0.7530    0.4790    1.5070 c3        1 DU       0.137100
     10 O3'        -0.7740    1.8070    1.9980 oh        1 DU      -0.646800
     11 C2'         0.5160    0.2840    0.6780 c3        1 DU      -0.105400
     12 C1'         1.2350   -0.9390    1.2880 c3        1 DU       0.331500
     13 N1          1.6060   -1.9650    0.3280 n         1 DU      -0.319400
     14 C2          2.7330   -2.7720    0.6420 c         1 DU       0.719100
     15 O2          3.4960   -2.5680    1.6280 o         1 DU      -0.712100
     16 N3          3.0470   -3.8260   -0.2300 n         1 DU      -0.597500
     17 C4          2.2930   -4.1010   -1.3990 c         1 DU       0.670300
     18 O4          2.6810   -5.0770   -2.0950 o         1 DU      -0.737100
     19 C5          1.1860   -3.2190   -1.6530 ce        1 DU      -0.553300
     20 C6          0.8480   -2.1890   -0.7970 c1        1 DU      -0.089900
     21 H5'        -1.7150   -2.4260    2.9450 h1        1 DU       0.037700
     22 H5''       -2.6940   -1.1420    2.0700 h1        1 DU       0.037700
     23 H4'        -0.3380   -0.0340    3.6020 h1        1 DU       0.057700
     24 H3'        -1.6710    0.2960    0.8850 h1        1 DU       0.053700
     25 HO3'       -1.6340    1.9220    2.4380 ho        1 DU       0.458000
     26 H2'         0.2520    0.1090   -0.3960 hc        1 DU       0.069200
     27 H2''        1.1770    1.1810    0.7500 hc        1 DU       0.069200
     28 H1'         2.1780   -0.6210    1.8300 h2        1 DU       0.057700
     29 H3          3.8240   -4.3970    0.0060 hn        1 DU       0.297500
     30 H5          0.6010   -3.4010   -2.5570 ha        1 DU       0.127000
     31 H6         -5.4290   -1.4160    3.8410 ho        1 DU       0.421000
@<TRIPOS>BOND
     1    1    2 1   
     2    1   31 1   
     3    2    3 1   
     4    2    4 1   
     5    2    5 1   
     6    5    6 1   
     7    6    7 1   
     8    6   21 1   
     9    6   22 1   
    10    7    8 1   
    11    7    9 1   
    12    7   23 1   
    13    8   12 1   
    14    9   10 1   
    15    9   11 1   
    16    9   24 1   
    17   10   25 1   
    18   11   12 1   
    19   11   26 1   
    20   11   27 1   
    21   12   13 1   
    22   12   28 1   
    23   13   14 1   
    24   13   20 2   
    25   14   15 2   
    26   14   16 1   
    27   16   17 1   
    28   16   29 1   
    29   17   18 2   
    30   17   19 1   
    31   19   20 2   
    32   19   30 1   
@<TRIPOS>SUBSTRUCTURE
     1 DU          1 TEMP              0 ****  ****    0 ROOT
