@<TRIPOS>MOLECULE
DU
   31    32     1     0     0
SMALL
bcc


@<TRIPOS>ATOM
      1 OP3         0.0520   -2.2160    4.8340 o         1 DU      -0.922833
      2 P          -0.1750   -2.2300    3.3350 p5        1 DU       1.323900
      3 OP1         0.5490   -3.4140    2.7270 o         1 DU      -0.922833
      4 OP2        -1.6520   -2.3430    3.0510 o         1 DU      -0.922833
      5 O5'         0.3930   -0.8650    2.6930 os        1 DU      -0.577200
      6 C5'         0.3080   -0.6870    1.2550 c3        1 DU       0.206400
      7 C4'         1.6530   -0.2480    0.7220 c3        1 DU       0.062100
      8 O4'         1.7030   -0.4390   -0.8780 os        1 DU      -0.439600
      9 C3'         1.8310    1.0130    0.9440 c3        1 DU       0.122100
     10 O3'         3.2640    1.2990    1.1410 oh        1 DU      -0.662800
     11 C2'         1.3040    1.7340   -0.3550 c3        1 DU      -0.120400
     12 C1'         1.1110    0.6180   -1.3940 c3        1 DU       0.305500
     13 N1         -0.2860    0.3640   -1.5910 n         1 DU      -0.371000
     14 C2         -1.2220    1.4920   -1.6970 c         1 DU       0.797500
     15 O2         -0.8010    2.6430   -1.6580 o         1 DU      -0.706500
     16 N3         -2.6420    1.2450   -1.8780 n         1 DU      -0.598500
     17 C4         -3.1030   -0.0700   -2.1700 c         1 DU       0.718700
     18 O4         -4.2710   -0.2530   -2.4920 o         1 DU      -0.686500
     19 C5         -2.1580   -1.2010   -2.1520 cc        1 DU      -0.373200
     20 C6         -0.7370   -0.9580   -1.8480 cd        1 DU       0.088600
     21 H5'        -0.3600   -0.0080    1.0520 h1        1 DU       0.014700
     22 H5''        0.0510   -1.5330    0.8360 h1        1 DU       0.014700
     23 H4'         2.3670   -0.7670    1.1450 h1        1 DU       0.039700
     24 H3'         1.3140    1.2980    1.7270 h1        1 DU       0.151700
     25 HO3'        3.3580    1.9570    1.7410 ho        1 DU       0.484000
     26 H2'         0.4510    2.1780   -0.1740 hc        1 DU       0.051700
     27 H2''        1.9690    2.3910   -0.6780 hc        1 DU       0.051700
     28 H1'         1.5370    0.8670   -2.2440 h2        1 DU       0.081700
     29 H3         -3.2520    1.9270   -1.7280 hn        1 DU       0.322500
     30 H5         -2.4480   -2.0860   -2.4610 ha        1 DU       0.186000
     31 H6         -0.1070   -1.7110   -1.8060 h4        1 DU       0.281000
@<TRIPOS>BOND
     1    1    2 1   
     2    2    3 1   
     3    2    4 1   
     4    2    5 1   
     5    5    6 1   
     6    6    7 1   
     7    6   21 1   
     8    6   22 1   
     9    7    8 1   
    10    7    9 1   
    11    7   23 1   
    12    8   12 1   
    13    9   10 1   
    14    9   11 1   
    15    9   24 1   
    16   10   25 1   
    17   11   12 1   
    18   11   26 1   
    19   11   27 1   
    20   12   13 1   
    21   12   28 1   
    22   13   14 1   
    23   13   20 1   
    24   14   15 2   
    25   14   16 1   
    26   16   17 1   
    27   16   29 1   
    28   17   18 2   
    29   17   19 1   
    30   19   20 2   
    31   19   30 1   
    32   20   31 1   
@<TRIPOS>SUBSTRUCTURE
     1 DU          1 TEMP              0 ****  ****    0 ROOT
