@<TRIPOS>MOLECULE
DU2
   52    55     1     0     0
SMALL
bcc


@<TRIPOS>ATOM
      1 N1         -3.2510   -0.5980    0.5440 n         1 DU2     -0.405000
      2 C2         -4.6100   -1.0090    0.6170 c         1 DU2      0.806500
      3 O2         -4.9120   -2.1790    0.9430 o         1 DU2     -0.654500
      4 N3         -5.6080   -0.0770    0.3040 n         1 DU2     -0.585500
      5 C4         -5.3260    1.2590   -0.0440 c         1 DU2      0.714700
      6 O4         -6.2730    2.0180   -0.3070 o         1 DU2     -0.610500
      7 C5         -3.9090    1.6320   -0.0610 cc        1 DU2     -0.327200
      8 C6         -2.9480    0.7180    0.2350 cd        1 DU2      0.058600
      9 C1'        -2.2310   -1.5760    0.9460 c3        1 DU2      0.325500
     10 C17         2.2160    0.8090   -0.9490 c3        1 DU2      0.215500
     11 C18         3.0290   -0.2760   -0.2750 ca        1 DU2     -0.131300
     12 C19         3.8980   -1.0600   -1.0400 ca        1 DU2     -0.114000
     13 C2'        -2.1870   -2.8400    0.0610 c3        1 DU2     -0.149400
     14 C20         4.6630   -2.0550   -0.4340 ca        1 DU2     -0.129500
     15 C21         4.5660   -2.2720    0.9410 ca        1 DU2     -0.121000
     16 C22         3.7020   -1.4900    1.7070 ca        1 DU2     -0.129500
     17 C23         2.9350   -0.4940    1.1040 ca        1 DU2     -0.114000
     18 C24         2.7680    2.1480   -0.4990 cc        1 DU2      0.400800
     19 N25         2.5180    2.7550    0.6890 nd        1 DU2     -0.669000
     20 C26         3.2360    3.9460    0.6710 cd        1 DU2      0.295200
     21 C27         3.9370    4.0720   -0.5420 cc        1 DU2     -0.254600
     22 N28         3.6370    2.9280   -1.2880 na        1 DU2     -0.192900
     23 C29         4.1200    2.6220   -2.5920 c3        1 DU2      0.022600
     24 C3'        -0.9130   -2.7070   -0.7780 c3        1 DU2      0.121100
     25 C4'        -0.1440   -1.5180   -0.1730 c3        1 DU2      0.092100
     26 O4'        -0.9250   -0.9920    0.9140 os        1 DU2     -0.417600
     27 O41        -0.0750   -3.8440   -0.6660 oh        1 DU2     -0.587800
     28 C5'         0.1030   -0.4150   -1.2160 c3        1 DU2      0.153800
     29 N5'         0.7750    0.7700   -0.7430 n3        1 DU2     -0.814200
     30 HN3        -6.5530   -0.3900    0.3580 hn        1 DU2      0.351500
     31 H5         -3.6730    2.6720   -0.3150 ha        1 DU2      0.182000
     32 H6         -1.8690    0.9760    0.2440 h4        1 DU2      0.189000
     33 H1'        -2.4250   -1.8320    2.0310 h2        1 DU2      0.100700
     34 H17         2.3710    0.7180   -2.0700 h1        1 DU2      0.061700
     35 H19         3.9810   -0.8940   -2.1250 ha        1 DU2      0.138500
     36 H2'        -2.1270   -3.7380    0.7280 hc        1 DU2      0.086700
     37 H2'A       -3.0970   -2.9480   -0.5770 hc        1 DU2      0.086700
     38 H20         5.3440   -2.6690   -1.0410 ha        1 DU2      0.134000
     39 H21         5.1690   -3.0570    1.4180 ha        1 DU2      0.133000
     40 H22         3.6250   -1.6560    2.7920 ha        1 DU2      0.134000
     41 H23         2.2670    0.1320    1.7160 ha        1 DU2      0.138500
     42 H26         3.2130    4.6360    1.5130 h4        1 DU2      0.042100
     43 H27         4.5970    4.8510   -0.9140 h4        1 DU2      0.176000
     44 H29         3.2760    2.6490   -3.3350 h1        1 DU2      0.054033
     45 H29A        4.8970    3.3730   -2.8940 h1        1 DU2      0.054033
     46 H29B        4.5770    1.5950   -2.6020 h1        1 DU2      0.054033
     47 H3'        -1.1580   -2.5280   -1.8600 h1        1 DU2      0.052700
     48 H4'         0.8250   -1.8530    0.2960 h1        1 DU2      0.110700
     49 HO41       -0.5830   -4.5980   -0.9900 ho        1 DU2      0.409000
     50 H5'         0.6700   -0.8790   -2.0710 h1        1 DU2      0.059200
     51 H5'A       -0.8990   -0.0690   -1.6060 h1        1 DU2      0.059200
     52 HN5'        0.5380    0.9600    0.2140 hn        1 DU2      0.392800
@<TRIPOS>BOND
     1    1    2 1   
     2    1    8 1   
     3    1    9 1   
     4    2    3 2   
     5    2    4 1   
     6    4    5 1   
     7    4   30 1   
     8    5    6 2   
     9    5    7 1   
    10    7    8 2   
    11    7   31 1   
    12    8   32 1   
    13    9   13 1   
    14    9   26 1   
    15    9   33 1   
    16   10   11 1   
    17   10   18 1   
    18   10   29 1   
    19   10   34 1   
    20   11   12 ar  
    21   11   17 ar  
    22   12   14 ar  
    23   12   35 1   
    24   13   24 1   
    25   13   36 1   
    26   13   37 1   
    27   14   15 ar  
    28   14   38 1   
    29   15   16 ar  
    30   15   39 1   
    31   16   17 ar  
    32   16   40 1   
    33   17   41 1   
    34   18   19 2   
    35   18   22 1   
    36   19   20 1   
    37   20   21 2   
    38   20   42 1   
    39   21   22 1   
    40   21   43 1   
    41   22   23 1   
    42   23   44 1   
    43   23   45 1   
    44   23   46 1   
    45   24   25 1   
    46   24   27 1   
    47   24   47 1   
    48   25   26 1   
    49   25   28 1   
    50   25   48 1   
    51   27   49 1   
    52   28   29 1   
    53   28   50 1   
    54   28   51 1   
    55   29   52 1   
@<TRIPOS>SUBSTRUCTURE
     1 DU2         1 TEMP              0 ****  ****    0 ROOT
