@<TRIPOS>MOLECULE
DU2
   53    56     1     0     0
SMALL
bcc


@<TRIPOS>ATOM
      1 N1         -0.4210    0.2270   -0.3950 n         1 DU2     -0.403000
      2 C2          0.7580    1.0400   -0.4430 c         1 DU2      0.813500
      3 O2          1.4320    1.1110   -1.4900 o         1 DU2     -0.621500
      4 N3          1.1350    1.7370    0.7100 n         1 DU2     -0.580500
      5 C4          0.3940    1.7050    1.9060 c         1 DU2      0.710700
      6 O4          0.7760    2.3770    2.8740 o         1 DU2     -0.578500
      7 C5         -0.8120    0.8620    1.8950 cc        1 DU2     -0.281200
      8 C6         -1.1740    0.1920    0.7750 cd        1 DU2      0.022600
      9 C1'        -0.8610   -0.3990   -1.6250 c3        1 DU2      0.311500
     10 C17        -4.9180    3.2980   -1.6970 c3        1 DU2      0.203500
     11 C18        -4.9320    4.4970   -2.6010 ca        1 DU2     -0.198300
     12 C19        -5.9760    4.6470   -3.5240 ca        1 DU2     -0.100000
     13 C2'        -1.6010   -1.7410   -1.4550 c3        1 DU2     -0.156400
     14 C20        -6.0030    5.7600   -4.3620 ca        1 DU2     -0.120500
     15 C21        -4.9920    6.7190   -4.2870 ca        1 DU2     -0.078000
     16 C22        -3.9520    6.5690   -3.3690 ca        1 DU2     -0.120500
     17 C23        -3.9200    5.4600   -2.5230 ca        1 DU2     -0.100000
     18 C24        -4.6520    3.6830   -0.2690 cc        1 DU2      0.292800
     19 N25        -3.4850    3.4820    0.4090 nd        1 DU2     -0.685000
     20 C26        -3.6750    4.0250    1.6660 cd        1 DU2      0.312200
     21 C27        -4.9760    4.5720    1.7630 cc        1 DU2     -0.210600
     22 N28        -5.5920    4.3520    0.5340 na        1 DU2     -0.150900
     23 C29        -6.9180    4.7370    0.1660 c3        1 DU2      0.002600
     24 C3'        -3.0860   -1.4200   -1.6500 c3        1 DU2      0.130100
     25 C4'        -3.0970   -0.0450   -2.3530 c3        1 DU2      0.105100
     26 O4'        -1.7730    0.4770   -2.3420 os        1 DU2     -0.444600
     27 O41        -3.7420   -2.3170   -2.5230 oh        1 DU2     -0.584800
     28 C5'        -4.0430    0.9440   -1.6530 c3        1 DU2      0.088800
     29 N5'        -3.8810    2.3180   -2.2030 n4        1 DU2     -0.748000
     30 HN3         1.9790    2.2700    0.6610 hn        1 DU2      0.364500
     31 H5         -1.3830    0.8090    2.8310 ha        1 DU2      0.185000
     32 H6         -2.0830   -0.4370    0.7390 h4        1 DU2      0.149000
     33 H1'         0.0360   -0.4830   -2.3160 h2        1 DU2      0.151700
     34 H17        -5.9180    2.7630   -1.7500 hx        1 DU2      0.101700
     35 H19        -6.7790    3.8980   -3.5860 ha        1 DU2      0.147000
     36 H2'        -1.2510   -2.4420   -2.2580 hc        1 DU2      0.097700
     37 H2'A       -1.4060   -2.2270   -0.4680 hc        1 DU2      0.097700
     38 H20        -6.8260    5.8810   -5.0860 ha        1 DU2      0.160500
     39 H21        -5.0160    7.5980   -4.9530 ha        1 DU2      0.161000
     40 H22        -3.1550    7.3280   -3.3060 ha        1 DU2      0.160500
     41 H23        -3.1070    5.3540   -1.7860 ha        1 DU2      0.147000
     42 H26        -2.8910    4.0100    2.4270 h4        1 DU2      0.070100
     43 H27        -5.4780    5.0800    2.5870 h4        1 DU2      0.204000
     44 H29        -7.2550    5.5910    0.8130 h1        1 DU2      0.072700
     45 H29A       -6.9340    5.0590   -0.9110 h1        1 DU2      0.072700
     46 H29B       -7.6220    3.8720    0.3060 h1        1 DU2      0.072700
     47 H3'        -3.6310   -1.3870   -0.6670 h1        1 DU2      0.052700
     48 H4'        -3.3850   -0.1690   -3.4370 h1        1 DU2      0.108700
     49 HO41       -3.6080   -3.2100   -2.1760 ho        1 DU2      0.432000
     50 H5'        -3.8240    0.9830   -0.5480 hx        1 DU2      0.112700
     51 H5'A       -5.1050    0.6040   -1.8120 hx        1 DU2      0.112700
     52 HN5'       -2.9330    2.6540   -1.9670 hn        1 DU2      0.468800
     53 H5'2       -3.9500    2.2840   -3.2280 hn        1 DU2      0.468800
@<TRIPOS>BOND
     1    1    2 1   
     2    1    8 1   
     3    1    9 1   
     4    2    3 2   
     5    2    4 1   
     6    4    5 1   
     7    4   30 1   
     8    5    6 2   
     9    5    7 1   
    10    7    8 2   
    11    7   31 1   
    12    8   32 1   
    13    9   13 1   
    14    9   26 1   
    15    9   33 1   
    16   10   11 1   
    17   10   18 1   
    18   10   29 1   
    19   10   34 1   
    20   11   12 ar  
    21   11   17 ar  
    22   12   14 ar  
    23   12   35 1   
    24   13   24 1   
    25   13   36 1   
    26   13   37 1   
    27   14   15 ar  
    28   14   38 1   
    29   15   16 ar  
    30   15   39 1   
    31   16   17 ar  
    32   16   40 1   
    33   17   41 1   
    34   18   19 2   
    35   18   22 1   
    36   19   20 1   
    37   20   21 2   
    38   20   42 1   
    39   21   22 1   
    40   21   43 1   
    41   22   23 1   
    42   23   44 1   
    43   23   45 1   
    44   23   46 1   
    45   24   25 1   
    46   24   27 1   
    47   24   47 1   
    48   25   26 1   
    49   25   28 1   
    50   25   48 1   
    51   27   49 1   
    52   28   29 1   
    53   28   50 1   
    54   28   51 1   
    55   29   52 1   
    56   29   53 1   
@<TRIPOS>SUBSTRUCTURE
     1 DU2         1 TEMP              0 ****  ****    0 ROOT
