@<TRIPOS>MOLECULE
DU2
   53    56     1     0     0
SMALL
bcc


@<TRIPOS>ATOM
      1 N1         -0.4050    0.2380   -0.4240 n         1 DU2     -0.403000
      2 C2          0.7680    1.0580   -0.4750 c         1 DU2      0.813500
      3 O2          1.4350    1.1370   -1.5260 o         1 DU2     -0.621500
      4 N3          1.1490    1.7510    0.6790 ns        1 DU2     -0.580500
      5 C4          0.4160    1.7090    1.8790 c         1 DU2      0.710700
      6 O4          0.8000    2.3780    2.8490 o         1 DU2     -0.578500
      7 C5         -0.7860    0.8590    1.8710 cc        1 DU2     -0.281200
      8 C6         -1.1510    0.1930    0.7500 cd        1 DU2      0.022600
      9 C1'        -0.8500   -0.3840   -1.6540 c3        1 DU2      0.311500
     10 C17        -4.9260    3.2920   -1.6820 c3        1 DU2      0.203500
     11 C18        -4.9520    4.4950   -2.5800 ca        1 DU2     -0.198300
     12 C19        -6.0030    4.6450   -3.4950 ca        1 DU2     -0.100000
     13 C2'        -1.5810   -1.7310   -1.4860 c3        1 DU2     -0.156400
     14 C20        -6.0420    5.7610   -4.3270 ca        1 DU2     -0.120500
     15 C21        -5.0350    6.7260   -4.2540 ca        1 DU2     -0.078000
     16 C22        -3.9880    6.5770   -3.3430 ca        1 DU2     -0.120500
     17 C23        -3.9450    5.4640   -2.5040 ca        1 DU2     -0.100000
     18 C24        -4.6520    3.6710   -0.2540 cc        1 DU2      0.292800
     19 N25        -3.4790    3.4730    0.4150 nd        1 DU2     -0.685000
     20 C26        -3.6640    4.0090    1.6760 cd        1 DU2      0.312200
     21 C27        -4.9670    4.5480    1.7840 cc        1 DU2     -0.210600
     22 N28        -5.5900    4.3310    0.5590 na        1 DU2     -0.150900
     23 C29        -6.9200    4.7110    0.2020 c3        1 DU2      0.002600
     24 C3'        -3.0700   -1.4170   -1.6710 c3        1 DU2      0.130100
     25 C4'        -3.0920   -0.0380   -2.3670 c3        1 DU2      0.105100
     26 O4'        -1.7710    0.4910   -2.3610 os        1 DU2     -0.444600
     27 O41        -3.7260   -2.3130   -2.5440 oh        1 DU2     -0.584800
     28 C5'        -4.0390    0.9420   -1.6560 c3        1 DU2      0.088800
     29 N5'        -3.8870    2.3200   -2.2000 ny        1 DU2     -0.748000
     30 HN3         1.9900    2.2890    0.6270 hn        1 DU2      0.364500
     31 H5         -1.3510    0.7980    2.8110 ha        1 DU2      0.185000
     32 H6         -2.0570   -0.4410    0.7170 h4        1 DU2      0.149000
     33 H1'         0.0430   -0.4600   -2.3510 h2        1 DU2      0.151700
     34 H17        -5.9240    2.7520   -1.7310 hx        1 DU2      0.101700
     35 H19        -6.8030    3.8910   -3.5550 ha        1 DU2      0.147000
     36 H2'        -1.3780   -2.2200   -0.5030 hc        1 DU2      0.097700
     37 H2'A       -1.2330   -2.4250   -2.2950 hc        1 DU2      0.097700
     38 H20        -6.8700    5.8820   -5.0440 ha        1 DU2      0.160500
     39 H21        -5.0680    7.6080   -4.9150 ha        1 DU2      0.161000
     40 H22        -3.1950    7.3390   -3.2820 ha        1 DU2      0.160500
     41 H23        -3.1260    5.3570   -1.7730 ha        1 DU2      0.147000
     42 H26        -2.8750    3.9940    2.4310 h4        1 DU2      0.070100
     43 H27        -5.4650    5.0500    2.6150 h4        1 DU2      0.204000
     44 H29        -7.2580    5.5600    0.8550 h1        1 DU2      0.072700
     45 H29A       -7.6200    3.8420    0.3420 h1        1 DU2      0.072700
     46 H29B       -6.9450    5.0380   -0.8740 h1        1 DU2      0.072700
     47 H3'        -3.6080   -1.3920   -0.6840 h1        1 DU2      0.052700
     48 H4'        -3.3860   -0.1580   -3.4500 h1        1 DU2      0.108700
     49 HO41       -3.5850   -3.2070   -2.2030 ho        1 DU2      0.432000
     50 H5'        -3.8130    0.9770   -0.5520 hx        1 DU2      0.112700
     51 H5'A       -5.1000    0.5970   -1.8100 hx        1 DU2      0.112700
     52 HN5'       -2.9400    2.6600   -1.9690 hn        1 DU2      0.468800
     53 H5'2       -3.9630    2.2910   -3.2250 hn        1 DU2      0.468800
@<TRIPOS>BOND
     1    1    2 1   
     2    1    8 1   
     3    1    9 1   
     4    2    3 2   
     5    2    4 1   
     6    4    5 1   
     7    4   30 1   
     8    5    6 2   
     9    5    7 1   
    10    7    8 2   
    11    7   31 1   
    12    8   32 1   
    13    9   13 1   
    14    9   26 1   
    15    9   33 1   
    16   10   11 1   
    17   10   18 1   
    18   10   29 1   
    19   10   34 1   
    20   11   12 ar  
    21   11   17 ar  
    22   12   14 ar  
    23   12   35 1   
    24   13   24 1   
    25   13   36 1   
    26   13   37 1   
    27   14   15 ar  
    28   14   38 1   
    29   15   16 ar  
    30   15   39 1   
    31   16   17 ar  
    32   16   40 1   
    33   17   41 1   
    34   18   19 2   
    35   18   22 1   
    36   19   20 1   
    37   20   21 2   
    38   20   42 1   
    39   21   22 1   
    40   21   43 1   
    41   22   23 1   
    42   23   44 1   
    43   23   45 1   
    44   23   46 1   
    45   24   25 1   
    46   24   27 1   
    47   24   47 1   
    48   25   26 1   
    49   25   28 1   
    50   25   48 1   
    51   27   49 1   
    52   28   29 1   
    53   28   50 1   
    54   28   51 1   
    55   29   52 1   
    56   29   53 1   
@<TRIPOS>SUBSTRUCTURE
     1 DU2         1 TEMP              0 ****  ****    0 ROOT
