@<TRIPOS>MOLECULE
DU2
   53    56     1     0     0
SMALL
bcc


@<TRIPOS>ATOM
      1 N1         -0.4180    0.2260   -0.4280 n         1 DU2     -0.403000
      2 C2          0.7590    1.0400   -0.4750 c         1 DU2      0.813500
      3 O2          1.4280    1.1190   -1.5250 o         1 DU2     -0.621500
      4 N3          1.1420    1.7280    0.6810 n         1 DU2     -0.580500
      5 C4          0.4060    1.6860    1.8810 c         1 DU2      0.710700
      6 O4          0.7930    2.3510    2.8520 o         1 DU2     -0.578500
      7 C5         -0.7990    0.8420    1.8690 cc        1 DU2     -0.281200
      8 C6         -1.1650    0.1800    0.7450 cd        1 DU2      0.022600
      9 C1'        -0.8640   -0.3910   -1.6610 c3        1 DU2      0.311500
     10 C17        -4.9210    3.3070   -1.6810 c3        1 DU2      0.203500
     11 C18        -4.9400    4.5130   -2.5750 ca        1 DU2     -0.198300
     12 C19        -5.9900    4.6710   -3.4890 ca        1 DU2     -0.100000
     13 C2'        -1.6030   -1.7350   -1.4980 c3        1 DU2     -0.156400
     14 C20        -6.0230    5.7900   -4.3180 ca        1 DU2     -0.120500
     15 C21        -5.0100    6.7490   -4.2420 ca        1 DU2     -0.078000
     16 C22        -3.9650    6.5910   -3.3310 ca        1 DU2     -0.120500
     17 C23        -3.9270    5.4760   -2.4950 ca        1 DU2     -0.100000
     18 C24        -4.6450    3.6800   -0.2510 cc        1 DU2      0.292800
     19 N25        -3.4730    3.4740    0.4180 nd        1 DU2     -0.685000
     20 C26        -3.6550    4.0060    1.6800 cd        1 DU2      0.312200
     21 C27        -4.9560    4.5520    1.7900 cc        1 DU2     -0.210600
     22 N28        -5.5800    4.3420    0.5640 na        1 DU2     -0.150900
     23 C29        -6.9080    4.7300    0.2080 c3        1 DU2      0.002600
     24 C3'        -3.0890   -1.4120   -1.6830 c3        1 DU2      0.130100
     25 C4'        -3.1040   -0.0310   -2.3750 c3        1 DU2      0.105100
     26 O4'        -1.7800    0.4910   -2.3660 os        1 DU2     -0.444600
     27 O41        -3.7490   -2.3020   -2.5600 oh        1 DU2     -0.584800
     28 C5'        -4.0460    0.9520   -1.6620 c3        1 DU2      0.088800
     29 N5'        -3.8870    2.3300   -2.2010 n4        1 DU2     -0.748000
     30 HN3         1.9860    2.2620    0.6320 hn        1 DU2      0.364500
     31 H5         -1.3650    0.7800    2.8070 ha        1 DU2      0.185000
     32 H6         -2.0740   -0.4490    0.7090 h4        1 DU2      0.149000
     33 H1'         0.0290   -0.4680   -2.3570 h2        1 DU2      0.151700
     34 H17        -5.9220    2.7720   -1.7310 hx        1 DU2      0.101700
     35 H19        -6.7940    3.9220   -3.5520 ha        1 DU2      0.147000
     36 H2'        -1.2570   -2.4280   -2.3090 hc        1 DU2      0.097700
     37 H2'A       -1.4030   -2.2280   -0.5160 hc        1 DU2      0.097700
     38 H20        -6.8500    5.9180   -5.0350 ha        1 DU2      0.160500
     39 H21        -5.0390    7.6330   -4.9000 ha        1 DU2      0.161000
     40 H22        -3.1670    7.3490   -3.2670 ha        1 DU2      0.160500
     41 H23        -3.1100    5.3620   -1.7640 ha        1 DU2      0.147000
     42 H26        -2.8660    3.9850    2.4360 h4        1 DU2      0.070100
     43 H27        -5.4520    5.0540    2.6220 h4        1 DU2      0.204000
     44 H29        -6.9310    5.0610   -0.8670 h1        1 DU2      0.072700
     45 H29A       -7.6120    3.8640    0.3450 h1        1 DU2      0.072700
     46 H29B       -7.2410    5.5790    0.8640 h1        1 DU2      0.072700
     47 H3'        -3.6290   -1.3880   -0.6970 h1        1 DU2      0.052700
     48 H4'        -3.3980   -0.1460   -3.4580 h1        1 DU2      0.108700
     49 HO41       -3.6130   -3.1970   -2.2210 ho        1 DU2      0.432000
     50 H5'        -3.8210    0.9820   -0.5570 hx        1 DU2      0.112700
     51 H5'A       -5.1090    0.6130   -1.8170 hx        1 DU2      0.112700
     52 HN5'       -2.9380    2.6640   -1.9690 hn        1 DU2      0.468800
     53 H5'2       -3.9630    2.3050   -3.2260 hn        1 DU2      0.468800
@<TRIPOS>BOND
     1    1    2 1   
     2    1    8 1   
     3    1    9 1   
     4    2    3 2   
     5    2    4 1   
     6    4    5 1   
     7    4   30 1   
     8    5    6 2   
     9    5    7 1   
    10    7    8 2   
    11    7   31 1   
    12    8   32 1   
    13    9   13 1   
    14    9   26 1   
    15    9   33 1   
    16   10   11 1   
    17   10   18 1   
    18   10   29 1   
    19   10   34 1   
    20   11   12 ar  
    21   11   17 ar  
    22   12   14 ar  
    23   12   35 1   
    24   13   24 1   
    25   13   36 1   
    26   13   37 1   
    27   14   15 ar  
    28   14   38 1   
    29   15   16 ar  
    30   15   39 1   
    31   16   17 ar  
    32   16   40 1   
    33   17   41 1   
    34   18   19 2   
    35   18   22 1   
    36   19   20 1   
    37   20   21 2   
    38   20   42 1   
    39   21   22 1   
    40   21   43 1   
    41   22   23 1   
    42   23   44 1   
    43   23   45 1   
    44   23   46 1   
    45   24   25 1   
    46   24   27 1   
    47   24   47 1   
    48   25   26 1   
    49   25   28 1   
    50   25   48 1   
    51   27   49 1   
    52   28   29 1   
    53   28   50 1   
    54   28   51 1   
    55   29   52 1   
    56   29   53 1   
@<TRIPOS>SUBSTRUCTURE
     1 DU2         1 TEMP              0 ****  ****    0 ROOT
