@<TRIPOS>MOLECULE
DU3
   53    56     1     0     0
SMALL
bcc


@<TRIPOS>ATOM
      1 N1         -0.6890    0.2850   -0.0920 n         1 DU3     -0.405000
      2 C2          0.5030    1.0640    0.0680 c         1 DU3      0.810500
      3 O2          1.3370    1.1350   -0.8570 o         1 DU3     -0.617500
      4 N3          0.7040    1.7360    1.2780 ns        1 DU3     -0.582500
      5 C4         -0.2180    1.6990    2.3410 c         1 DU3      0.707700
      6 O4          0.0170    2.3490    3.3700 o         1 DU3     -0.575500
      7 C5         -1.4230    0.8830    2.1220 cc        1 DU3     -0.286200
      8 C6         -1.6130    0.2380    0.9460 cd        1 DU3      0.018600
      9 C1'        -0.9360   -0.3170   -1.3870 c3        1 DU3      0.311500
     10 C17        -4.7430    3.5090   -1.8580 c3        1 DU3      0.261100
     11 C18        -4.2810    3.9270   -0.4930 ca        1 DU3     -0.164300
     12 C19        -5.0760    3.6100    0.6160 ca        1 DU3     -0.110250
     13 C2'        -1.7200   -1.6440   -1.3610 c3        1 DU3     -0.156400
     14 C20        -4.6890    4.0200    1.8910 ca        1 DU3     -0.114250
     15 C21        -3.5060    4.7390    2.0670 ca        1 DU3     -0.084500
     16 C22        -2.7110    5.0540    0.9640 ca        1 DU3     -0.114250
     17 C23        -3.0980    4.6530   -0.3140 ca        1 DU3     -0.110250
     18 C24        -4.8920    4.6590   -2.8150 ca        1 DU3     -0.164300
     19 C25        -3.7980    5.2350   -3.4730 ca        1 DU3     -0.110250
     20 C26        -3.9920    6.3110   -4.3370 ca        1 DU3     -0.114250
     21 C27        -5.2740    6.8240   -4.5440 ca        1 DU3     -0.084500
     22 C28        -6.3650    6.2540   -3.8870 ca        1 DU3     -0.114250
     23 C29        -6.1780    5.1710   -3.0280 ca        1 DU3     -0.110250
     24 C3'        -3.1500   -1.2850   -1.7810 c3        1 DU3      0.131100
     25 O3'        -3.6790   -2.1550   -2.7600 oh        1 DU3     -0.582800
     26 C4'        -3.0190    0.0990   -2.4560 c3        1 DU3      0.104100
     27 O4'        -1.7040    0.5910   -2.2230 os        1 DU3     -0.447600
     28 C5'        -4.0400    1.1030   -1.9010 c3        1 DU3      0.089800
     29 N5'        -3.7980    2.4690   -2.4390 ny        1 DU3     -0.763000
     30 H5         -2.1320    0.8200    2.9580 ha        1 DU3      0.187000
     31 H6         -2.5130   -0.3780    0.7580 h4        1 DU3      0.151000
     32 H1'         0.0580   -0.4110   -1.9260 h2        1 DU3      0.152700
     33 H17        -5.7490    2.9900   -1.7650 hx        1 DU3      0.099700
     34 H19        -6.0180    3.0540    0.4870 ha        1 DU3      0.135250
     35 H2'        -1.2630   -2.3390   -2.1130 hc        1 DU3      0.098700
     36 H2'A       -1.6930   -2.1500   -0.3660 hc        1 DU3      0.098700
     37 H20        -5.3230    3.7810    2.7600 ha        1 DU3      0.158250
     38 H21        -3.2010    5.0630    3.0760 ha        1 DU3      0.162000
     39 H22        -1.7810    5.6290    1.1000 ha        1 DU3      0.158250
     40 H23        -2.4800    4.9340   -1.1810 ha        1 DU3      0.135250
     41 H25        -2.7750    4.8640   -3.3130 ha        1 DU3      0.135250
     42 H26        -3.1290    6.7620   -4.8530 ha        1 DU3      0.158250
     43 H27        -5.4230    7.6780   -5.2230 ha        1 DU3      0.162000
     44 H28        -7.3780    6.6580   -4.0440 ha        1 DU3      0.158250
     45 H29        -7.0450    4.7310   -2.5120 ha        1 DU3      0.135250
     46 H3'        -3.8410   -1.2500   -0.8940 h1        1 DU3      0.051700
     47 HO3'       -3.6330   -3.0530   -2.4050 ho        1 DU3      0.433000
     48 H4'        -3.1320   -0.0070   -3.5740 h1        1 DU3      0.112700
     49 H5'        -5.0770    0.7700   -2.1920 hx        1 DU3      0.108700
     50 H5'A       -3.9690    1.1620   -0.7780 hx        1 DU3      0.108700
     51 HN5'       -2.8260    2.7340   -2.2210 hn        1 DU3      0.458300
     52 HN3         1.5650    2.2330    1.3820 hn        1 DU3      0.365500
     53 H5'2       -3.9020    2.4600   -3.4610 hn        1 DU3      0.458300
@<TRIPOS>BOND
     1    1    2 1   
     2    1    8 1   
     3    1    9 1   
     4    2    3 2   
     5    2    4 1   
     6    4    5 1   
     7    4   52 1   
     8    5    6 2   
     9    5    7 1   
    10    7    8 2   
    11    7   30 1   
    12    8   31 1   
    13    9   13 1   
    14    9   27 1   
    15    9   32 1   
    16   10   11 1   
    17   10   18 1   
    18   10   29 1   
    19   10   33 1   
    20   11   12 ar  
    21   11   17 ar  
    22   12   14 ar  
    23   12   34 1   
    24   13   24 1   
    25   13   35 1   
    26   13   36 1   
    27   14   15 ar  
    28   14   37 1   
    29   15   16 ar  
    30   15   38 1   
    31   16   17 ar  
    32   16   39 1   
    33   17   40 1   
    34   18   19 ar  
    35   18   23 ar  
    36   19   20 ar  
    37   19   41 1   
    38   20   21 ar  
    39   20   42 1   
    40   21   22 ar  
    41   21   43 1   
    42   22   23 ar  
    43   22   44 1   
    44   23   45 1   
    45   24   25 1   
    46   24   26 1   
    47   24   46 1   
    48   25   47 1   
    49   26   27 1   
    50   26   28 1   
    51   26   48 1   
    52   28   29 1   
    53   28   49 1   
    54   28   50 1   
    55   29   51 1   
    56   29   53 1   
@<TRIPOS>SUBSTRUCTURE
     1 DU3         1 TEMP              0 ****  ****    0 ROOT
