@<TRIPOS>MOLECULE
DU3
   52    51     1     0     0
SMALL
bcc


@<TRIPOS>ATOM
      1 N1          3.2100   -2.8200    0.1720 n         1 DU3     -0.283000
      2 C2          3.4790   -2.7640   -1.2670 c2        1 DU3      0.403000
      3 O2          2.5680   -2.9920   -2.0740 o         1 DU3     -0.362000
      4 N3          4.8400   -2.5210   -1.7510 n         1 DU3     -0.366000
      5 C4          5.8930   -2.3140   -0.8300 c2        1 DU3      0.353000
      6 O4          7.0220   -2.0510   -1.2360 o         1 DU3     -0.333000
      7 C5          5.6270   -2.3730    0.6150 c2        1 DU3     -0.295000
      8 C6          4.2600   -2.6100    1.0980 c2        1 DU3      0.043000
      9 C1'         1.9320   -3.1830    0.6330 c3        1 DU3      0.153000
     10 C17        -1.9980    0.9030   -0.5480 c3        1 DU3      0.061000
     11 C18        -3.3310    1.5520   -0.0650 c2        1 DU3     -0.079500
     12 C19        -3.4780    1.9330    1.2610 c2        1 DU3     -0.119000
     13 C2'         1.6380   -2.5260    1.7110 c3        1 DU3     -0.234000
     14 C20        -4.6830    2.5410    1.6950 c1        1 DU3     -0.130500
     15 C21        -5.7100    2.7520    0.8010 c1        1 DU3     -0.129750
     16 C22        -5.5620    2.3650   -0.5480 c1        1 DU3     -0.129750
     17 C23        -4.3770    1.7680   -0.9760 c1        1 DU3     -0.112500
     18 C24        -0.9950    2.0280   -0.9710 c2        1 DU3     -0.079500
     19 C25        -0.6420    2.1760   -2.3100 c2        1 DU3     -0.119000
     20 C26         0.1840    3.2160   -2.6970 c1        1 DU3     -0.130500
     21 C27         0.6590    4.1090   -1.7540 c1        1 DU3     -0.129750
     22 C28         0.3090    3.9620   -0.4240 c1        1 DU3     -0.129750
     23 C29        -0.5230    2.9150   -0.0340 c1        1 DU3     -0.112500
     24 C3'         0.0490   -2.2630    1.6600 c3        1 DU3      0.007000
     25 O3'        -0.6610   -3.4270    2.1270 oh        1 DU3     -0.313000
     26 C4'        -0.2550   -2.0230    0.3610 c3        1 DU3      0.019000
     27 O4'         0.8080   -2.7570   -0.4390 os        1 DU3     -0.269000
     28 C5'        -0.2000   -0.5100    0.0670 c3        1 DU3     -0.090000
     29 N5'        -1.4210    0.1180    0.5300 n3        1 DU3     -0.309000
     30 H5          6.3550   -2.2290    1.2540 ha        1 DU3      0.181000
     31 H6          4.0770   -2.6500    2.0780 h4        1 DU3      0.166000
     32 H1'         1.8910   -4.1540    0.8030 h2        1 DU3      0.172000
     33 H17        -2.1760    0.3250   -1.3100 h1        1 DU3      0.075000
     34 H19        -2.7510    1.7840    1.8950 ha        1 DU3      0.135500
     35 H2'         2.1200   -1.6720    1.7270 hc        1 DU3      0.117500
     36 H2'A        1.8640   -3.0510    2.4950 hc        1 DU3      0.117500
     37 H20        -4.7860    2.8080    2.6250 ha        1 DU3      0.133500
     38 H21        -6.5340    3.1670    1.0990 ha        1 DU3      0.132500
     39 H22        -6.2890    2.5150   -1.1800 ha        1 DU3      0.132500
     40 H23        -4.2760    1.5030   -1.8980 ha        1 DU3      0.135500
     41 H25        -0.9790    1.5420   -2.9790 ha        1 DU3      0.135500
     42 H26         0.4330    3.3220   -3.6430 ha        1 DU3      0.133500
     43 H27         1.2560    4.8600   -2.0330 ha        1 DU3      0.132500
     44 H28         0.6410    4.5860    0.2340 ha        1 DU3      0.132500
     45 H29        -0.7710    2.8110    0.9110 ha        1 DU3      0.135500
     46 H3'        -0.1780   -1.4970    2.2010 h1        1 DU3      0.106000
     47 HO3'       -0.8710   -3.3200    2.9940 ho        1 DU3      0.206000
     48 H4'        -1.1390   -2.3760    0.1500 h1        1 DU3      0.133000
     49 H5'         0.5760   -0.1100    0.5360 h1        1 DU3      0.084500
     50 H5'A       -0.1060   -0.3670   -0.9020 h1        1 DU3      0.084500
     51 HN5'       -2.0050   -0.5140    0.7870 hn        1 DU3      0.170000
     52 HN3         5.0080   -2.4880   -2.6540 hn        1 DU3      0.266000
@<TRIPOS>BOND
     1    1    2 1   
     2    1    8 1   
     3    1    9 1   
     4    2    3 1   
     5    2    4 1   
     6    4    5 1   
     7    4   52 1   
     8    5    6 1   
     9    5    7 1   
    10    7    8 1   
    11    7   30 1   
    12    8   31 1   
    13    9   13 1   
    14    9   27 1   
    15    9   32 1   
    16   10   11 1   
    17   10   18 1   
    18   10   29 1   
    19   10   33 1   
    20   11   12 1   
    21   11   17 1   
    22   12   14 1   
    23   12   34 1   
    24   13   24 1   
    25   13   35 1   
    26   13   36 1   
    27   14   37 1   
    28   15   16 1   
    29   15   38 1   
    30   16   39 1   
    31   17   40 1   
    32   18   19 1   
    33   18   23 1   
    34   19   20 1   
    35   19   41 1   
    36   20   42 1   
    37   21   22 1   
    38   21   43 1   
    39   22   44 1   
    40   23   45 1   
    41   24   25 1   
    42   24   26 1   
    43   24   46 1   
    44   25   47 1   
    45   26   27 1   
    46   26   28 1   
    47   26   48 1   
    48   28   29 1   
    49   28   49 1   
    50   28   50 1   
    51   29   51 1   
@<TRIPOS>SUBSTRUCTURE
     1 DU3         1 TEMP              0 ****  ****    0 ROOT
