@<TRIPOS>MOLECULE
DU3
   53    56     1     0     0
SMALL
bcc


@<TRIPOS>ATOM
      1 N1         -0.6930    0.2770   -0.0990 n         1 DU3     -0.405000
      2 C2          0.5000    1.0520    0.0630 c         1 DU3      0.810500
      3 O2          1.3350    1.1250   -0.8620 o         1 DU3     -0.617500
      4 N3          0.7030    1.7200    1.2750 n         1 DU3     -0.582500
      5 C4         -0.2180    1.6810    2.3390 c         1 DU3      0.707700
      6 O4          0.0180    2.3270    3.3690 o         1 DU3     -0.575500
      7 C5         -1.4250    0.8690    2.1160 cc        1 DU3     -0.286200
      8 C6         -1.6170    0.2280    0.9380 cd        1 DU3      0.018600
      9 C1'        -0.9420   -0.3200   -1.3970 c3        1 DU3      0.311500
     10 C17        -4.7410    3.5150   -1.8540 c3        1 DU3      0.261100
     11 C18        -4.2790    3.9260   -0.4870 ca        1 DU3     -0.164300
     12 C19        -5.0740    3.6070    0.6200 ca        1 DU3     -0.110250
     13 C2'        -1.7290   -1.6460   -1.3750 c3        1 DU3     -0.156400
     14 C20        -4.6870    4.0110    1.8960 ca        1 DU3     -0.114250
     15 C21        -3.5030    4.7280    2.0760 ca        1 DU3     -0.084500
     16 C22        -2.7080    5.0460    0.9740 ca        1 DU3     -0.114250
     17 C23        -3.0940    4.6500   -0.3060 ca        1 DU3     -0.110250
     18 C24        -4.8870    4.6690   -2.8070 ca        1 DU3     -0.164300
     19 C25        -3.7920    5.2450   -3.4630 ca        1 DU3     -0.110250
     20 C26        -3.9830    6.3250   -4.3230 ca        1 DU3     -0.114250
     21 C27        -5.2640    6.8410   -4.5280 ca        1 DU3     -0.084500
     22 C28        -6.3560    6.2710   -3.8740 ca        1 DU3     -0.114250
     23 C29        -6.1720    5.1850   -3.0190 ca        1 DU3     -0.110250
     24 C3'        -3.1580   -1.2820   -1.7940 c3        1 DU3      0.131100
     25 O3'        -3.6880   -2.1480   -2.7760 oh        1 DU3     -0.582800
     26 C4'        -3.0240    0.1030   -2.4640 c3        1 DU3      0.104100
     27 O4'        -1.7080    0.5930   -2.2290 os        1 DU3     -0.447600
     28 C5'        -4.0430    1.1080   -1.9060 c3        1 DU3      0.089800
     29 N5'        -3.7980    2.4750   -2.4390 n4        1 DU3     -0.763000
     30 H5         -2.1340    0.8050    2.9520 ha        1 DU3      0.187000
     31 H6         -2.5180   -0.3850    0.7490 h4        1 DU3      0.151000
     32 H1'         0.0520   -0.4140   -1.9370 h2        1 DU3      0.152700
     33 H17        -5.7480    2.9980   -1.7640 hx        1 DU3      0.099700
     34 H19        -6.0170    3.0530    0.4880 ha        1 DU3      0.135250
     35 H2'        -1.7020   -2.1550   -0.3820 hc        1 DU3      0.098700
     36 H2'A       -1.2730   -2.3390   -2.1300 hc        1 DU3      0.098700
     37 H20        -5.3220    3.7700    2.7640 ha        1 DU3      0.158250
     38 H21        -3.1980    5.0470    3.0860 ha        1 DU3      0.162000
     39 H22        -1.7770    5.6190    1.1130 ha        1 DU3      0.158250
     40 H23        -2.4760    4.9340   -1.1710 ha        1 DU3      0.135250
     41 H25        -2.7690    4.8710   -3.3040 ha        1 DU3      0.135250
     42 H26        -3.1190    6.7750   -4.8360 ha        1 DU3      0.158250
     43 H27        -5.4110    7.6990   -5.2040 ha        1 DU3      0.162000
     44 H28        -7.3680    6.6780   -4.0300 ha        1 DU3      0.158250
     45 H29        -7.0410    4.7450   -2.5040 ha        1 DU3      0.135250
     46 H3'        -3.8480   -1.2490   -0.9070 h1        1 DU3      0.051700
     47 HO3'       -3.6440   -3.0480   -2.4240 ho        1 DU3      0.433000
     48 H4'        -3.1370    0.0020   -3.5820 h1        1 DU3      0.112700
     49 H5'        -5.0800    0.7780   -2.1980 hx        1 DU3      0.108700
     50 H5'A       -3.9710    1.1630   -0.7820 hx        1 DU3      0.108700
     51 HN5'       -3.9010    2.4700   -3.4610 hn        1 DU3      0.458300
     52 HN3         1.5660    2.2150    1.3810 hn        1 DU3      0.365500
     53 H5'2       -2.8260    2.7380   -2.2200 hn        1 DU3      0.458300
@<TRIPOS>BOND
     1    1    2 1   
     2    1    8 1   
     3    1    9 1   
     4    2    3 2   
     5    2    4 1   
     6    4    5 1   
     7    4   52 1   
     8    5    6 2   
     9    5    7 1   
    10    7    8 2   
    11    7   30 1   
    12    8   31 1   
    13    9   13 1   
    14    9   27 1   
    15    9   32 1   
    16   10   11 1   
    17   10   18 1   
    18   10   29 1   
    19   10   33 1   
    20   11   12 ar  
    21   11   17 ar  
    22   12   14 ar  
    23   12   34 1   
    24   13   24 1   
    25   13   35 1   
    26   13   36 1   
    27   14   15 ar  
    28   14   37 1   
    29   15   16 ar  
    30   15   38 1   
    31   16   17 ar  
    32   16   39 1   
    33   17   40 1   
    34   18   19 ar  
    35   18   23 ar  
    36   19   20 ar  
    37   19   41 1   
    38   20   21 ar  
    39   20   42 1   
    40   21   22 ar  
    41   21   43 1   
    42   22   23 ar  
    43   22   44 1   
    44   23   45 1   
    45   24   25 1   
    46   24   26 1   
    47   24   46 1   
    48   25   47 1   
    49   26   27 1   
    50   26   28 1   
    51   26   48 1   
    52   28   29 1   
    53   28   49 1   
    54   28   50 1   
    55   29   51 1   
    56   29   53 1   
@<TRIPOS>SUBSTRUCTURE
     1 DU3         1 TEMP              0 ****  ****    0 ROOT
