@<TRIPOS>MOLECULE
DU3
   52    55     1     0     0
SMALL
bcc


@<TRIPOS>ATOM
      1 N1          3.1480   -1.3930   -0.7160 n         1 DU3     -0.404000
      2 C2          4.5340   -1.6970   -0.8050 c         1 DU3      0.806500
      3 O2          5.0410   -2.5960   -0.0980 o         1 DU3     -0.651500
      4 N3          5.3240   -0.9590   -1.6970 n         1 DU3     -0.585500
      5 C4          4.8000    0.0500   -2.5290 c         1 DU3      0.714700
      6 O4          5.5720    0.6550   -3.2910 o         1 DU3     -0.608500
      7 C5          3.3590    0.2930   -2.4130 cc        1 DU3     -0.327200
      8 C6          2.6030   -0.4230   -1.5400 cd        1 DU3      0.058600
      9 C1'         2.3360   -2.2310    0.1770 c3        1 DU3      0.325500
     10 C17        -2.3290    0.1860    0.4190 c3        1 DU3      0.267100
     11 C18        -2.7960    1.3600    1.2530 ca        1 DU3     -0.087300
     12 C19        -3.4640    1.1130    2.4590 ca        1 DU3     -0.114000
     13 C2'         2.7110   -2.1060    1.6690 c3        1 DU3     -0.149400
     14 C20        -3.9220    2.1740    3.2370 ca        1 DU3     -0.132500
     15 C21        -3.7130    3.4890    2.8210 ca        1 DU3     -0.125500
     16 C22        -3.0460    3.7390    1.6230 ca        1 DU3     -0.132500
     17 C23        -2.5890    2.6790    0.8390 ca        1 DU3     -0.114000
     18 C24        -3.3050   -0.0510   -0.7110 ca        1 DU3     -0.087300
     19 C25        -3.3020    0.7540   -1.8550 ca        1 DU3     -0.114000
     20 C26        -4.2160    0.5160   -2.8810 ca        1 DU3     -0.132500
     21 C27        -5.1390   -0.5230   -2.7710 ca        1 DU3     -0.125500
     22 C28        -5.1470   -1.3270   -1.6310 ca        1 DU3     -0.132500
     23 C29        -4.2320   -1.0940   -0.6050 ca        1 DU3     -0.114000
     24 C3'         1.5650   -1.3230    2.3140 c3        1 DU3      0.121100
     25 O3'         1.0180   -1.9990    3.4330 oh        1 DU3     -0.589800
     26 C4'         0.4590   -1.2560    1.2450 c3        1 DU3      0.091100
     27 O4'         0.9480   -1.9020    0.0570 os        1 DU3     -0.421600
     28 C5'         0.0660    0.1950    0.9200 c3        1 DU3      0.146800
     29 N5'        -0.9610    0.3710   -0.0760 n3        1 DU3     -0.816200
     30 H5          2.9340    1.0690   -3.0620 ha        1 DU3      0.181000
     31 H6          1.5090   -0.2710   -1.4400 h4        1 DU3      0.183000
     32 H1'         2.4320   -3.2970   -0.1900 h2        1 DU3      0.100700
     33 H17        -2.3670   -0.7330    1.0920 h1        1 DU3      0.031700
     34 H19        -3.6330    0.0790    2.7940 ha        1 DU3      0.136500
     35 H2'         2.7780   -3.1350    2.1060 hc        1 DU3      0.086700
     36 H2'A        3.6970   -1.6050    1.8210 hc        1 DU3      0.086700
     37 H20        -4.4490    1.9730    4.1810 ha        1 DU3      0.132250
     38 H21        -4.0750    4.3260    3.4360 ha        1 DU3      0.131500
     39 H22        -2.8800    4.7750    1.2910 ha        1 DU3      0.132250
     40 H23        -2.0650    2.8830   -0.1070 ha        1 DU3      0.136500
     41 H25        -2.5820    1.5810   -1.9430 ha        1 DU3      0.136500
     42 H26        -4.2080    1.1520   -3.7790 ha        1 DU3      0.132250
     43 H27        -5.8600   -0.7090   -3.5810 ha        1 DU3      0.131500
     44 H28        -5.8750   -2.1460   -1.5400 ha        1 DU3      0.132250
     45 H29        -4.2440   -1.7330    0.2910 ha        1 DU3      0.136500
     46 H3'         1.8980   -0.2940    2.6220 h1        1 DU3      0.056700
     47 HO3'        1.7190   -2.0610    4.0930 ho        1 DU3      0.411000
     48 H4'        -0.4360   -1.8610    1.5630 h1        1 DU3      0.096700
     49 H5'        -0.2580    0.6850    1.8810 h1        1 DU3      0.066200
     50 H5'A        0.9810    0.7330    0.5380 h1        1 DU3      0.066200
     51 HN5'       -0.8010   -0.2370   -0.8600 hn        1 DU3      0.375800
     52 HN3         6.2940   -1.1880   -1.7400 hn        1 DU3      0.352500
@<TRIPOS>BOND
     1    1    2 1   
     2    1    8 1   
     3    1    9 1   
     4    2    3 2   
     5    2    4 1   
     6    4    5 1   
     7    4   52 1   
     8    5    6 2   
     9    5    7 1   
    10    7    8 2   
    11    7   30 1   
    12    8   31 1   
    13    9   13 1   
    14    9   27 1   
    15    9   32 1   
    16   10   11 1   
    17   10   18 1   
    18   10   29 1   
    19   10   33 1   
    20   11   12 ar  
    21   11   17 ar  
    22   12   14 ar  
    23   12   34 1   
    24   13   24 1   
    25   13   35 1   
    26   13   36 1   
    27   14   15 ar  
    28   14   37 1   
    29   15   16 ar  
    30   15   38 1   
    31   16   17 ar  
    32   16   39 1   
    33   17   40 1   
    34   18   19 ar  
    35   18   23 ar  
    36   19   20 ar  
    37   19   41 1   
    38   20   21 ar  
    39   20   42 1   
    40   21   22 ar  
    41   21   43 1   
    42   22   23 ar  
    43   22   44 1   
    44   23   45 1   
    45   24   25 1   
    46   24   26 1   
    47   24   46 1   
    48   25   47 1   
    49   26   27 1   
    50   26   28 1   
    51   26   48 1   
    52   28   29 1   
    53   28   49 1   
    54   28   50 1   
    55   29   51 1   
@<TRIPOS>SUBSTRUCTURE
     1 DU3         1 TEMP              0 ****  ****    0 ROOT
