@<TRIPOS>MOLECULE
DU3
   53    56     1     0     0
SMALL
bcc


@<TRIPOS>ATOM
      1 N1         -0.6970    0.2700   -0.1050 n         1 DU3     -0.405000
      2 C2          0.5000    1.0410    0.0530 c         1 DU3      0.810500
      3 O2          1.3320    1.1100   -0.8730 o         1 DU3     -0.617500
      4 N3          0.7080    1.7100    1.2640 n         1 DU3     -0.582500
      5 C4         -0.2110    1.6750    2.3300 c         1 DU3      0.707700
      6 O4          0.0300    2.3210    3.3600 o         1 DU3     -0.575500
      7 C5         -1.4220    0.8670    2.1110 cc        1 DU3     -0.286200
      8 C6         -1.6190    0.2260    0.9350 cd        1 DU3      0.018600
      9 C1'        -0.9510   -0.3270   -1.4010 c3        1 DU3      0.311500
     10 C17        -4.7390    3.5200   -1.8530 c3        1 DU3      0.261100
     11 C18        -4.2770    3.9290   -0.4850 ca        1 DU3     -0.164300
     12 C19        -5.0750    3.6110    0.6220 ca        1 DU3     -0.110250
     13 C2'        -1.7430   -1.6500   -1.3770 c3        1 DU3     -0.156400
     14 C20        -4.6870    4.0130    1.8990 ca        1 DU3     -0.114250
     15 C21        -3.5000    4.7250    2.0790 ca        1 DU3     -0.084500
     16 C22        -2.7020    5.0400    0.9780 ca        1 DU3     -0.114250
     17 C23        -3.0900    4.6470   -0.3020 ca        1 DU3     -0.110250
     18 C24        -4.8810    4.6760   -2.8040 ca        1 DU3     -0.164300
     19 C25        -3.7830    5.2480   -3.4590 ca        1 DU3     -0.110250
     20 C26        -3.9690    6.3290   -4.3180 ca        1 DU3     -0.114250
     21 C27        -5.2480    6.8500   -4.5240 ca        1 DU3     -0.084500
     22 C28        -6.3430    6.2840   -3.8710 ca        1 DU3     -0.114250
     23 C29        -6.1630    5.1960   -3.0170 ca        1 DU3     -0.110250
     24 C3'        -3.1710   -1.2820   -1.7920 c3        1 DU3      0.131100
     25 O3'        -3.7070   -2.1470   -2.7720 oh        1 DU3     -0.582800
     26 C4'        -3.0350    0.1020   -2.4630 c3        1 DU3      0.104100
     27 O4'        -1.7170    0.5880   -2.2320 os        1 DU3     -0.447600
     28 C5'        -4.0500    1.1110   -1.9040 c3        1 DU3      0.089800
     29 N5'        -3.8010    2.4770   -2.4380 n4        1 DU3     -0.763000
     30 H5         -2.1290    0.8060    2.9490 ha        1 DU3      0.187000
     31 H6         -2.5220   -0.3840    0.7480 h4        1 DU3      0.151000
     32 H1'         0.0410   -0.4250   -1.9440 h2        1 DU3      0.152700
     33 H17        -5.7490    3.0060   -1.7640 hx        1 DU3      0.099700
     34 H19        -6.0190    3.0610    0.4890 ha        1 DU3      0.135250
     35 H2'        -1.7150   -2.1590   -0.3830 hc        1 DU3      0.098700
     36 H2'A       -1.2910   -2.3450   -2.1320 hc        1 DU3      0.098700
     37 H20        -5.3230    3.7730    2.7650 ha        1 DU3      0.158250
     38 H21        -3.1940    5.0420    3.0900 ha        1 DU3      0.162000
     39 H22        -1.7690    5.6100    1.1180 ha        1 DU3      0.158250
     40 H23        -2.4690    4.9300   -1.1660 ha        1 DU3      0.135250
     41 H25        -2.7620    4.8700   -3.2990 ha        1 DU3      0.135250
     42 H26        -3.1030    6.7770   -4.8300 ha        1 DU3      0.158250
     43 H27        -5.3910    7.7090   -5.1990 ha        1 DU3      0.162000
     44 H28        -7.3530    6.6950   -4.0270 ha        1 DU3      0.158250
     45 H29        -7.0340    4.7590   -2.5030 ha        1 DU3      0.135250
     46 H3'        -3.8600   -1.2460   -0.9040 h1        1 DU3      0.051700
     47 HO3'       -3.6640   -3.0460   -2.4200 ho        1 DU3      0.433000
     48 H4'        -3.1510    0.0000   -3.5820 h1        1 DU3      0.112700
     49 H5'        -5.0880    0.7850   -2.1950 hx        1 DU3      0.108700
     50 H5'A       -3.9760    1.1660   -0.7800 hx        1 DU3      0.108700
     51 HN5'       -2.8270    2.7370   -2.2190 hn        1 DU3      0.458300
     52 HN3         1.5730    2.2010    1.3680 hn        1 DU3      0.365500
     53 H5'2       -3.9050    2.4720   -3.4590 hn        1 DU3      0.458300
@<TRIPOS>BOND
     1    1    2 1   
     2    1    8 1   
     3    1    9 1   
     4    2    3 2   
     5    2    4 1   
     6    4    5 1   
     7    4   52 1   
     8    5    6 2   
     9    5    7 1   
    10    7    8 2   
    11    7   30 1   
    12    8   31 1   
    13    9   13 1   
    14    9   27 1   
    15    9   32 1   
    16   10   11 1   
    17   10   18 1   
    18   10   29 1   
    19   10   33 1   
    20   11   12 ar  
    21   11   17 ar  
    22   12   14 ar  
    23   12   34 1   
    24   13   24 1   
    25   13   35 1   
    26   13   36 1   
    27   14   15 ar  
    28   14   37 1   
    29   15   16 ar  
    30   15   38 1   
    31   16   17 ar  
    32   16   39 1   
    33   17   40 1   
    34   18   19 ar  
    35   18   23 ar  
    36   19   20 ar  
    37   19   41 1   
    38   20   21 ar  
    39   20   42 1   
    40   21   22 ar  
    41   21   43 1   
    42   22   23 ar  
    43   22   44 1   
    44   23   45 1   
    45   24   25 1   
    46   24   26 1   
    47   24   46 1   
    48   25   47 1   
    49   26   27 1   
    50   26   28 1   
    51   26   48 1   
    52   28   29 1   
    53   28   49 1   
    54   28   50 1   
    55   29   51 1   
    56   29   53 1   
@<TRIPOS>SUBSTRUCTURE
     1 DU3         1 TEMP              0 ****  ****    0 ROOT
