@<TRIPOS>MOLECULE
DU4
   56    59     1     0     0
SMALL
bcc


@<TRIPOS>ATOM
      1 N1         -0.5130    0.1450   -0.1780 n         1 DU4     -0.403000
      2 C2          0.7340    0.8450   -0.1050 c         1 DU4      0.810500
      3 O2          1.4690    0.9300   -1.1100 o         1 DU4     -0.619500
      4 N3          1.1040    1.4260    1.1130 n         1 DU4     -0.582500
      5 C4          0.3000    1.3680    2.2680 c         1 DU4      0.707700
      6 O4          0.6860    1.9300    3.3030 o         1 DU4     -0.574500
      7 C5         -0.9730    0.6440    2.1310 cc        1 DU4     -0.289200
      8 C6         -1.3280    0.0890    0.9480 cd        1 DU4      0.022600
      9 C1'        -0.9200   -0.3810   -1.4650 c3        1 DU4      0.313500
     10 C17        -4.6070    3.6200   -1.5950 c3        1 DU4      0.258100
     11 C18        -4.4470    3.5440   -0.1020 ca        1 DU4     -0.158300
     12 C19        -5.5360    3.1150    0.6690 ca        1 DU4     -0.112250
     13 C2'        -1.7780   -1.6610   -1.4150 c3        1 DU4     -0.157400
     14 C20        -5.4450    3.1040    2.0600 ca        1 DU4     -0.115750
     15 C21        -4.2680    3.5150    2.6880 ca        1 DU4     -0.090000
     16 C22        -3.1810    3.9370    1.9220 ca        1 DU4     -0.115750
     17 C23        -3.2690    3.9540    0.5310 ca        1 DU4     -0.112250
     18 C24        -4.3680    5.0160   -2.1060 ca        1 DU4     -0.158300
     19 C25        -5.4900    5.8140   -2.3640 ca        1 DU4     -0.112250
     20 C26        -5.3270    7.1310   -2.7930 ca        1 DU4     -0.115750
     21 C27        -4.0480    7.6570   -2.9730 ca        1 DU4     -0.090000
     22 C28        -2.9280    6.8620   -2.7230 ca        1 DU4     -0.115750
     23 C29        -3.0850    5.5470   -2.2880 ca        1 DU4     -0.112250
     24 C3'        -3.2120   -1.2050   -1.7030 c3        1 DU4      0.128100
     25 O3'        -3.8820   -2.0310   -2.6320 oh        1 DU4     -0.584800
     26 C4'        -3.0440    0.1710   -2.3860 c3        1 DU4      0.109100
     27 O4'        -1.7040    0.6120   -2.1840 os        1 DU4     -0.449600
     28 C41        -3.8610    2.6970   -3.7740 c3        1 DU4      0.081100
     29 C5'        -4.0170    1.2140   -1.8210 c3        1 DU4      0.095800
     30 N5'        -3.7180    2.6000   -2.3000 n4        1 DU4     -0.678400
     31 HN3         2.0010    1.8660    1.1510 hn        1 DU4      0.364500
     32 H5         -1.5950    0.5720    3.0330 ha        1 DU4      0.187000
     33 H6         -2.2840   -0.4520    0.8210 h4        1 DU4      0.152000
     34 H1'         0.0110   -0.5090   -2.1010 h2        1 DU4      0.148700
     35 H17        -5.6670    3.3140   -1.8680 hx        1 DU4      0.097700
     36 H19        -6.4740    2.8040    0.1840 ha        1 DU4      0.135750
     37 H2'        -1.7000   -2.2040   -0.4430 hc        1 DU4      0.097700
     38 H2'A       -1.4270   -2.3540   -2.2240 hc        1 DU4      0.097700
     39 H20        -6.3080    2.7800    2.6630 ha        1 DU4      0.158250
     40 H21        -4.2010    3.5160    3.7880 ha        1 DU4      0.159500
     41 H22        -2.2540    4.2710    2.4170 ha        1 DU4      0.158250
     42 H23        -2.4150    4.3170   -0.0610 ha        1 DU4      0.135750
     43 H25        -6.5050    5.4130   -2.2200 ha        1 DU4      0.135750
     44 H26        -6.2140    7.7570   -2.9850 ha        1 DU4      0.158250
     45 H27        -3.9200    8.6980   -3.3110 ha        1 DU4      0.159500
     46 H28        -1.9170    7.2750   -2.8620 ha        1 DU4      0.158250
     47 H29        -2.1850    4.9480   -2.0850 ha        1 DU4      0.135750
     48 H3'        -3.8160   -1.1300   -0.7580 h1        1 DU4      0.052700
     49 HO3'       -3.8730   -2.9310   -2.2790 ho        1 DU4      0.433000
     50 H4'        -3.1870    0.0550   -3.4990 h1        1 DU4      0.105700
     51 H41        -4.8900    2.3690   -4.0760 hx        1 DU4      0.104700
     52 H41A       -3.0910    2.0420   -4.2630 hx        1 DU4      0.104700
     53 H41B       -3.6990    3.7620   -4.0960 hx        1 DU4      0.104700
     54 H5'        -5.0630    0.9390   -2.1360 hx        1 DU4      0.108200
     55 H5'A       -3.9610    1.2250   -0.6940 hx        1 DU4      0.108200
     56 H5'1       -2.7360    2.8040   -2.0540 hn        1 DU4      0.459800
@<TRIPOS>BOND
     1    1    2 1   
     2    1    8 1   
     3    1    9 1   
     4    2    3 2   
     5    2    4 1   
     6    4    5 1   
     7    4   31 1   
     8    5    6 2   
     9    5    7 1   
    10    7    8 2   
    11    7   32 1   
    12    8   33 1   
    13    9   13 1   
    14    9   27 1   
    15    9   34 1   
    16   10   11 1   
    17   10   18 1   
    18   10   30 1   
    19   10   35 1   
    20   11   12 ar  
    21   11   17 ar  
    22   12   14 ar  
    23   12   36 1   
    24   13   24 1   
    25   13   37 1   
    26   13   38 1   
    27   14   15 ar  
    28   14   39 1   
    29   15   16 ar  
    30   15   40 1   
    31   16   17 ar  
    32   16   41 1   
    33   17   42 1   
    34   18   19 ar  
    35   18   23 ar  
    36   19   20 ar  
    37   19   43 1   
    38   20   21 ar  
    39   20   44 1   
    40   21   22 ar  
    41   21   45 1   
    42   22   23 ar  
    43   22   46 1   
    44   23   47 1   
    45   24   25 1   
    46   24   26 1   
    47   24   48 1   
    48   25   49 1   
    49   26   27 1   
    50   26   29 1   
    51   26   50 1   
    52   28   30 1   
    53   28   51 1   
    54   28   52 1   
    55   28   53 1   
    56   29   30 1   
    57   29   54 1   
    58   29   55 1   
    59   30   56 1   
@<TRIPOS>SUBSTRUCTURE
     1 DU4         1 TEMP              0 ****  ****    0 ROOT
