@<TRIPOS>MOLECULE
DU4
   55    58     1     0     0
SMALL
bcc


@<TRIPOS>ATOM
      1 N1          2.7670   -0.6620   -0.6110 n         1 DU4     -0.402000
      2 C2          4.1020   -0.1760   -0.6110 c         1 DU4      0.805500
      3 O2          5.0420   -0.8750   -0.1710 o         1 DU4     -0.654500
      4 N3          4.3440    1.1120   -1.1070 n         1 DU4     -0.585500
      5 C4          3.3260    1.9320   -1.6340 c         1 DU4      0.715700
      6 O4          3.6290    3.0630   -2.0500 o         1 DU4     -0.613500
      7 C5          1.9790    1.3580   -1.6400 cc        1 DU4     -0.339200
      8 C6          1.7530    0.1110   -1.1490 cd        1 DU4      0.060600
      9 C1'         2.5520   -2.0420   -0.1530 c3        1 DU4      0.322500
     10 C17        -2.5600   -0.2890    0.5380 c3        1 DU4      0.273100
     11 C18        -2.0750    0.9740    1.2180 ca        1 DU4     -0.083800
     12 C19        -2.6230    1.3320    2.4550 ca        1 DU4     -0.117000
     13 C2'         2.9330   -2.2870    1.3230 c3        1 DU4     -0.148400
     14 C20        -2.2240    2.5100    3.0850 ca        1 DU4     -0.131250
     15 C21        -1.2750    3.3380    2.4860 ca        1 DU4     -0.126000
     16 C22        -0.7250    2.9840    1.2540 ca        1 DU4     -0.131250
     17 C23        -1.1230    1.8070    0.6210 ca        1 DU4     -0.117000
     18 C24        -3.4640    0.1040   -0.6110 ca        1 DU4     -0.083800
     19 C25        -4.8490    0.1110   -0.4070 ca        1 DU4     -0.117000
     20 C26        -5.7080    0.4970   -1.4340 ca        1 DU4     -0.131250
     21 C27        -5.1930    0.8750   -2.6740 ca        1 DU4     -0.126000
     22 C28        -3.8140    0.8670   -2.8820 ca        1 DU4     -0.131250
     23 C29        -2.9510    0.4840   -1.8560 ca        1 DU4     -0.117000
     24 C3'         1.6060   -2.4670    2.0640 c3        1 DU4      0.116100
     25 O3'         1.5370   -3.7060    2.7490 oh        1 DU4     -0.591800
     26 C4'         0.5190   -2.5060    0.9670 c3        1 DU4      0.130100
     27 O4'         1.1810   -2.4190   -0.3040 os        1 DU4     -0.404600
     28 C41        -1.9540   -2.4160   -0.4550 c3        1 DU4      0.140100
     29 C5'        -0.4830   -1.3630    1.1710 c3        1 DU4      0.146800
     30 N5'        -1.4610   -1.1770    0.1080 n3        1 DU4     -0.728600
     31 HN3         5.2870    1.4340   -1.0920 hn        1 DU4      0.351500
     32 H5          1.1780    1.9780   -2.0590 ha        1 DU4      0.177000
     33 H6          0.7430   -0.3540   -1.1490 h4        1 DU4      0.203000
     34 H1'         3.1330   -2.7180   -0.8510 h2        1 DU4      0.099700
     35 H17        -3.2030   -0.8510    1.2930 h1        1 DU4      0.032700
     36 H19        -3.3750    0.6870    2.9340 ha        1 DU4      0.134500
     37 H2'         3.5480   -3.2200    1.3810 hc        1 DU4      0.086200
     38 H2'A        3.5380   -1.4520    1.7520 hc        1 DU4      0.086200
     39 H20        -2.6610    2.7870    4.0550 ha        1 DU4      0.133750
     40 H21        -0.9630    4.2680    2.9820 ha        1 DU4      0.133000
     41 H22         0.0230    3.6350    0.7770 ha        1 DU4      0.133750
     42 H23        -0.6860    1.5320   -0.3520 ha        1 DU4      0.134500
     43 H25        -5.2640   -0.1860    0.5680 ha        1 DU4      0.134500
     44 H26        -6.7950    0.5020   -1.2650 ha        1 DU4      0.133750
     45 H27        -5.8720    1.1790   -3.4830 ha        1 DU4      0.133000
     46 H28        -3.4040    1.1640   -3.8590 ha        1 DU4      0.133750
     47 H29        -1.8640    0.4800   -2.0280 ha        1 DU4      0.134500
     48 H3'         1.4290   -1.6280    2.7900 h1        1 DU4      0.057700
     49 HO3'        2.2450   -3.7030    3.4050 ho        1 DU4      0.410000
     50 H4'         0.0000   -3.5050    0.9570 h1        1 DU4      0.099700
     51 H41        -2.7480   -2.1870   -1.2150 h1        1 DU4      0.042700
     52 H41A       -1.1010   -2.9290   -0.9750 h1        1 DU4      0.042700
     53 H41B       -2.3850   -3.1140    0.3140 h1        1 DU4      0.042700
     54 H5'        -0.9780   -1.5560    2.1690 h1        1 DU4      0.048700
     55 H5'A        0.0870   -0.3920    1.2480 h1        1 DU4      0.048700
@<TRIPOS>BOND
     1    1    2 1   
     2    1    8 1   
     3    1    9 1   
     4    2    3 2   
     5    2    4 1   
     6    4    5 1   
     7    4   31 1   
     8    5    6 2   
     9    5    7 1   
    10    7    8 2   
    11    7   32 1   
    12    8   33 1   
    13    9   13 1   
    14    9   27 1   
    15    9   34 1   
    16   10   11 1   
    17   10   18 1   
    18   10   30 1   
    19   10   35 1   
    20   11   12 ar  
    21   11   17 ar  
    22   12   14 ar  
    23   12   36 1   
    24   13   24 1   
    25   13   37 1   
    26   13   38 1   
    27   14   15 ar  
    28   14   39 1   
    29   15   16 ar  
    30   15   40 1   
    31   16   17 ar  
    32   16   41 1   
    33   17   42 1   
    34   18   19 ar  
    35   18   23 ar  
    36   19   20 ar  
    37   19   43 1   
    38   20   21 ar  
    39   20   44 1   
    40   21   22 ar  
    41   21   45 1   
    42   22   23 ar  
    43   22   46 1   
    44   23   47 1   
    45   24   25 1   
    46   24   26 1   
    47   24   48 1   
    48   25   49 1   
    49   26   27 1   
    50   26   29 1   
    51   26   50 1   
    52   28   30 1   
    53   28   51 1   
    54   28   52 1   
    55   28   53 1   
    56   29   30 1   
    57   29   54 1   
    58   29   55 1   
@<TRIPOS>SUBSTRUCTURE
     1 DU4         1 TEMP              0 ****  ****    0 ROOT
