@<TRIPOS>MOLECULE
DU4
   55    54     1     0     0
SMALL
bcc


@<TRIPOS>ATOM
      1 N1          2.1060    2.9670   -1.3490 n         1 DU4     -0.297000
      2 C2          3.4470    2.4220   -1.2430 c2        1 DU4      0.397000
      3 O2          3.8250    1.6000   -2.0380 o         1 DU4     -0.372000
      4 N3          4.3190    2.8230   -0.1370 n         1 DU4     -0.365000
      5 C4          3.8750    3.7770    0.8030 c2        1 DU4      0.353000
      6 O4          4.5640    4.0580    1.7390 o         1 DU4     -0.334000
      7 C5          2.5320    4.3310    0.6980 c2        1 DU4     -0.309000
      8 C6          1.6530    3.9160   -0.4040 c2        1 DU4      0.055000
      9 C1'         1.3040    2.6930   -2.5450 c3        1 DU4      0.170000
     10 C17        -0.5200   -1.1470    0.7640 c3        1 DU4      0.089000
     11 C18        -1.4180   -2.3440    0.2230 c2        1 DU4     -0.086000
     12 C19        -0.9010   -3.2380   -0.7150 c2        1 DU4     -0.133500
     13 C2'         1.6650    1.2800   -3.1350 c3        1 DU4     -0.189000
     14 C20        -1.6580   -4.3420   -1.1160 c1        1 DU4     -0.128000
     15 C21        -2.9260   -4.5490   -0.5790 c1        1 DU4     -0.128000
     16 C22        -3.4430   -3.6590    0.3580 c1        1 DU4     -0.128000
     17 C23        -2.6940   -2.5580    0.7600 c1        1 DU4     -0.108500
     18 C24        -0.6550   -1.0540    2.2820 c2        1 DU4     -0.086000
     19 C25         0.1340   -1.8560    3.1050 c2        1 DU4     -0.133500
     20 C26         0.0060   -1.7700    4.4830 c1        1 DU4     -0.128000
     21 C27        -0.9150   -0.8800    5.0460 c1        1 DU4     -0.128000
     22 C28        -1.7050   -0.0770    4.2200 c1        1 DU4     -0.128000
     23 C29        -1.5780   -0.1620    2.8480 c1        1 DU4     -0.108500
     24 C3'         0.4740    0.3830   -2.8040 c3        1 DU4      0.008000
     25 O3'        -0.3050    0.1120   -4.0170 oh        1 DU4     -0.316000
     26 C4'        -0.2500    1.0800   -1.9390 c3        1 DU4     -0.054000
     27 O4'         0.0510    2.6240   -2.2400 os        1 DU4     -0.268000
     28 C41        -2.0070   -0.1690   -0.7880 c3        1 DU4     -0.096000
     29 C5'         0.1540    0.7320   -0.5140 c3        1 DU4     -0.057000
     30 N5'        -0.9640    0.1030    0.1640 n3        1 DU4     -0.305000
     31 HN3         5.1410    2.4870   -0.0750 hn        1 DU4      0.266000
     32 H5          2.2290    4.9720    1.3330 ha        1 DU4      0.180000
     33 H6          0.7620    4.2800   -0.4740 h4        1 DU4      0.180000
     34 H1'         1.4490    3.3770   -3.2090 h2        1 DU4      0.144000
     35 H17         0.4460   -1.3110    0.5180 h1        1 DU4      0.086000
     36 H19        -0.0240   -3.0950   -1.0860 ha        1 DU4      0.129500
     37 H2'         2.4710    0.9360   -2.7150 hc        1 DU4      0.133000
     38 H2'A        1.7840    1.3390   -4.1000 hc        1 DU4      0.133000
     39 H20        -1.3040   -4.9560   -1.7600 ha        1 DU4      0.135000
     40 H21        -3.4660   -5.3390   -0.8660 ha        1 DU4      0.134000
     41 H22        -4.3370   -3.8070    0.7340 ha        1 DU4      0.134000
     42 H23        -3.0610   -1.9330    1.4210 ha        1 DU4      0.141000
     43 H25         0.7860   -2.4850    2.7050 ha        1 DU4      0.129500
     44 H26         0.5450   -2.3180    5.0490 ha        1 DU4      0.135000
     45 H27        -1.0040   -0.8200    6.0120 ha        1 DU4      0.134000
     46 H28        -2.3450    0.5420    4.6100 ha        1 DU4      0.134000
     47 H29        -2.1500    0.4200    2.2500 ha        1 DU4      0.141000
     48 H3'         0.7750   -0.4470   -2.4020 h1        1 DU4      0.089000
     49 HO3'       -0.2430   -0.7440   -4.2220 ho        1 DU4      0.211000
     50 H4'        -1.2340    0.8870   -2.0760 h1        1 DU4      0.125000
     51 H41        -1.6290   -0.6820   -1.5550 h1        1 DU4      0.073667
     52 H41A       -2.7440   -0.7180   -0.3410 h1        1 DU4      0.073667
     53 H41B       -2.3860    0.6850   -1.1160 h1        1 DU4      0.073667
     54 H5'         0.4100    1.5500   -0.0370 h1        1 DU4      0.101000
     55 H5'A        0.9520    0.0820   -0.5320 h1        1 DU4      0.101000
@<TRIPOS>BOND
     1    1    2 1   
     2    1    8 1   
     3    1    9 1   
     4    2    3 1   
     5    2    4 1   
     6    4    5 1   
     7    4   31 1   
     8    5    6 1   
     9    5    7 1   
    10    7    8 1   
    11    7   32 1   
    12    8   33 1   
    13    9   13 1   
    14    9   27 1   
    15    9   34 1   
    16   10   11 1   
    17   10   18 1   
    18   10   30 1   
    19   10   35 1   
    20   11   12 1   
    21   11   17 1   
    22   12   14 1   
    23   12   36 1   
    24   13   24 1   
    25   13   37 1   
    26   13   38 1   
    27   14   39 1   
    28   15   16 1   
    29   15   40 1   
    30   16   41 1   
    31   17   42 1   
    32   18   19 1   
    33   18   23 1   
    34   19   20 1   
    35   19   43 1   
    36   20   44 1   
    37   21   22 1   
    38   21   45 1   
    39   22   46 1   
    40   23   47 1   
    41   24   25 1   
    42   24   26 1   
    43   24   48 1   
    44   25   49 1   
    45   26   27 1   
    46   26   29 1   
    47   26   50 1   
    48   28   30 1   
    49   28   51 1   
    50   28   52 1   
    51   28   53 1   
    52   29   30 1   
    53   29   54 1   
    54   29   55 1   
@<TRIPOS>SUBSTRUCTURE
     1 DU4         1 TEMP              0 ****  ****    0 ROOT
