@<TRIPOS>MOLECULE
DU4
   56    59     1     0     0
SMALL
bcc


@<TRIPOS>ATOM
      1 N1         -0.5120    0.1500   -0.1700 n         1 DU4     -0.403000
      2 C2          0.7340    0.8510   -0.0900 c         1 DU4      0.810500
      3 O2          1.4730    0.9390   -1.0910 o         1 DU4     -0.619500
      4 N3          1.0960    1.4310    1.1310 n         1 DU4     -0.582500
      5 C4          0.2870    1.3710    2.2810 c         1 DU4      0.707700
      6 O4          0.6660    1.9320    3.3180 o         1 DU4     -0.574500
      7 C5         -0.9850    0.6440    2.1380 cc        1 DU4     -0.289200
      8 C6         -1.3330    0.0910    0.9510 cd        1 DU4      0.022600
      9 C1'        -0.9130   -0.3750   -1.4600 c3        1 DU4      0.313500
     10 C17        -4.6070    3.6190   -1.6000 c3        1 DU4      0.258100
     11 C18        -4.4550    3.5410   -0.1070 ca        1 DU4     -0.158300
     12 C19        -5.5470    3.1070    0.6580 ca        1 DU4     -0.112250
     13 C2'        -1.7680   -1.6570   -1.4160 c3        1 DU4     -0.157400
     14 C20        -5.4630    3.0930    2.0490 ca        1 DU4     -0.115750
     15 C21        -4.2910    3.5060    2.6840 ca        1 DU4     -0.090000
     16 C22        -3.2000    3.9330    1.9250 ca        1 DU4     -0.115750
     17 C23        -3.2810    3.9510    0.5340 ca        1 DU4     -0.112250
     18 C24        -4.3680    5.0160   -2.1070 ca        1 DU4     -0.158300
     19 C25        -5.4900    5.8130   -2.3700 ca        1 DU4     -0.112250
     20 C26        -5.3280    7.1310   -2.7950 ca        1 DU4     -0.115750
     21 C27        -4.0490    7.6600   -2.9680 ca        1 DU4     -0.090000
     22 C28        -2.9290    6.8660   -2.7130 ca        1 DU4     -0.115750
     23 C29        -3.0850    5.5500   -2.2810 ca        1 DU4     -0.112250
     24 C3'        -3.2010   -1.2030   -1.7110 c3        1 DU4      0.128100
     25 O3'        -3.8660   -2.0290   -2.6440 oh        1 DU4     -0.584800
     26 C4'        -3.0330    0.1740   -2.3900 c3        1 DU4      0.109100
     27 O4'        -1.6950    0.6170   -2.1810 os        1 DU4     -0.449600
     28 C41        -3.8480    2.7020   -3.7770 c3        1 DU4      0.081100
     29 C5'        -4.0110    1.2140   -1.8280 c3        1 DU4      0.095800
     30 N5'        -3.7120    2.6020   -2.3020 n4        1 DU4     -0.678400
     31 HN3         1.9910    1.8740    1.1740 hn        1 DU4      0.365500
     32 H5         -1.6110    0.5700    3.0360 ha        1 DU4      0.187000
     33 H6         -2.2870   -0.4530    0.8190 h4        1 DU4      0.152000
     34 H1'         0.0220   -0.5010   -2.0920 h2        1 DU4      0.148700
     35 H17        -5.6650    3.3120   -1.8800 hx        1 DU4      0.097700
     36 H19        -6.4820    2.7950    0.1670 ha        1 DU4      0.135750
     37 H2'        -1.6930   -2.2020   -0.4450 hc        1 DU4      0.097700
     38 H2'A       -1.4120   -2.3480   -2.2250 hc        1 DU4      0.097700
     39 H20        -6.3290    2.7650    2.6460 ha        1 DU4      0.158250
     40 H21        -4.2300    3.5040    3.7850 ha        1 DU4      0.159500
     41 H22        -2.2770    4.2670    2.4260 ha        1 DU4      0.158250
     42 H23        -2.4250    4.3180   -0.0530 ha        1 DU4      0.135750
     43 H25        -6.5050    5.4090   -2.2320 ha        1 DU4      0.135750
     44 H26        -6.2150    7.7550   -2.9910 ha        1 DU4      0.158250
     45 H27        -3.9210    8.7020   -3.3020 ha        1 DU4      0.159500
     46 H28        -1.9170    7.2820   -2.8460 ha        1 DU4      0.158250
     47 H29        -2.1850    4.9530   -2.0750 ha        1 DU4      0.135750
     48 H3'        -3.8100   -1.1310   -0.7690 h1        1 DU4      0.052700
     49 HO3'       -3.8570   -2.9290   -2.2930 ho        1 DU4      0.433000
     50 H4'        -3.1710    0.0600   -3.5040 h1        1 DU4      0.105700
     51 H41        -3.0730    2.0500   -4.2630 hx        1 DU4      0.104700
     52 H41A       -4.8740    2.3710   -4.0850 hx        1 DU4      0.104700
     53 H41B       -3.6860    3.7680   -4.0960 hx        1 DU4      0.104700
     54 H5'        -3.9600    1.2240   -0.7010 hx        1 DU4      0.108200
     55 H5'A       -5.0540    0.9380   -2.1490 hx        1 DU4      0.108200
     56 H5'1       -2.7320    2.8080   -2.0510 hn        1 DU4      0.459800
@<TRIPOS>BOND
     1    1    2 1   
     2    1    8 1   
     3    1    9 1   
     4    2    3 2   
     5    2    4 1   
     6    4    5 1   
     7    4   31 1   
     8    5    6 2   
     9    5    7 1   
    10    7    8 2   
    11    7   32 1   
    12    8   33 1   
    13    9   13 1   
    14    9   27 1   
    15    9   34 1   
    16   10   11 1   
    17   10   18 1   
    18   10   30 1   
    19   10   35 1   
    20   11   12 ar  
    21   11   17 ar  
    22   12   14 ar  
    23   12   36 1   
    24   13   24 1   
    25   13   37 1   
    26   13   38 1   
    27   14   15 ar  
    28   14   39 1   
    29   15   16 ar  
    30   15   40 1   
    31   16   17 ar  
    32   16   41 1   
    33   17   42 1   
    34   18   19 ar  
    35   18   23 ar  
    36   19   20 ar  
    37   19   43 1   
    38   20   21 ar  
    39   20   44 1   
    40   21   22 ar  
    41   21   45 1   
    42   22   23 ar  
    43   22   46 1   
    44   23   47 1   
    45   24   25 1   
    46   24   26 1   
    47   24   48 1   
    48   25   49 1   
    49   26   27 1   
    50   26   29 1   
    51   26   50 1   
    52   28   30 1   
    53   28   51 1   
    54   28   52 1   
    55   28   53 1   
    56   29   30 1   
    57   29   54 1   
    58   29   55 1   
    59   30   56 1   
@<TRIPOS>SUBSTRUCTURE
     1 DU4         1 TEMP              0 ****  ****    0 ROOT
