@<TRIPOS>MOLECULE
DU4
   56    59     1     0     0
SMALL
bcc


@<TRIPOS>ATOM
      1 N1         -0.4970    0.1640   -0.1790 n         1 DU4     -0.403000
      2 C2          0.7440    0.8750   -0.0970 c         1 DU4      0.810500
      3 O2          1.4820    0.9720   -1.0970 o         1 DU4     -0.619500
      4 N3          1.1020    1.4520    1.1260 ns        1 DU4     -0.582500
      5 C4          0.2930    1.3810    2.2770 c         1 DU4      0.707700
      6 O4          0.6690    1.9400    3.3170 o         1 DU4     -0.574500
      7 C5         -0.9730    0.6450    2.1300 cc        1 DU4     -0.289200
      8 C6         -1.3170    0.0940    0.9420 cd        1 DU4      0.022600
      9 C1'        -0.8930   -0.3580   -1.4720 c3        1 DU4      0.313500
     10 C17        -4.6150    3.6110   -1.5950 c3        1 DU4      0.258100
     11 C18        -4.4630    3.5260   -0.1020 ca        1 DU4     -0.158300
     12 C19        -5.5520    3.0820    0.6600 ca        1 DU4     -0.112250
     13 C2'        -1.7390   -1.6460   -1.4330 c3        1 DU4     -0.157400
     14 C20        -5.4680    3.0630    2.0510 ca        1 DU4     -0.115750
     15 C21        -4.2990    3.4810    2.6890 ca        1 DU4     -0.090000
     16 C22        -3.2110    3.9180    1.9320 ca        1 DU4     -0.115750
     17 C23        -3.2920    3.9420    0.5400 ca        1 DU4     -0.112250
     18 C24        -4.3850    5.0110   -2.0960 ca        1 DU4     -0.158300
     19 C25        -5.5120    5.8020   -2.3560 ca        1 DU4     -0.112250
     20 C26        -5.3590    7.1230   -2.7750 ca        1 DU4     -0.115750
     21 C27        -4.0830    7.6610   -2.9450 ca        1 DU4     -0.090000
     22 C28        -2.9580    6.8730   -2.6930 ca        1 DU4     -0.115750
     23 C29        -3.1060    5.5550   -2.2670 ca        1 DU4     -0.112250
     24 C3'        -3.1760   -1.2020   -1.7260 c3        1 DU4      0.128100
     25 O3'        -3.8350   -2.0280   -2.6630 oh        1 DU4     -0.584800
     26 C4'        -3.0170    0.1800   -2.4000 c3        1 DU4      0.109100
     27 O4'        -1.6830    0.6310   -2.1890 os        1 DU4     -0.449600
     28 C41        -3.8500    2.7080   -3.7760 c3        1 DU4      0.081100
     29 C5'        -4.0020    1.2110   -1.8330 c3        1 DU4      0.095800
     30 N5'        -3.7130    2.6020   -2.3020 nx        1 DU4     -0.678400
     31 HN3         1.9940    1.9010    1.1720 hn        1 DU4      0.364500
     32 H5         -1.5990    0.5620    3.0290 ha        1 DU4      0.187000
     33 H6         -2.2670   -0.4560    0.8070 h4        1 DU4      0.152000
     34 H1'         0.0430   -0.4750   -2.1040 h2        1 DU4      0.148700
     35 H17        -5.6710    3.2970   -1.8760 hx        1 DU4      0.097700
     36 H19        -6.4850    2.7660    0.1680 ha        1 DU4      0.135750
     37 H2'        -1.6610   -2.1950   -0.4640 hc        1 DU4      0.097700
     38 H2'A       -1.3780   -2.3310   -2.2450 hc        1 DU4      0.097700
     39 H20        -6.3320    2.7270    2.6470 ha        1 DU4      0.158250
     40 H21        -4.2380    3.4750    3.7890 ha        1 DU4      0.159500
     41 H22        -2.2900    4.2560    2.4340 ha        1 DU4      0.158250
     42 H23        -2.4380    4.3170   -0.0440 ha        1 DU4      0.135750
     43 H25        -6.5250    5.3900   -2.2190 ha        1 DU4      0.135750
     44 H26        -6.2500    7.7420   -2.9690 ha        1 DU4      0.158250
     45 H27        -3.9630    8.7050   -3.2750 ha        1 DU4      0.159500
     46 H28        -1.9490    7.2960   -2.8250 ha        1 DU4      0.158250
     47 H29        -2.2010    4.9620   -2.0630 ha        1 DU4      0.135750
     48 H3'        -3.7860   -1.1370   -0.7840 h1        1 DU4      0.052700
     49 HO3'       -3.8200   -2.9300   -2.3150 ho        1 DU4      0.433000
     50 H4'        -3.1550    0.0690   -3.5140 h1        1 DU4      0.105700
     51 H41        -4.8740    2.3720   -4.0850 hx        1 DU4      0.104700
     52 H41A       -3.6950    3.7760   -4.0910 hx        1 DU4      0.104700
     53 H41B       -3.0710    2.0620   -4.2650 hx        1 DU4      0.104700
     54 H5'        -3.9520    1.2160   -0.7060 hx        1 DU4      0.108200
     55 H5'A       -5.0440    0.9290   -2.1550 hx        1 DU4      0.108200
     56 H5'1       -2.7350    2.8140   -2.0500 hn        1 DU4      0.459800
@<TRIPOS>BOND
     1    1    2 1   
     2    1    8 1   
     3    1    9 1   
     4    2    3 2   
     5    2    4 1   
     6    4    5 1   
     7    4   31 1   
     8    5    6 2   
     9    5    7 1   
    10    7    8 2   
    11    7   32 1   
    12    8   33 1   
    13    9   13 1   
    14    9   27 1   
    15    9   34 1   
    16   10   11 1   
    17   10   18 1   
    18   10   30 1   
    19   10   35 1   
    20   11   12 ar  
    21   11   17 ar  
    22   12   14 ar  
    23   12   36 1   
    24   13   24 1   
    25   13   37 1   
    26   13   38 1   
    27   14   15 ar  
    28   14   39 1   
    29   15   16 ar  
    30   15   40 1   
    31   16   17 ar  
    32   16   41 1   
    33   17   42 1   
    34   18   19 ar  
    35   18   23 ar  
    36   19   20 ar  
    37   19   43 1   
    38   20   21 ar  
    39   20   44 1   
    40   21   22 ar  
    41   21   45 1   
    42   22   23 ar  
    43   22   46 1   
    44   23   47 1   
    45   24   25 1   
    46   24   26 1   
    47   24   48 1   
    48   25   49 1   
    49   26   27 1   
    50   26   29 1   
    51   26   50 1   
    52   28   30 1   
    53   28   51 1   
    54   28   52 1   
    55   28   53 1   
    56   29   30 1   
    57   29   54 1   
    58   29   55 1   
    59   30   56 1   
@<TRIPOS>SUBSTRUCTURE
     1 DU4         1 TEMP              0 ****  ****    0 ROOT
