@<TRIPOS>MOLECULE
DUA
   62    66     1     0     0
SMALL
bcc


@<TRIPOS>ATOM
      1 N1          3.5840    0.2290    0.3800 n         1 DUA     -0.404000
      2 O1          1.4070    4.3700    0.7810 oh        1 DUA     -0.590800
      3 C2          4.9310    0.2180   -0.0720 c         1 DUA      0.805500
      4 N2         -0.7610    0.2260    0.7690 n3        1 DUA     -0.818200
      5 O2          5.6970    1.1790    0.1660 o         1 DUA     -0.657500
      6 N3          5.3820   -0.8900   -0.8010 n         1 DUA     -0.585500
      7 C4          4.5670   -2.0060   -1.0790 c         1 DUA      0.714700
      8 O4          5.0510   -2.9460   -1.7320 o         1 DUA     -0.613500
      9 C5          3.2000   -1.9470   -0.5580 cc        1 DUA     -0.330200
     10 C6          2.7680   -0.8650    0.1420 cd        1 DUA      0.059600
     11 C1'         3.1660    1.3680    1.2080 c3        1 DUA      0.323500
     12 C17        -2.0050   -0.2170    0.1050 c3        1 DUA      0.344100
     13 C18        -2.9790    0.9350   -0.1700 ca        1 DUA     -0.091300
     14 C19        -3.1070    1.9880    0.7460 ca        1 DUA     -0.120333
     15 C2'         3.1960    2.7260    0.4740 c3        1 DUA     -0.148400
     16 C20        -4.0010    3.0310    0.5110 ca        1 DUA     -0.134000
     17 C21        -4.7900    3.0350   -0.6380 ca        1 DUA     -0.125000
     18 C22        -4.6860    1.9820   -1.5460 ca        1 DUA     -0.134000
     19 C23        -3.7900    0.9400   -1.3120 ca        1 DUA     -0.120333
     20 C24        -1.6180   -0.9090   -1.2030 ca        1 DUA     -0.091300
     21 C25        -1.2680   -0.1430   -2.3240 ca        1 DUA     -0.120333
     22 C26        -0.8770   -0.7580   -3.5110 ca        1 DUA     -0.134000
     23 C27        -0.8240   -2.1500   -3.5940 ca        1 DUA     -0.125000
     24 C28        -1.1610   -2.9180   -2.4820 ca        1 DUA     -0.134000
     25 C29        -1.5500   -2.3030   -1.2910 ca        1 DUA     -0.120333
     26 C3'         1.7300    3.0990    0.2440 c3        1 DUA      0.118100
     27 C30        -2.7320   -1.2170    1.0140 ca        1 DUA     -0.091300
     28 C31        -2.0280   -2.0080    1.9330 ca        1 DUA     -0.120333
     29 C32        -2.7040   -2.9060    2.7590 ca        1 DUA     -0.134000
     30 C33        -4.0890   -3.0380    2.6720 ca        1 DUA     -0.125000
     31 C34        -4.7940   -2.2690    1.7470 ca        1 DUA     -0.134000
     32 C35        -4.1220   -1.3670    0.9240 ca        1 DUA     -0.120333
     33 C4'         0.9090    2.0580    1.0360 c3        1 DUA      0.126100
     34 O4'         1.8340    1.1820    1.6970 os        1 DUA     -0.404600
     35 C5'        -0.0300    1.2810    0.1030 c3        1 DUA      0.140800
     36 HO1         1.9550    5.0160    0.3200 ho        1 DUA      0.411000
     37 HN2        -0.9600    0.4750    1.7210 hn        1 DUA      0.371800
     38 H5          2.5540   -2.8100   -0.7610 ha        1 DUA      0.181000
     39 H6          1.7410   -0.7980    0.5590 h4        1 DUA      0.203000
     40 H1'         3.8290    1.3750    2.1250 h2        1 DUA      0.100700
     41 H19        -2.5140    2.0070    1.6730 ha        1 DUA      0.141167
     42 H2'         3.6940    3.4780    1.1380 hc        1 DUA      0.086200
     43 H2'A        3.7700    2.6810   -0.4830 hc        1 DUA      0.086200
     44 H20        -4.0840    3.8520    1.2390 ha        1 DUA      0.133667
     45 H21        -5.4940    3.8590   -0.8240 ha        1 DUA      0.133667
     46 H22        -5.3120    1.9700   -2.4500 ha        1 DUA      0.133667
     47 H23        -3.7340    0.1090   -2.0340 ha        1 DUA      0.141167
     48 H25        -1.3130    0.9560   -2.2710 ha        1 DUA      0.141167
     49 H26        -0.6080   -0.1450   -4.3830 ha        1 DUA      0.133667
     50 H27        -0.5130   -2.6360   -4.5300 ha        1 DUA      0.133667
     51 H28        -1.1180   -4.0160   -2.5370 ha        1 DUA      0.133667
     52 H29        -1.8010   -2.9290   -0.4200 ha        1 DUA      0.141167
     53 H3'         1.4710    3.0780   -0.8500 h1        1 DUA      0.056700
     54 H31        -0.9310   -1.9470    2.0100 ha        1 DUA      0.141167
     55 H32        -2.1380   -3.5140    3.4790 ha        1 DUA      0.133667
     56 H33        -4.6210   -3.7440    3.3250 ha        1 DUA      0.133667
     57 H34        -5.8860   -2.3710    1.6640 ha        1 DUA      0.133667
     58 H35        -4.7010   -0.7750    0.1980 ha        1 DUA      0.141167
     59 H4'         0.3340    2.5540    1.8680 h1        1 DUA      0.094700
     60 H5'         0.5760    0.7960   -0.7160 h1        1 DUA      0.053200
     61 H5'A       -0.7100    2.0480   -0.3760 h1        1 DUA      0.053200
     62 HN3         6.3300   -0.8730   -1.1110 hn        1 DUA      0.350500
@<TRIPOS>BOND
     1    1    3 1   
     2    1   10 1   
     3    1   11 1   
     4    2   26 1   
     5    2   36 1   
     6    3    5 2   
     7    3    6 1   
     8    4   12 1   
     9    4   35 1   
    10    4   37 1   
    11    6    7 1   
    12    6   62 1   
    13    7    8 2   
    14    7    9 1   
    15    9   10 2   
    16    9   38 1   
    17   10   39 1   
    18   11   15 1   
    19   11   34 1   
    20   11   40 1   
    21   12   13 1   
    22   12   20 1   
    23   12   27 1   
    24   13   14 ar  
    25   13   19 ar  
    26   14   16 ar  
    27   14   41 1   
    28   15   26 1   
    29   15   42 1   
    30   15   43 1   
    31   16   17 ar  
    32   16   44 1   
    33   17   18 ar  
    34   17   45 1   
    35   18   19 ar  
    36   18   46 1   
    37   19   47 1   
    38   20   21 ar  
    39   20   25 ar  
    40   21   22 ar  
    41   21   48 1   
    42   22   23 ar  
    43   22   49 1   
    44   23   24 ar  
    45   23   50 1   
    46   24   25 ar  
    47   24   51 1   
    48   25   52 1   
    49   26   33 1   
    50   26   53 1   
    51   27   28 ar  
    52   27   32 ar  
    53   28   29 ar  
    54   28   54 1   
    55   29   30 ar  
    56   29   55 1   
    57   30   31 ar  
    58   30   56 1   
    59   31   32 ar  
    60   31   57 1   
    61   32   58 1   
    62   33   34 1   
    63   33   35 1   
    64   33   59 1   
    65   35   60 1   
    66   35   61 1   
@<TRIPOS>SUBSTRUCTURE
     1 DUA         1 TEMP              0 ****  ****    0 ROOT
