@<TRIPOS>MOLECULE
DUA
   62    60     1     0     0
SMALL
bcc


@<TRIPOS>ATOM
      1 N1          4.1740   -2.4180    0.9820 n         1 DUA     -0.282000
      2 O1          0.0630   -4.0210    0.4420 oh        1 DUA     -0.310000
      3 C2          4.8220   -1.1800    0.5380 c2        1 DUA      0.403000
      4 N2         -0.2580    0.1910   -1.0370 n3        1 DUA     -0.293000
      5 O2          4.4870   -0.6640   -0.5160 o         1 DUA     -0.363000
      6 N3          5.9770   -0.6500    1.2760 n         1 DUA     -0.365000
      7 C4          6.5590   -1.4080    2.3250 c2        1 DUA      0.353000
      8 O4          7.5240   -0.9670    2.9330 o         1 DUA     -0.334000
      9 C5          5.9150   -2.6560    2.7720 c2        1 DUA     -0.295000
     10 C6          4.7470   -3.1820    2.0360 c2        1 DUA      0.048000
     11 C1'         2.9180   -2.8110    0.4110 c3        1 DUA      0.155000
     12 C17        -1.4070    1.0380   -0.8390 c3        1 DUA      0.162000
     13 C18        -2.6980    0.3020   -1.3740 c2        1 DUA     -0.087667
     14 C19        -2.6050   -0.5520   -2.4720 c2        1 DUA     -0.114000
     15 C2'         2.1540   -3.3530    1.3270 c3        1 DUA     -0.235000
     16 C20        -3.7580   -1.1330   -3.0070 c1        1 DUA     -0.138667
     17 C21        -5.0050   -0.8600   -2.4420 c1        1 DUA     -0.130000
     18 C22        -5.1010   -0.0050   -1.3410 c1        1 DUA     -0.130000
     19 C23        -3.9490    0.5770   -0.8060 c1        1 DUA     -0.121000
     20 C24        -1.5670    1.3340    0.6530 c2        1 DUA     -0.087667
     21 C25        -2.5080    0.6330    1.4070 c2        1 DUA     -0.114000
     22 C26        -2.7170    0.9650    2.7430 c1        1 DUA     -0.138667
     23 C27        -1.9800    2.0050    3.3320 c1        1 DUA     -0.130000
     24 C28        -1.0400    2.7050    2.5790 c1        1 DUA     -0.130000
     25 C29        -0.8310    2.3720    1.2410 c1        1 DUA     -0.121000
     26 C3'         0.7270   -2.9550    0.9400 c3        1 DUA      0.003000
     27 C30        -1.2070    2.4120   -1.6340 c2        1 DUA     -0.087667
     28 C31        -0.3550    2.4630   -2.7300 c2        1 DUA     -0.114000
     29 C32        -0.2710    3.6400   -3.5020 c1        1 DUA     -0.138667
     30 C33        -1.0450    4.7530   -3.1640 c1        1 DUA     -0.130000
     31 C34        -1.9030    4.7010   -2.0610 c1        1 DUA     -0.130000
     32 C35        -1.9870    3.5370   -1.2960 c1        1 DUA     -0.121000
     33 C4'         0.8810   -1.8390   -0.1670 c3        1 DUA      0.019000
     34 O4'         2.1170   -1.5070   -0.1370 os        1 DUA     -0.276000
     35 C5'        -0.0250   -0.6030    0.1760 c3        1 DUA     -0.082000
     36 HO1        -0.4580   -4.3690    1.0760 ho        1 DUA      0.207000
     37 HN2         0.4610    0.6960   -1.2060 hn        1 DUA      0.178000
     38 H5          6.3140   -3.1800    3.4980 ha        1 DUA      0.179000
     39 H6          4.3180   -4.0040    2.3290 h4        1 DUA      0.162000
     40 H1'         3.0680   -3.4500   -0.3270 h2        1 DUA      0.171000
     41 H19        -1.7080   -0.7480   -2.8800 ha        1 DUA      0.146667
     42 H2'         2.3720   -3.0050    2.1880 hc        1 DUA      0.118000
     43 H2'A        2.2510   -4.3380    1.3170 hc        1 DUA      0.118000
     44 H20        -3.6910   -1.7350   -3.7820 ha        1 DUA      0.132000
     45 H21        -5.8130   -1.2690   -2.8180 ha        1 DUA      0.133333
     46 H22        -6.0050    0.1940   -0.9320 ha        1 DUA      0.133333
     47 H23        -4.0140    1.1630   -0.0520 ha        1 DUA      0.140333
     48 H25        -3.0300   -0.1020    0.9910 ha        1 DUA      0.146667
     49 H26        -3.3820    0.4690    3.2750 ha        1 DUA      0.132000
     50 H27        -2.1240    2.2320    4.2490 ha        1 DUA      0.133333
     51 H28        -0.5190    3.4400    2.9950 ha        1 DUA      0.133333
     52 H29        -0.1760    2.8600    0.7170 ha        1 DUA      0.140333
     53 H3'         0.2540   -2.5950    1.7200 h1        1 DUA      0.088000
     54 H31         0.1850    1.6860   -2.9660 ha        1 DUA      0.146667
     55 H32         0.3290    3.6780   -4.2750 ha        1 DUA      0.132000
     56 H33        -0.9870    5.5640   -3.6960 ha        1 DUA      0.133333
     57 H34        -2.4550    5.4960   -1.8200 ha        1 DUA      0.133333
     58 H35        -2.5910    3.5010   -0.5190 ha        1 DUA      0.140333
     59 H4'         0.6470   -2.1970   -1.0420 h1        1 DUA      0.145000
     60 H5'        -0.8890   -0.9180    0.5330 h1        1 DUA      0.082500
     61 H5'A        0.4180   -0.0530    0.8430 h1        1 DUA      0.082500
     62 HN3         6.3770    0.1190    0.9970 hn        1 DUA      0.267000
@<TRIPOS>BOND
     1    1    3 1   
     2    1   10 1   
     3    1   11 1   
     4    2   26 1   
     5    2   36 1   
     6    3    5 1   
     7    3    6 1   
     8    4   12 1   
     9    4   35 1   
    10    4   37 1   
    11    6    7 1   
    12    6   62 1   
    13    7    8 1   
    14    7    9 1   
    15    9   10 1   
    16    9   38 1   
    17   10   39 1   
    18   11   15 1   
    19   11   34 1   
    20   11   40 1   
    21   12   13 1   
    22   12   20 1   
    23   12   27 1   
    24   13   14 1   
    25   13   19 1   
    26   14   16 1   
    27   14   41 1   
    28   15   26 1   
    29   15   42 1   
    30   15   43 1   
    31   16   44 1   
    32   17   18 1   
    33   17   45 1   
    34   18   46 1   
    35   19   47 1   
    36   20   21 1   
    37   20   25 1   
    38   21   22 1   
    39   21   48 1   
    40   22   49 1   
    41   23   24 1   
    42   23   50 1   
    43   24   51 1   
    44   25   52 1   
    45   26   33 1   
    46   26   53 1   
    47   27   28 1   
    48   27   32 1   
    49   28   29 1   
    50   28   54 1   
    51   29   55 1   
    52   30   31 1   
    53   30   56 1   
    54   31   57 1   
    55   32   58 1   
    56   33   34 1   
    57   33   35 1   
    58   33   59 1   
    59   35   60 1   
    60   35   61 1   
@<TRIPOS>SUBSTRUCTURE
     1 DUA         1 TEMP              0 ****  ****    0 ROOT
