@<TRIPOS>MOLECULE
DUA
   63    67     1     0     0
SMALL
bcc


@<TRIPOS>ATOM
      1 N1         -0.7200    0.1660   -0.0700 n         1 DUA     -0.405000
      2 O1         -3.1800   -1.9660   -3.4470 oh        1 DUA     -0.582800
      3 C2          0.3780    0.9800    0.3560 c         1 DUA      0.810500
      4 N2         -3.7400    2.5020   -2.3140 ny        1 DUA     -0.764000
      5 O2          1.3000    1.2600   -0.4370 o         1 DUA     -0.617500
      6 N3          0.3910    1.4480    1.6740 ns        1 DUA     -0.582500
      7 C4         -0.6330    1.1690    2.6000 c         1 DUA      0.707700
      8 O4         -0.5620    1.6410    3.7430 o         1 DUA     -0.574500
      9 C5         -1.7360    0.3300    2.1060 cc        1 DUA     -0.288200
     10 C6         -1.7450   -0.1150    0.8270 cd        1 DUA      0.018600
     11 C1'        -0.7790   -0.2180   -1.4680 c3        1 DUA      0.310500
     12 C17        -4.9260    3.4240   -1.9300 c3        1 DUA      0.354100
     13 C18        -6.2030    2.8860   -2.5520 ca        1 DUA     -0.157300
     14 C19        -6.2130    2.3930   -3.8670 ca        1 DUA     -0.114333
     15 C2'        -1.4430   -1.5800   -1.7510 c3        1 DUA     -0.156400
     16 C20        -7.3960    1.9310   -4.4400 ca        1 DUA     -0.120333
     17 C21        -8.5910    1.9750   -3.7190 ca        1 DUA     -0.089000
     18 C22        -8.5960    2.4980   -2.4270 ca        1 DUA     -0.120333
     19 C23        -7.4120    2.9560   -1.8470 ca        1 DUA     -0.114333
     20 C24        -4.9790    3.4600   -0.4160 ca        1 DUA     -0.157300
     21 C25        -5.5200    2.3730    0.2910 ca        1 DUA     -0.114333
     22 C26        -5.5680    2.3870    1.6820 ca        1 DUA     -0.120333
     23 C27        -5.0760    3.4870    2.3900 ca        1 DUA     -0.089000
     24 C28        -4.5440    4.5710    1.6950 ca        1 DUA     -0.120333
     25 C29        -4.4940    4.5590    0.3000 ca        1 DUA     -0.114333
     26 C3'        -2.8460   -1.2530   -2.2740 c3        1 DUA      0.130100
     27 C30        -4.6210    4.7960   -2.5220 ca        1 DUA     -0.157300
     28 C31        -3.3210    5.3270   -2.5320 ca        1 DUA     -0.114333
     29 C32        -3.0740    6.5780   -3.0930 ca        1 DUA     -0.120333
     30 C33        -4.1200    7.3260   -3.6350 ca        1 DUA     -0.089000
     31 C34        -5.4170    6.8170   -3.6060 ca        1 DUA     -0.120333
     32 C35        -5.6670    5.5600   -3.0540 ca        1 DUA     -0.114333
     33 C4'        -2.7750    0.2360   -2.6780 c3        1 DUA      0.104100
     34 O4'        -1.5320    0.7660   -2.2250 os        1 DUA     -0.446600
     35 C5'        -3.9250    1.0500   -2.0640 c3        1 DUA      0.083800
     36 HO1        -3.1040   -2.9090   -3.2440 ho        1 DUA      0.431000
     37 HN2        -3.5430    2.6480   -3.3110 hn        1 DUA      0.452800
     38 H5         -2.5240    0.0820    2.8290 ha        1 DUA      0.185000
     39 H6         -2.5650   -0.7450    0.4340 h4        1 DUA      0.151000
     40 H1'         0.2710   -0.1490   -1.8940 h2        1 DUA      0.151700
     41 H19        -5.3030    2.3880   -4.4850 ha        1 DUA      0.142500
     42 H2'        -0.8500   -2.1030   -2.5460 hc        1 DUA      0.097200
     43 H2'A       -1.4770   -2.2460   -0.8550 hc        1 DUA      0.097200
     44 H20        -7.3880    1.5410   -5.4700 ha        1 DUA      0.156667
     45 H21        -9.5250    1.6110   -4.1750 ha        1 DUA      0.159667
     46 H22        -9.5380    2.5590   -1.8590 ha        1 DUA      0.156667
     47 H23        -7.4470    3.3930   -0.8360 ha        1 DUA      0.142500
     48 H25        -5.9410    1.5140   -0.2560 ha        1 DUA      0.142500
     49 H26        -6.0040    1.5340    2.2250 ha        1 DUA      0.156667
     50 H27        -5.1150    3.4980    3.4910 ha        1 DUA      0.159667
     51 H28        -4.1620    5.4460    2.2460 ha        1 DUA      0.156667
     52 H29        -4.0810    5.4380   -0.2220 ha        1 DUA      0.142500
     53 H3'        -3.6290   -1.4320   -1.4880 h1        1 DUA      0.051700
     54 H31        -2.4710    4.7980   -2.0750 ha        1 DUA      0.142500
     55 H32        -2.0480    6.9800   -3.1010 ha        1 DUA      0.156667
     56 H33        -3.9210    8.3160   -4.0780 ha        1 DUA      0.159667
     57 H34        -6.2520    7.4050   -4.0180 ha        1 DUA      0.156667
     58 H35        -6.7020    5.1810   -3.0390 ha        1 DUA      0.142500
     59 H4'        -2.7740    0.3300   -3.8020 h1        1 DUA      0.110700
     60 H5'        -3.9580    0.8900   -0.9480 hx        1 DUA      0.113700
     61 H5'A       -4.9010    0.7150   -2.5180 hx        1 DUA      0.113700
     62 HN3         1.1890    1.9780    1.9600 hn        1 DUA      0.364500
     63 H221       -2.9150    2.8090   -1.7820 hn        1 DUA      0.452800
@<TRIPOS>BOND
     1    1    3 1   
     2    1   10 1   
     3    1   11 1   
     4    2   26 1   
     5    2   36 1   
     6    3    5 2   
     7    3    6 1   
     8    4   12 1   
     9    4   35 1   
    10    4   37 1   
    11    4   63 1   
    12    6    7 1   
    13    6   62 1   
    14    7    8 2   
    15    7    9 1   
    16    9   10 2   
    17    9   38 1   
    18   10   39 1   
    19   11   15 1   
    20   11   34 1   
    21   11   40 1   
    22   12   13 1   
    23   12   20 1   
    24   12   27 1   
    25   13   14 ar  
    26   13   19 ar  
    27   14   16 ar  
    28   14   41 1   
    29   15   26 1   
    30   15   42 1   
    31   15   43 1   
    32   16   17 ar  
    33   16   44 1   
    34   17   18 ar  
    35   17   45 1   
    36   18   19 ar  
    37   18   46 1   
    38   19   47 1   
    39   20   21 ar  
    40   20   25 ar  
    41   21   22 ar  
    42   21   48 1   
    43   22   23 ar  
    44   22   49 1   
    45   23   24 ar  
    46   23   50 1   
    47   24   25 ar  
    48   24   51 1   
    49   25   52 1   
    50   26   33 1   
    51   26   53 1   
    52   27   28 ar  
    53   27   32 ar  
    54   28   29 ar  
    55   28   54 1   
    56   29   30 ar  
    57   29   55 1   
    58   30   31 ar  
    59   30   56 1   
    60   31   32 ar  
    61   31   57 1   
    62   32   58 1   
    63   33   34 1   
    64   33   35 1   
    65   33   59 1   
    66   35   60 1   
    67   35   61 1   
@<TRIPOS>SUBSTRUCTURE
     1 DUA         1 TEMP              0 ****  ****    0 ROOT
