@<TRIPOS>MOLECULE
DUA
   63    67     1     0     0
SMALL
bcc


@<TRIPOS>ATOM
      1 N1         -0.7230    0.1620   -0.0700 n         1 DUA     -0.405000
      2 O1         -3.1920   -1.9730   -3.4390 oh        1 DUA     -0.582800
      3 C2          0.3780    0.9740    0.3520 c         1 DUA      0.810500
      4 N2         -3.7410    2.4990   -2.3170 n4        1 DUA     -0.764000
      5 O2          1.3000    1.2500   -0.4420 o         1 DUA     -0.617500
      6 N3          0.3930    1.4450    1.6700 n         1 DUA     -0.582500
      7 C4         -0.6290    1.1700    2.5970 c         1 DUA      0.707700
      8 O4         -0.5560    1.6440    3.7390 o         1 DUA     -0.574500
      9 C5         -1.7360    0.3330    2.1060 cc        1 DUA     -0.288200
     10 C6         -1.7470   -0.1150    0.8280 cd        1 DUA      0.018600
     11 C1'        -0.7840   -0.2250   -1.4670 c3        1 DUA      0.310500
     12 C17        -4.9240    3.4250   -1.9330 c3        1 DUA      0.354100
     13 C18        -6.2030    2.8870   -2.5510 ca        1 DUA     -0.157300
     14 C19        -6.2170    2.3910   -3.8650 ca        1 DUA     -0.114333
     15 C2'        -1.4520   -1.5870   -1.7460 c3        1 DUA     -0.156400
     16 C20        -7.4010    1.9300   -4.4340 ca        1 DUA     -0.120333
     17 C21        -8.5950    1.9780   -3.7110 ca        1 DUA     -0.089000
     18 C22        -8.5960    2.5040   -2.4210 ca        1 DUA     -0.120333
     19 C23        -7.4110    2.9610   -1.8450 ca        1 DUA     -0.114333
     20 C24        -4.9740    3.4640   -0.4190 ca        1 DUA     -0.157300
     21 C25        -5.5160    2.3810    0.2920 ca        1 DUA     -0.114333
     22 C26        -5.5610    2.3990    1.6830 ca        1 DUA     -0.120333
     23 C27        -5.0660    3.4990    2.3870 ca        1 DUA     -0.089000
     24 C28        -4.5330    4.5800    1.6890 ca        1 DUA     -0.120333
     25 C29        -4.4850    4.5650    0.2930 ca        1 DUA     -0.114333
     26 C3'        -2.8550   -1.2580   -2.2690 c3        1 DUA      0.130100
     27 C30        -4.6180    4.7940   -2.5300 ca        1 DUA     -0.157300
     28 C31        -3.3170    5.3230   -2.5430 ca        1 DUA     -0.114333
     29 C32        -3.0680    6.5720   -3.1080 ca        1 DUA     -0.120333
     30 C33        -4.1140    7.3210   -3.6500 ca        1 DUA     -0.089000
     31 C34        -5.4120    6.8140   -3.6160 ca        1 DUA     -0.120333
     32 C35        -5.6630    5.5590   -3.0610 ca        1 DUA     -0.114333
     33 C4'        -2.7810    0.2300   -2.6760 c3        1 DUA      0.104100
     34 O4'        -1.5360    0.7590   -2.2260 os        1 DUA     -0.446600
     35 C5'        -3.9280    1.0480   -2.0620 c3        1 DUA      0.083800
     36 HO1        -3.1170   -2.9150   -3.2350 ho        1 DUA      0.431000
     37 HN2        -3.5450    2.6420   -3.3140 hn        1 DUA      0.452800
     38 H5         -2.5230    0.0870    2.8310 ha        1 DUA      0.185000
     39 H6         -2.5690   -0.7440    0.4380 h4        1 DUA      0.151000
     40 H1'         0.2650   -0.1600   -1.8950 h2        1 DUA      0.151700
     41 H19        -5.3080    2.3830   -4.4850 ha        1 DUA      0.142500
     42 H2'        -1.4850   -2.2500   -0.8500 hc        1 DUA      0.097200
     43 H2'A       -0.8610   -2.1120   -2.5420 hc        1 DUA      0.097200
     44 H20        -7.3960    1.5370   -5.4630 ha        1 DUA      0.156667
     45 H21        -9.5300    1.6140   -4.1650 ha        1 DUA      0.159667
     46 H22        -9.5370    2.5680   -1.8510 ha        1 DUA      0.156667
     47 H23        -7.4430    3.4010   -0.8340 ha        1 DUA      0.142500
     48 H25        -5.9390    1.5210   -0.2520 ha        1 DUA      0.142500
     49 H26        -5.9980    1.5480    2.2290 ha        1 DUA      0.156667
     50 H27        -5.1030    3.5130    3.4880 ha        1 DUA      0.159667
     51 H28        -4.1480    5.4560    2.2360 ha        1 DUA      0.156667
     52 H29        -4.0720    5.4410   -0.2320 ha        1 DUA      0.142500
     53 H3'        -3.6370   -1.4330   -1.4810 h1        1 DUA      0.051700
     54 H31        -2.4660    4.7930   -2.0870 ha        1 DUA      0.142500
     55 H32        -2.0410    6.9710   -3.1190 ha        1 DUA      0.156667
     56 H33        -3.9140    8.3080   -4.0960 ha        1 DUA      0.159667
     57 H34        -6.2470    7.4030   -4.0280 ha        1 DUA      0.156667
     58 H35        -6.6990    5.1820   -3.0420 ha        1 DUA      0.142500
     59 H4'        -2.7810    0.3220   -3.8000 h1        1 DUA      0.110700
     60 H5'        -3.9600    0.8910   -0.9460 hx        1 DUA      0.113700
     61 H5'A       -4.9060    0.7140   -2.5150 hx        1 DUA      0.113700
     62 HN3         1.1940    1.9730    1.9530 hn        1 DUA      0.364500
     63 H221       -2.9140    2.8060   -1.7870 hn        1 DUA      0.452800
@<TRIPOS>BOND
     1    1    3 1   
     2    1   10 1   
     3    1   11 1   
     4    2   26 1   
     5    2   36 1   
     6    3    5 2   
     7    3    6 1   
     8    4   12 1   
     9    4   35 1   
    10    4   37 1   
    11    4   63 1   
    12    6    7 1   
    13    6   62 1   
    14    7    8 2   
    15    7    9 1   
    16    9   10 2   
    17    9   38 1   
    18   10   39 1   
    19   11   15 1   
    20   11   34 1   
    21   11   40 1   
    22   12   13 1   
    23   12   20 1   
    24   12   27 1   
    25   13   14 ar  
    26   13   19 ar  
    27   14   16 ar  
    28   14   41 1   
    29   15   26 1   
    30   15   42 1   
    31   15   43 1   
    32   16   17 ar  
    33   16   44 1   
    34   17   18 ar  
    35   17   45 1   
    36   18   19 ar  
    37   18   46 1   
    38   19   47 1   
    39   20   21 ar  
    40   20   25 ar  
    41   21   22 ar  
    42   21   48 1   
    43   22   23 ar  
    44   22   49 1   
    45   23   24 ar  
    46   23   50 1   
    47   24   25 ar  
    48   24   51 1   
    49   25   52 1   
    50   26   33 1   
    51   26   53 1   
    52   27   28 ar  
    53   27   32 ar  
    54   28   29 ar  
    55   28   54 1   
    56   29   30 ar  
    57   29   55 1   
    58   30   31 ar  
    59   30   56 1   
    60   31   32 ar  
    61   31   57 1   
    62   32   58 1   
    63   33   34 1   
    64   33   35 1   
    65   33   59 1   
    66   35   60 1   
    67   35   61 1   
@<TRIPOS>SUBSTRUCTURE
     1 DUA         1 TEMP              0 ****  ****    0 ROOT
