@<TRIPOS>MOLECULE
DUA
   63    67     1     0     0
SMALL
bcc


@<TRIPOS>ATOM
      1 N1         -0.7180    0.1730   -0.0860 n         1 DUA     -0.405000
      2 O1         -3.1860   -1.9530   -3.4610 oh        1 DUA     -0.582800
      3 C2          0.3820    0.9860    0.3390 c         1 DUA      0.810500
      4 N2         -3.7460    2.5120   -2.3170 n4        1 DUA     -0.764000
      5 O2          1.3010    1.2680   -0.4560 o         1 DUA     -0.617500
      6 N3          0.3980    1.4510    1.6580 n         1 DUA     -0.582500
      7 C4         -0.6230    1.1690    2.5860 c         1 DUA      0.707700
      8 O4         -0.5490    1.6370    3.7310 o         1 DUA     -0.574500
      9 C5         -1.7280    0.3310    2.0930 cc        1 DUA     -0.288200
     10 C6         -1.7400   -0.1110    0.8130 cd        1 DUA      0.018600
     11 C1'        -0.7800   -0.2070   -1.4850 c3        1 DUA      0.310500
     12 C17        -4.9320    3.4320   -1.9290 c3        1 DUA      0.354100
     13 C18        -6.2100    2.8930   -2.5480 ca        1 DUA     -0.157300
     14 C19        -6.2230    2.4030   -3.8640 ca        1 DUA     -0.114333
     15 C2'        -1.4440   -1.5690   -1.7690 c3        1 DUA     -0.156400
     16 C20        -7.4070    1.9410   -4.4350 ca        1 DUA     -0.120333
     17 C21        -8.6000    1.9820   -3.7110 ca        1 DUA     -0.089000
     18 C22        -8.6020    2.5020   -2.4180 ca        1 DUA     -0.120333
     19 C23        -7.4170    2.9610   -1.8410 ca        1 DUA     -0.114333
     20 C24        -4.9810    3.4650   -0.4150 ca        1 DUA     -0.157300
     21 C25        -5.5190    2.3770    0.2920 ca        1 DUA     -0.114333
     22 C26        -5.5640    2.3880    1.6830 ca        1 DUA     -0.120333
     23 C27        -5.0730    3.4870    2.3910 ca        1 DUA     -0.089000
     24 C28        -4.5440    4.5740    1.6980 ca        1 DUA     -0.120333
     25 C29        -4.4970    4.5650    0.3020 ca        1 DUA     -0.114333
     26 C3'        -2.8490   -1.2420   -2.2880 c3        1 DUA      0.130100
     27 C30        -4.6300    4.8050   -2.5200 ca        1 DUA     -0.157300
     28 C31        -3.3310    5.3380   -2.5300 ca        1 DUA     -0.114333
     29 C32        -3.0860    6.5900   -3.0900 ca        1 DUA     -0.120333
     30 C33        -4.1350    7.3380   -3.6300 ca        1 DUA     -0.089000
     31 C34        -5.4300    6.8270   -3.5990 ca        1 DUA     -0.120333
     32 C35        -5.6780    5.5680   -3.0490 ca        1 DUA     -0.114333
     33 C4'        -2.7800    0.2480   -2.6880 c3        1 DUA      0.104100
     34 O4'        -1.5370    0.7780   -2.2370 os        1 DUA     -0.446600
     35 C5'        -3.9290    1.0590   -2.0690 c3        1 DUA      0.083800
     36 HO1        -3.1070   -2.8960   -3.2610 ho        1 DUA      0.431000
     37 HN2        -3.5520    2.6600   -3.3140 hn        1 DUA      0.452800
     38 H5         -2.5130    0.0800    2.8180 ha        1 DUA      0.185000
     39 H6         -2.5610   -0.7400    0.4200 h4        1 DUA      0.151000
     40 H1'         0.2680   -0.1370   -1.9140 h2        1 DUA      0.151700
     41 H19        -5.3150    2.4000   -4.4850 ha        1 DUA      0.142500
     42 H2'        -0.8530   -2.0900   -2.5680 hc        1 DUA      0.097200
     43 H2'A       -1.4740   -2.2370   -0.8750 hc        1 DUA      0.097200
     44 H20        -7.4010    1.5520   -5.4660 ha        1 DUA      0.156667
     45 H21        -9.5340    1.6160   -4.1650 ha        1 DUA      0.159667
     46 H22        -9.5430    2.5600   -1.8470 ha        1 DUA      0.156667
     47 H23        -7.4510    3.3960   -0.8280 ha        1 DUA      0.142500
     48 H25        -5.9390    1.5180   -0.2550 ha        1 DUA      0.142500
     49 H26        -5.9970    1.5330    2.2250 ha        1 DUA      0.156667
     50 H27        -5.1090    3.4970    3.4930 ha        1 DUA      0.159667
     51 H28        -4.1620    5.4490    2.2490 ha        1 DUA      0.156667
     52 H29        -4.0880    5.4450   -0.2190 ha        1 DUA      0.142500
     53 H3'        -3.6300   -1.4240   -1.4990 h1        1 DUA      0.051700
     54 H31        -2.4800    4.8100   -2.0750 ha        1 DUA      0.142500
     55 H32        -2.0610    6.9930   -3.0990 ha        1 DUA      0.156667
     56 H33        -3.9380    8.3280   -4.0720 ha        1 DUA      0.159667
     57 H34        -6.2670    7.4140   -4.0100 ha        1 DUA      0.156667
     58 H35        -6.7130    5.1880   -3.0330 ha        1 DUA      0.142500
     59 H4'        -2.7820    0.3450   -3.8120 h1        1 DUA      0.110700
     60 H5'        -4.9060    0.7240   -2.5210 hx        1 DUA      0.113700
     61 H5'A       -3.9590    0.8980   -0.9540 hx        1 DUA      0.113700
     62 HN3         1.1970    1.9800    1.9430 hn        1 DUA      0.364500
     63 H221       -2.9210    2.8190   -1.7870 hn        1 DUA      0.452800
@<TRIPOS>BOND
     1    1    3 1   
     2    1   10 1   
     3    1   11 1   
     4    2   26 1   
     5    2   36 1   
     6    3    5 2   
     7    3    6 1   
     8    4   12 1   
     9    4   35 1   
    10    4   37 1   
    11    4   63 1   
    12    6    7 1   
    13    6   62 1   
    14    7    8 2   
    15    7    9 1   
    16    9   10 2   
    17    9   38 1   
    18   10   39 1   
    19   11   15 1   
    20   11   34 1   
    21   11   40 1   
    22   12   13 1   
    23   12   20 1   
    24   12   27 1   
    25   13   14 ar  
    26   13   19 ar  
    27   14   16 ar  
    28   14   41 1   
    29   15   26 1   
    30   15   42 1   
    31   15   43 1   
    32   16   17 ar  
    33   16   44 1   
    34   17   18 ar  
    35   17   45 1   
    36   18   19 ar  
    37   18   46 1   
    38   19   47 1   
    39   20   21 ar  
    40   20   25 ar  
    41   21   22 ar  
    42   21   48 1   
    43   22   23 ar  
    44   22   49 1   
    45   23   24 ar  
    46   23   50 1   
    47   24   25 ar  
    48   24   51 1   
    49   25   52 1   
    50   26   33 1   
    51   26   53 1   
    52   27   28 ar  
    53   27   32 ar  
    54   28   29 ar  
    55   28   54 1   
    56   29   30 ar  
    57   29   55 1   
    58   30   31 ar  
    59   30   56 1   
    60   31   32 ar  
    61   31   57 1   
    62   32   58 1   
    63   33   34 1   
    64   33   35 1   
    65   33   59 1   
    66   35   60 1   
    67   35   61 1   
@<TRIPOS>SUBSTRUCTURE
     1 DUA         1 TEMP              0 ****  ****    0 ROOT
