@<TRIPOS>MOLECULE
DUC
   14    14     1     0     0
SMALL
bcc


@<TRIPOS>ATOM
      1 N3         -0.7650    0.3200   -1.3800 n         1 DUC     -0.595500
      2 C2          0.7690    0.3200   -1.3800 c         1 DUC      0.799500
      3 O2          1.3780   -0.0860   -2.3530 o         1 DUC     -0.643500
      4 N1          1.3720    0.3200   -0.1390 n         1 DUC     -0.553900
      5 C6          0.5840   -0.3170    1.0100 c3        1 DUC      0.086000
      6 C5         -0.5500    0.0770    1.1320 c3        1 DUC     -0.164400
      7 C4         -1.3530   -0.1440   -0.2590 c         1 DUC      0.706500
      8 O4         -2.5520   -0.3550   -0.2420 o         1 DUC     -0.605500
      9 HN3        -1.2210    0.3140   -2.1700 hn        1 DUC      0.351500
     10 HN1         2.2760    0.4210   -0.0700 hn        1 DUC      0.332500
     11 H61         0.5600   -1.2820    0.8670 h1        1 DUC      0.050200
     12 H62         1.0610   -0.1410    1.8430 h1        1 DUC      0.050200
     13 H51        -0.6390    1.0340    1.2990 hc        1 DUC      0.092200
     14 H52        -0.9200   -0.4820    1.8420 hc        1 DUC      0.092200
@<TRIPOS>BOND
     1    1    2 1   
     2    1    7 1   
     3    1    9 1   
     4    2    3 2   
     5    2    4 1   
     6    4    5 1   
     7    4   10 1   
     8    5    6 1   
     9    5   11 1   
    10    5   12 1   
    11    6    7 1   
    12    6   13 1   
    13    6   14 1   
    14    7    8 2   
@<TRIPOS>SUBSTRUCTURE
     1 DUC         1 TEMP              0 ****  ****    0 ROOT
