@<TRIPOS>MOLECULE
DUC
   14    14     1     0     0
SMALL
bcc


@<TRIPOS>ATOM
      1 N3         -0.0200    0.0250   -0.0240 n         1 DUC     -0.595500
      2 C2          1.3900   -0.0380   -0.0470 c         1 DUC      0.799500
      3 O2          1.9870   -0.1940   -1.1340 o         1 DUC     -0.643500
      4 N1          2.0940    0.1230    1.1530 n         1 DUC     -0.553900
      5 C6          1.4170   -0.0400    2.4110 c3        1 DUC      0.086000
      6 C5          0.0060    0.5430    2.4140 c3        1 DUC     -0.164400
      7 C4         -0.7530    0.2810    1.1330 c         1 DUC      0.706500
      8 O4         -1.9930    0.3080    1.0790 o         1 DUC     -0.605500
      9 HN3        -0.4920   -0.0820   -0.8960 hn        1 DUC      0.351500
     10 HN1         3.0590   -0.1190    1.1170 hn        1 DUC      0.332500
     11 H61         1.3570   -1.1340    2.6900 h1        1 DUC      0.050200
     12 H62         2.0300    0.4790    3.2030 h1        1 DUC      0.050200
     13 H51         0.0430    1.6570    2.5540 hc        1 DUC      0.092200
     14 H52        -0.5740    0.1060    3.2690 hc        1 DUC      0.092200
@<TRIPOS>BOND
     1    1    2 1   
     2    1    7 1   
     3    1    9 1   
     4    2    3 2   
     5    2    4 1   
     6    4    5 1   
     7    4   10 1   
     8    5    6 1   
     9    5   11 1   
    10    5   12 1   
    11    6    7 1   
    12    6   13 1   
    13    6   14 1   
    14    7    8 2   
@<TRIPOS>SUBSTRUCTURE
     1 DUC         1 TEMP              0 ****  ****    0 ROOT
