@<TRIPOS>MOLECULE
DUC
   14    14     1     0     0
SMALL
bcc


@<TRIPOS>ATOM
      1 N3         -0.0180    0.0220   -0.0320 ns        1 DUC     -0.595500
      2 C2          1.3920   -0.0330   -0.0580 c         1 DUC      0.799500
      3 O2          1.9880   -0.1810   -1.1470 o         1 DUC     -0.643500
      4 N1          2.0980    0.1280    1.1420 ns        1 DUC     -0.553900
      5 C6          1.4240   -0.0440    2.4000 c3        1 DUC      0.086000
      6 C5          0.0100    0.5310    2.4080 c3        1 DUC     -0.164400
      7 C4         -0.7500    0.2690    1.1270 c         1 DUC      0.706500
      8 O4         -1.9910    0.2890    1.0750 o         1 DUC     -0.605500
      9 HN3        -0.4900   -0.0850   -0.9040 hn        1 DUC      0.351500
     10 HN1         3.0640   -0.1080    1.1030 hn        1 DUC      0.332500
     11 H61         1.3710   -1.1400    2.6750 h1        1 DUC      0.050200
     12 H62         2.0350    0.4760    3.1920 h1        1 DUC      0.050200
     13 H51        -0.5660    0.0870    3.2620 hc        1 DUC      0.092200
     14 H52         0.0410    1.6440    2.5520 hc        1 DUC      0.092200
@<TRIPOS>BOND
     1    1    2 1   
     2    1    7 1   
     3    1    9 1   
     4    2    3 2   
     5    2    4 1   
     6    4    5 1   
     7    4   10 1   
     8    5    6 1   
     9    5   11 1   
    10    5   12 1   
    11    6    7 1   
    12    6   13 1   
    13    6   14 1   
    14    7    8 2   
@<TRIPOS>SUBSTRUCTURE
     1 DUC         1 TEMP              0 ****  ****    0 ROOT
