@<TRIPOS>MOLECULE
DUC
   14    14     1     0     0
SMALL
bcc


@<TRIPOS>ATOM
      1 N3         -0.0150    0.0230   -0.0330 n         1 DUC     -0.595500
      2 C2          1.3950   -0.0300   -0.0570 c         1 DUC      0.799500
      3 O2          1.9920   -0.1760   -1.1450 o         1 DUC     -0.643500
      4 N1          2.0980    0.1290    1.1440 n         1 DUC     -0.553900
      5 C6          1.4220   -0.0450    2.4010 c3        1 DUC      0.086000
      6 C5          0.0080    0.5280    2.4080 c3        1 DUC     -0.164400
      7 C4         -0.7500    0.2680    1.1250 c         1 DUC      0.706500
      8 O4         -1.9900    0.2860    1.0710 o         1 DUC     -0.605500
      9 HN3        -0.4870   -0.0830   -0.9060 hn        1 DUC      0.351500
     10 HN1         3.0650   -0.1050    1.1060 hn        1 DUC      0.332500
     11 H61         2.0320    0.4740    3.1950 h1        1 DUC      0.050200
     12 H62         1.3710   -1.1410    2.6740 h1        1 DUC      0.050200
     13 H51         0.0370    1.6420    2.5530 hc        1 DUC      0.092200
     14 H52        -0.5690    0.0830    3.2600 hc        1 DUC      0.092200
@<TRIPOS>BOND
     1    1    2 1   
     2    1    7 1   
     3    1    9 1   
     4    2    3 2   
     5    2    4 1   
     6    4    5 1   
     7    4   10 1   
     8    5    6 1   
     9    5   11 1   
    10    5   12 1   
    11    6    7 1   
    12    6   13 1   
    13    6   14 1   
    14    7    8 2   
@<TRIPOS>SUBSTRUCTURE
     1 DUC         1 TEMP              0 ****  ****    0 ROOT
