@<TRIPOS>MOLECULE
DUC
   14    14     1     0     0
SMALL
bcc


@<TRIPOS>ATOM
      1 N3         -1.0520    0.0610   -0.0220 n         1 DUC     -0.595500
      2 C2         -0.3760    0.0310    1.2170 c         1 DUC      0.799500
      3 O2         -1.0300    0.0790    2.2820 o         1 DUC     -0.643500
      4 N1          1.0190   -0.1000    1.2250 n         1 DUC     -0.553900
      5 C6          1.7730    0.1860    0.0340 c3        1 DUC      0.086000
      6 C5          1.0920   -0.3030   -1.2410 c3        1 DUC     -0.164400
      7 C4         -0.4030   -0.0730   -1.2470 c         1 DUC      0.706500
      8 O4         -1.0630   -0.0230   -2.2980 o         1 DUC     -0.605500
      9 HN3        -2.0450    0.1440    0.0070 hn        1 DUC      0.351500
     10 HN1         1.4590    0.0760    2.1000 hn        1 DUC      0.332500
     11 H61         2.7750   -0.3210    0.1320 h1        1 DUC      0.050200
     12 H62         1.9610    1.2970   -0.0590 h1        1 DUC      0.050200
     13 H51         1.5370    0.2230   -2.1250 hc        1 DUC      0.092200
     14 H52         1.2570   -1.4060   -1.3750 hc        1 DUC      0.092200
@<TRIPOS>BOND
     1    1    2 1   
     2    1    7 1   
     3    1    9 1   
     4    2    3 2   
     5    2    4 1   
     6    4    5 1   
     7    4   10 1   
     8    5    6 1   
     9    5   11 1   
    10    5   12 1   
    11    6    7 1   
    12    6   13 1   
    13    6   14 1   
    14    7    8 2   
@<TRIPOS>SUBSTRUCTURE
     1 DUC         1 TEMP              0 ****  ****    0 ROOT
