@<TRIPOS>MOLECULE
DUD
   35    36     1     0     0
SMALL
bcc


@<TRIPOS>ATOM
      1 N1          0.0000    0.0000    0.0000 n         1 DUD      0.099000
      2 C2          1.3450    0.0000    0.0000 c         1 DUD      0.579500
      3 N3          2.0370    0.0000    1.1550 ns        1 DUD     -0.153500
      4 C4          1.3870   -0.0130    2.3360 c         1 DUD      0.593700
      5 C5         -0.0280   -0.0190    2.3510 cc        1 DUD     -0.388200
      6 C6         -0.6970   -0.0120    1.1770 cd        1 DUD     -0.299400
      7 O2          1.9450    0.0110   -1.0570 o         1 DUD     -0.712500
      8 O4          2.0120   -0.0180    3.3820 o         1 DUD     -0.803500
      9 C1'        -0.7240    0.0060   -1.2730 c3        1 DUD      0.219500
     10 C2'        -0.3690    1.2670   -2.0880 c3        1 DUD     -0.117400
     11 C3'        -0.3340    0.7710   -3.5510 c3        1 DUD      0.155100
     12 C4'        -0.6710   -0.7330   -3.4480 c3        1 DUD      0.155100
     13 O4'        -0.3030   -1.1010   -2.1000 os        1 DUD     -0.343600
     14 O3'        -1.3150    1.4530   -4.3350 oh        1 DUD     -0.596800
     15 C5'         0.1420   -1.5390   -4.4610 c3        1 DUD      0.244400
     16 O5'        -0.1340   -2.9310   -4.2960 os        1 DUD     -0.472200
     17 PA          0.7510   -3.7150   -5.3880 p5        1 DUD      0.870800
     18 O1A         2.1840   -3.4330   -5.1540 o         1 DUD     -0.677000
     19 O2A         0.3410   -3.2220   -6.8650 o         1 DUD     -0.677000
     20 O3A         0.4860   -5.2970   -5.2580 os        1 DUD     -0.460800
     21 PB          1.3980   -6.0150   -6.3740 p5        1 DUD      0.790900
     22 O1B         2.8220   -5.6990   -6.1240 o         1 DUD     -0.635500
     23 O2B         1.1820   -7.6090   -6.3000 o         1 DUD     -0.635500
     24 O3B         0.9780   -5.4850   -7.8340 o         1 DUD     -0.635500
     25 HN3         3.0380    0.0020    1.1370 hn        1 DUD      0.176500
     26 H5         -0.5670   -0.0290    3.2900 ha        1 DUD      0.112000
     27 H6         -1.7750   -0.1170    1.1670 h4        1 DUD      0.110000
     28 H1'        -1.7930   -0.0400   -1.1030 h2        1 DUD      0.009700
     29 H2'1       -1.1320    2.0250   -1.9640 hc        1 DUD      0.025700
     30 H2'2        0.6030    1.6450   -1.7940 hc        1 DUD      0.025700
     31 H3'         0.6550    0.9070   -3.9710 h1        1 DUD      0.029700
     32 H4'        -1.7320   -0.8890   -3.6010 h1        1 DUD      0.010700
     33 HO3'       -0.8950    2.1120   -4.8610 ho        1 DUD      0.370000
     34 H5'1       -0.1270   -1.2340   -5.4650 h1        1 DUD      0.016200
     35 H5'2        1.1990   -1.3590   -4.3000 h1        1 DUD      0.016200
@<TRIPOS>BOND
     1    1    2 1   
     2    1    6 1   
     3    1    9 1   
     4    2    3 1   
     5    2    7 2   
     6    3    4 1   
     7    3   25 1   
     8    4    5 1   
     9    4    8 2   
    10    5    6 2   
    11    5   26 1   
    12    6   27 1   
    13    9   10 1   
    14    9   13 1   
    15    9   28 1   
    16   10   11 1   
    17   10   29 1   
    18   10   30 1   
    19   11   12 1   
    20   11   14 1   
    21   11   31 1   
    22   12   13 1   
    23   12   15 1   
    24   12   32 1   
    25   14   33 1   
    26   15   16 1   
    27   15   34 1   
    28   15   35 1   
    29   16   17 1   
    30   17   18 1   
    31   17   19 1   
    32   17   20 1   
    33   20   21 1   
    34   21   22 1   
    35   21   23 1   
    36   21   24 1   
@<TRIPOS>SUBSTRUCTURE
     1 DUD         1 TEMP              0 ****  ****    0 ROOT
