@<TRIPOS>MOLECULE
DUL
   31    32     1     0     0
SMALL
bcc


@<TRIPOS>ATOM
      1 C1          0.0660    0.2340    0.4530 c3        1 DUL     -0.094100
      2 C2          1.5280    0.0760    0.1520 c3        1 DUL     -0.028300
      3 S3          2.3600    0.1900    1.7110 ss        1 DUL     -0.166000
      4 C4          4.0080    0.0230    1.3820 ca        1 DUL      0.006900
      5 C5          4.5720   -0.1770    0.1140 ca        1 DUL     -0.105000
      6 C6          5.9520   -0.3020   -0.0340 ca        1 DUL     -0.104000
      7 C7          6.7930   -0.2300    1.0740 ca        1 DUL     -0.093000
      8 C8          6.2450   -0.0290    2.3520 ca        1 DUL     -0.063000
      9 C9          4.8550    0.0960    2.4950 ca        1 DUL     -0.110000
     10 C10         7.0940    0.0440    3.5120 cc        1 DUL      0.097900
     11 C11         8.4670    0.3070    3.5270 cd        1 DUL     -0.190000
     12 C12         8.9970    0.3060    4.8300 cd        1 DUL      0.014000
     13 C13         8.0070    0.0400    5.7980 cc        1 DUL     -0.325700
     14 S14         6.5080   -0.1950    5.0650 ss        1 DUL      0.061200
     15 C15         8.3360   -0.0020    7.1810 c         1 DUL      0.620700
     16 O16         9.4000    0.1540    7.7640 o         1 DUL     -0.433100
     17 N17         7.1690   -0.2960    8.1310 nz        1 DUL     -0.768400
     18 H1         -0.2910   -0.5730    1.1390 hc        1 DUL      0.057700
     19 H1A        -0.1410    1.2240    0.9280 hc        1 DUL      0.057700
     20 H1B        -0.5230    0.1720   -0.4960 hc        1 DUL      0.057700
     21 H2          1.8780    0.8790   -0.5430 h1        1 DUL      0.073200
     22 H2A         1.7280   -0.9100   -0.3330 h1        1 DUL      0.073200
     23 H5          3.9260   -0.2360   -0.7760 ha        1 DUL      0.151000
     24 H6          6.3810   -0.4590   -1.0360 ha        1 DUL      0.155000
     25 H7          7.8810   -0.3370    0.9460 ha        1 DUL      0.145000
     26 H9          4.4160    0.2650    3.4920 ha        1 DUL      0.136000
     27 H11         9.0670    0.5050    2.6310 ha        1 DUL      0.194000
     28 H12        10.0510    0.4940    5.0710 ha        1 DUL      0.192000
     29 HN17        6.4500    0.4240    8.0370 hn        1 DUL      0.463467
     30 HN1A        7.5140   -0.3030    9.0990 hn        1 DUL      0.463467
     31 H173        6.7620   -1.2090    7.9150 hn        1 DUL      0.463467
@<TRIPOS>BOND
     1    1    2 1   
     2    1   18 1   
     3    1   19 1   
     4    1   20 1   
     5    2    3 1   
     6    2   21 1   
     7    2   22 1   
     8    3    4 1   
     9    4    5 ar  
    10    4    9 ar  
    11    5    6 ar  
    12    5   23 1   
    13    6    7 ar  
    14    6   24 1   
    15    7    8 ar  
    16    7   25 1   
    17    8    9 ar  
    18    8   10 1   
    19    9   26 1   
    20   10   11 2   
    21   10   14 1   
    22   11   12 1   
    23   11   27 1   
    24   12   13 2   
    25   12   28 1   
    26   13   14 1   
    27   13   15 1   
    28   15   16 2   
    29   15   17 1   
    30   17   29 1   
    31   17   30 1   
    32   17   31 1   
@<TRIPOS>SUBSTRUCTURE
     1 DUL         1 TEMP              0 ****  ****    0 ROOT
