@<TRIPOS>MOLECULE
DUL
   31    32     1     0     0
SMALL
bcc


@<TRIPOS>ATOM
      1 C1          0.0650    0.1980    0.4530 c3        1 DUL     -0.094100
      2 C2          1.5280    0.0480    0.1520 c3        1 DUL     -0.028300
      3 S3          2.3590    0.1700    1.7110 ss        1 DUL     -0.166000
      4 C4          4.0070    0.0120    1.3820 ca        1 DUL      0.006900
      5 C5          4.5730   -0.1880    0.1150 ca        1 DUL     -0.105000
      6 C6          5.9530   -0.3050   -0.0330 ca        1 DUL     -0.104000
      7 C7          6.7940   -0.2260    1.0740 ca        1 DUL     -0.093000
      8 C8          6.2450   -0.0260    2.3520 ca        1 DUL     -0.063000
      9 C9          4.8540    0.0920    2.4940 ca        1 DUL     -0.110000
     10 C10         7.0940    0.0550    3.5120 cc        1 DUL      0.097900
     11 C11         8.4660    0.3260    3.5260 cd        1 DUL     -0.190000
     12 C12         8.9950    0.3310    4.8290 cd        1 DUL      0.014000
     13 C13         8.0070    0.0610    5.7980 cc        1 DUL     -0.325700
     14 S14         6.5090   -0.1830    5.0650 ss        1 DUL      0.061200
     15 C15         8.3360    0.0240    7.1800 c         1 DUL      0.620700
     16 O16         9.3990    0.1880    7.7630 o         1 DUL     -0.433100
     17 N17         7.1710   -0.2730    8.1320 n4        1 DUL     -0.768400
     18 H1         -0.2880   -0.6090    1.1410 hc        1 DUL      0.057700
     19 H1A        -0.5240    0.1310   -0.4960 hc        1 DUL      0.057700
     20 H1B        -0.1480    1.1890    0.9260 hc        1 DUL      0.057700
     21 H2          1.7330   -0.9390   -0.3300 h1        1 DUL      0.073200
     22 H2A         1.8730    0.8510   -0.5440 h1        1 DUL      0.073200
     23 H5          3.9270   -0.2520   -0.7750 ha        1 DUL      0.151000
     24 H6          6.3830   -0.4630   -1.0350 ha        1 DUL      0.155000
     25 H7          7.8820   -0.3270    0.9470 ha        1 DUL      0.145000
     26 H9          4.4150    0.2610    3.4920 ha        1 DUL      0.136000
     27 H11         9.0640    0.5240    2.6290 ha        1 DUL      0.194000
     28 H12        10.0480    0.5250    5.0690 ha        1 DUL      0.192000
     29 HN17        7.5160   -0.2760    9.0990 hn        1 DUL      0.463467
     30 HN1A        6.4480    0.4430    8.0360 hn        1 DUL      0.463467
     31 H173        6.7690   -1.1880    7.9180 hn        1 DUL      0.463467
@<TRIPOS>BOND
     1    1    2 1   
     2    1   18 1   
     3    1   19 1   
     4    1   20 1   
     5    2    3 1   
     6    2   21 1   
     7    2   22 1   
     8    3    4 1   
     9    4    5 ar  
    10    4    9 ar  
    11    5    6 ar  
    12    5   23 1   
    13    6    7 ar  
    14    6   24 1   
    15    7    8 ar  
    16    7   25 1   
    17    8    9 ar  
    18    8   10 1   
    19    9   26 1   
    20   10   11 2   
    21   10   14 1   
    22   11   12 1   
    23   11   27 1   
    24   12   13 2   
    25   12   28 1   
    26   13   14 1   
    27   13   15 1   
    28   15   16 2   
    29   15   17 1   
    30   17   29 1   
    31   17   30 1   
    32   17   31 1   
@<TRIPOS>SUBSTRUCTURE
     1 DUL         1 TEMP              0 ****  ****    0 ROOT
