@<TRIPOS>MOLECULE
DUN
   36    33     1     0     0
SMALL
bcc


@<TRIPOS>ATOM
      1 N1          0.6800   -1.9530   -0.5820 n2        1 DUN     -0.264000
      2 C2          1.8860   -1.3850   -0.3510 c1        1 DUN      0.390000
      3 N3          2.4930   -1.5400    0.8650 n2        1 DUN     -0.379000
      4 C4          1.8960   -2.2530    1.8250 c1        1 DUN      0.358000
      5 C5          0.6790   -2.8260    1.5910 c1        1 DUN     -0.354000
      6 C6          0.0770   -2.6710    0.3840 c1        1 DUN      0.096000
      7 O2          2.4290   -0.7350   -1.2260 o         1 DUN     -0.419000
      8 O4          2.4410   -2.3940    2.9140 o         1 DUN     -0.408000
      9 C1'         0.0500   -1.7910   -1.8380 c3        1 DUN      0.156000
     10 C2'        -1.5060   -2.0990   -1.7120 c3        1 DUN     -0.211000
     11 C3'        -2.1930   -0.7370   -1.7900 c3        1 DUN      0.043000
     12 C4'        -1.2110    0.1460   -1.6610 c3        1 DUN     -0.061000
     13 O4'         0.1210   -0.5720   -2.2100 os        1 DUN     -0.294000
     14 O3'        -2.8510   -0.5730   -3.0900 oh        1 DUN     -0.396000
     15 C5'        -1.0400    0.5140   -0.2240 c3        1 DUN      0.083000
     16 O5'        -0.0470    1.5320   -0.1050 os        1 DUN     -0.719000
     17 PA         -0.2160    2.5970    1.0120 p5        1 DUN      2.012000
     18 O1A        -1.5620    3.2470    0.8810 o         1 DUN     -0.921000
     19 O2A        -0.1090    1.9440    2.3380 o         1 DUN     -0.921000
     20 PB          1.4900    4.5870    2.2580 p3        1 DUN      2.582000
     21 O1B         0.2800    5.2880    2.9360 os        1 DUN     -1.268000
     22 O2B         2.1230    3.6210    3.2320 o         1 DUN     -1.272500
     23 O3B         2.5210    5.6380    1.8420 o         1 DUN     -1.272500
     24 N3A         0.9560    3.7350    0.8690 n3        1 DUN     -1.332000
     25 H3          3.3320   -1.1450    1.0260 hn        1 DUN      0.238000
     26 H5          0.2500   -3.3360    2.2770 ha        1 DUN      0.181000
     27 H6         -0.8000   -3.0830    0.2150 ha        1 DUN      0.235000
     28 H1'         0.4710   -2.3900   -2.5220 h2        1 DUN      0.120000
     29 H2'1       -1.7030   -2.5410   -0.8270 hc        1 DUN      0.091500
     30 H2'2       -1.8090   -2.6860   -2.4680 hc        1 DUN      0.091500
     31 H3'        -2.8450   -0.6350   -1.0560 h1        1 DUN      0.148000
     32 H4'        -1.4040    0.9470   -2.1920 h1        1 DUN      0.122000
     33 HA         -3.6510   -0.8820   -3.0480 ho        1 DUN      0.301000
     34 H5'1       -0.7670   -0.2530    0.2700 h1        1 DUN      0.041000
     35 H5'2       -1.8660    0.8350    0.1220 h1        1 DUN      0.041000
     36 H3A         1.4030    3.8520    0.0420 hn        1 DUN      0.162000
@<TRIPOS>BOND
     1    1    6 1   
     2    1    9 1   
     3    2    3 1   
     4    2    7 1   
     5    3   25 1   
     6    4    5 1   
     7    4    8 1   
     8    5   26 1   
     9    6   27 1   
    10    9   10 1   
    11    9   13 1   
    12    9   28 1   
    13   10   11 1   
    14   10   29 1   
    15   10   30 1   
    16   11   12 1   
    17   11   14 1   
    18   11   31 1   
    19   12   13 1   
    20   12   15 1   
    21   12   32 1   
    22   14   33 1   
    23   15   16 1   
    24   15   34 1   
    25   15   35 1   
    26   16   17 1   
    27   17   18 1   
    28   17   19 1   
    29   17   24 1   
    30   20   22 1   
    31   20   23 1   
    32   20   24 1   
    33   24   36 1   
@<TRIPOS>SUBSTRUCTURE
     1 DUN         1 TEMP              0 ****  ****    0 ROOT
