@<TRIPOS>MOLECULE
DUN
   37    37     1     0     0
SMALL
bcc


@<TRIPOS>ATOM
      1 N1          0.3130    0.5380   -0.3570 n         1 DUN     -0.272000
      2 C2          0.2380    1.1940    0.8930 c2        1 DUN      0.396000
      3 N3          1.1870    0.8690    1.8790 n         1 DUN     -0.375000
      4 C4          2.1880   -0.1050    1.6880 c2        1 DUN      0.357000
      5 C5          2.1960   -0.7670    0.3870 c2        1 DUN     -0.327000
      6 C6          1.2710   -0.4410   -0.5590 c2        1 DUN      0.079000
      7 O2         -0.6230    2.0710    1.1440 o         1 DUN     -0.405000
      8 O4          2.9750   -0.3240    2.6280 o         1 DUN     -0.380000
      9 C1'        -0.7320    0.8010   -1.3650 c3        1 DUN      0.152000
     10 C2'        -0.1920    1.4660   -2.6470 c3        1 DUN     -0.208000
     11 C3'        -0.2540    0.3780   -3.7260 c3        1 DUN      0.038000
     12 C4'        -1.1050   -0.7560   -3.1150 c3        1 DUN     -0.046000
     13 O4'        -1.3670   -0.4190   -1.7320 os        1 DUN     -0.287000
     14 O3'        -0.8750    0.9230   -4.8690 oh        1 DUN     -0.371000
     15 C5'        -0.4340   -2.1420   -3.1780 c3        1 DUN      0.058000
     16 O5'        -0.9450   -2.9040   -4.2080 os        1 DUN     -0.733000
     17 PA         -0.0280   -2.9510   -5.6470 p5        1 DUN      1.971000
     18 O1A        -0.9280   -3.6160   -6.6190 o         1 DUN     -0.863500
     19 O2A         0.2840   -1.4900   -5.7440 o         1 DUN     -0.863500
     20 PB          3.7990   -4.6490   -5.4770 p3        1 DUN      2.412000
     21 O1B         3.9310   -3.9130   -4.2010 o         1 DUN     -1.135333
     22 O2B         3.1610   -5.9800   -5.4710 o         1 DUN     -1.135333
     23 O3B         4.5090   -4.1770   -6.6790 o         1 DUN     -1.135333
     24 N3A         1.2460   -3.8380   -5.2550 n3        1 DUN     -1.003000
     25 H3          1.1170    1.3470    2.7480 hn        1 DUN      0.246000
     26 H5          2.9660   -1.5280    0.2110 ha        1 DUN      0.189000
     27 H6          1.2290   -0.9400   -1.5530 h4        1 DUN      0.206000
     28 H1'        -1.5240    1.4290   -0.8580 h2        1 DUN      0.137000
     29 H2'1       -0.8600    2.3200   -2.9210 hc        1 DUN      0.103000
     30 H2'2        0.8460    1.8560   -2.5330 hc        1 DUN      0.103000
     31 H3'         0.7730    0.0040   -3.9970 h1        1 DUN      0.136000
     32 H4'        -2.1130   -0.8030   -3.6080 h1        1 DUN      0.131000
     33 HA         -0.6710    0.3080   -5.6000 ho        1 DUN      0.278000
     34 H5'1       -0.6450   -2.6730   -2.2050 h1        1 DUN      0.050000
     35 H5'2        0.6800   -2.0140   -3.2900 h1        1 DUN      0.050000
     36 H3A         1.8420   -3.5660   -4.5100 hn        1 DUN      0.224000
     37 H3A2        1.2680   -4.8160   -5.4220 hn        1 DUN      0.224000
@<TRIPOS>BOND
     1    1    2 1   
     2    1    6 1   
     3    1    9 1   
     4    2    3 1   
     5    2    7 1   
     6    3    4 1   
     7    3   25 1   
     8    4    5 1   
     9    4    8 1   
    10    5    6 1   
    11    5   26 1   
    12    6   27 1   
    13    9   10 1   
    14    9   13 1   
    15    9   28 1   
    16   10   11 1   
    17   10   29 1   
    18   10   30 1   
    19   11   12 1   
    20   11   14 1   
    21   11   31 1   
    22   12   13 1   
    23   12   15 1   
    24   12   32 1   
    25   14   33 1   
    26   15   16 1   
    27   15   34 1   
    28   15   35 1   
    29   16   17 1   
    30   17   18 1   
    31   17   19 1   
    32   17   24 1   
    33   20   21 1   
    34   20   22 1   
    35   20   23 1   
    36   24   36 1   
    37   24   37 1   
@<TRIPOS>SUBSTRUCTURE
     1 DUN         1 TEMP              0 ****  ****    0 ROOT
