@<TRIPOS>MOLECULE
DUN
   37    37     1     0     0
SMALL
bcc


@<TRIPOS>ATOM
      1 N1          0.2920    0.5690   -0.3830 n         1 DUN     -0.272000
      2 C2          0.1990    1.2380    0.8590 c2        1 DUN      0.396000
      3 N3          1.1070    0.8950    1.8760 ns        1 DUN     -0.375000
      4 C4          2.0830   -0.1100    1.7250 c2        1 DUN      0.357000
      5 C5          2.1120   -0.7840    0.4300 c2        1 DUN     -0.327000
      6 C6          1.2270   -0.4400   -0.5460 c2        1 DUN      0.079000
      7 O2         -0.6430    2.1430    1.0750 o         1 DUN     -0.405000
      8 O4          2.8350   -0.3430    2.6910 o         1 DUN     -0.380000
      9 C1'        -0.7130    0.8520   -1.4250 c3        1 DUN      0.152000
     10 C2'        -0.1140    1.4890   -2.6950 c3        1 DUN     -0.208000
     11 C3'        -0.1750    0.3940   -3.7660 c3        1 DUN      0.038000
     12 C4'        -1.0770   -0.7090   -3.1720 c3        1 DUN     -0.046000
     13 O4'        -1.3720   -0.3520   -1.8010 os        1 DUN     -0.287000
     14 O3'        -0.7440    0.9460   -4.9330 oh        1 DUN     -0.371000
     15 C5'        -0.4470   -2.1150   -3.2030 c3        1 DUN      0.058000
     16 O5'        -0.9490   -2.8710   -4.2410 os        1 DUN     -0.733000
     17 PA          0.0100   -2.9590   -5.6510 p5        1 DUN      1.971000
     18 O1A        -0.8790   -3.6060   -6.6450 o         1 DUN     -0.863500
     19 O2A         0.3680   -1.5080   -5.7500 o         1 DUN     -0.863500
     20 PB          3.7780   -4.7670   -5.3490 p3        1 DUN      2.412000
     21 O1B         3.8930   -4.0240   -4.0760 o         1 DUN     -1.135333
     22 O2B         3.1000   -6.0780   -5.3510 o         1 DUN     -1.135333
     23 O3B         4.5380   -4.3280   -6.5320 o         1 DUN     -1.135333
     24 N3A         1.2440   -3.8790   -5.2120 n8        1 DUN     -1.003000
     25 H3          1.0240    1.3830    2.7390 hn        1 DUN      0.246000
     26 H5          2.8640   -1.5690    0.2850 ha        1 DUN      0.189000
     27 H6          1.2010   -0.9480   -1.5370 h4        1 DUN      0.206000
     28 H1'        -1.5000    1.5080   -0.9480 h2        1 DUN      0.137000
     29 H2'1       -0.7480    2.3600   -2.9970 hc        1 DUN      0.103000
     30 H2'2        0.9310    1.8500   -2.5520 hc        1 DUN      0.103000
     31 H3'         0.8480   -0.0130   -4.0020 h1        1 DUN      0.136000
     32 H4'        -2.0710   -0.7310   -3.6960 h1        1 DUN      0.131000
     33 HA         -0.5370    0.3190   -5.6520 ho        1 DUN      0.278000
     34 H5'1        0.6740   -2.0200   -3.2810 h1        1 DUN      0.050000
     35 H5'2       -0.7030   -2.6300   -2.2320 h1        1 DUN      0.050000
     36 H3A         1.2430   -4.8580   -5.3700 hn        1 DUN      0.224000
     37 H3A2        1.8250   -3.6170   -4.4520 hn        1 DUN      0.224000
@<TRIPOS>BOND
     1    1    2 1   
     2    1    6 1   
     3    1    9 1   
     4    2    3 1   
     5    2    7 1   
     6    3    4 1   
     7    3   25 1   
     8    4    5 1   
     9    4    8 1   
    10    5    6 1   
    11    5   26 1   
    12    6   27 1   
    13    9   10 1   
    14    9   13 1   
    15    9   28 1   
    16   10   11 1   
    17   10   29 1   
    18   10   30 1   
    19   11   12 1   
    20   11   14 1   
    21   11   31 1   
    22   12   13 1   
    23   12   15 1   
    24   12   32 1   
    25   14   33 1   
    26   15   16 1   
    27   15   34 1   
    28   15   35 1   
    29   16   17 1   
    30   17   18 1   
    31   17   19 1   
    32   17   24 1   
    33   20   21 1   
    34   20   22 1   
    35   20   23 1   
    36   24   36 1   
    37   24   37 1   
@<TRIPOS>SUBSTRUCTURE
     1 DUN         1 TEMP              0 ****  ****    0 ROOT
