@<TRIPOS>MOLECULE
DUO
   64    60     1     0     0
SMALL
bcc


@<TRIPOS>ATOM
      1 N1         -1.3890    4.9130   -2.7550 n3        1 DUO     -0.219000
      2 C2          0.0790    4.8210   -2.8680 c3        1 DUO     -0.005000
      3 C3          0.5360    4.6870   -1.4620 c2        1 DUO      0.289000
      4 C4         -0.6480    4.2870   -0.6310 c2        1 DUO     -0.145000
      5 C5         -1.7840    4.3200   -1.4550 c2        1 DUO      0.004000
      6 C6         -2.7520    3.2800   -1.3780 c1        1 DUO      0.060000
      7 C7         -2.5700    2.2120   -0.4730 c1        1 DUO     -0.156000
      8 C8         -1.4300    2.1750    0.3560 c1        1 DUO      0.048000
      9 C9         -0.4620    3.2160    0.2790 c1        1 DUO     -0.041000
     10 C10         1.9340    3.0380    0.7880 c3        1 DUO     -0.214000
     11 C11         0.5430    2.9830    1.3610 c3        1 DUO     -0.070000
     12 C12         0.2910    1.6680    1.9150 c3        1 DUO     -0.036000
     13 N13        -0.8980    1.1290    1.2580 n         1 DUO     -0.256000
     14 C14        -1.4070   -0.2330    1.3770 c2        1 DUO      0.374000
     15 C15        -0.5520   -1.3450    2.1620 c2        1 DUO     -0.081000
     16 C16         0.4710   -1.8650    2.9430 c1        1 DUO     -0.148000
     17 C17         0.6420   -3.2250    2.5920 c1        1 DUO     -0.079000
     18 C18         1.4230   -4.2480    3.1780 c1        1 DUO     -0.103000
     19 C19         1.2750   -5.5780    2.7570 c1        1 DUO      0.031000
     20 C20         0.3670   -5.8930    1.7700 c1        1 DUO      0.029500
     21 C21        -0.4170   -4.8770    1.1780 c1        1 DUO      0.029500
     22 C22        -0.2670   -3.5330    1.6040 c1        1 DUO     -0.004000
     23 N23        -1.0190   -2.3690    1.3260 n1        1 DUO     -0.157000
     24 O24         1.3200   -6.8370    3.2920 os        1 DUO     -0.228000
     25 C25         1.6350   -6.8610    4.6410 c3        1 DUO     -0.076000
     26 O26         0.0470   -7.1450    1.1990 os        1 DUO     -0.226000
     27 C27         1.1410   -7.7910    0.5700 c3        1 DUO     -0.071500
     28 O28        -1.6680   -4.7700    0.4810 os        1 DUO     -0.226000
     29 C29        -1.8000   -5.6900   -0.6520 c3        1 DUO     -0.071500
     30 O30        -2.4390   -0.5660    0.7580 o         1 DUO     -0.362000
     31 O31        -3.6760    3.4250   -2.3480 oh        1 DUO     -0.248000
     32 O32         1.6610    4.9180   -1.0450 o         1 DUO     -0.241000
     33 C33         0.5480    3.7080   -3.7680 c3        1 DUO     -0.199000
     34 C34         0.6620    6.0190   -3.5380 c2        1 DUO      0.282000
     35 O35         1.7520    6.4230   -3.2110 o         1 DUO     -0.321000
     36 O36        -0.0910    6.7220   -4.4970 os        1 DUO     -0.282000
     37 C37         0.6040    7.8330   -5.0970 c3        1 DUO     -0.063000
     38 H1         -1.6450    5.7950   -2.7800 hn        1 DUO      0.219000
     39 H7         -3.2480    1.4710   -0.4310 ha        1 DUO      0.178000
     40 H101        2.1590    3.9500    0.5820 hc        1 DUO      0.089667
     41 H102        2.5660    2.6880    1.4400 hc        1 DUO      0.089667
     42 H103        1.9760    2.4680   -0.0750 hc        1 DUO      0.089667
     43 H11         0.4370    3.7160    2.1130 hc        1 DUO      0.123000
     44 H121        1.0510    1.0870    1.7470 h1        1 DUO      0.102000
     45 H122        0.1420    1.7370    2.8300 h1        1 DUO      0.102000
     46 H16         0.9440   -1.3890    3.6780 DU        1 DUO      0.220500
     47 H18         2.0190   -4.0450    3.8260 ha        1 DUO      0.154000
     48 H23        -1.6280   -2.2610    0.6040 DU        1 DUO      0.220500
     49 H251        1.4240   -5.9440    5.0610 h1        1 DUO      0.084000
     50 H252        1.0950   -7.5660    5.0940 h1        1 DUO      0.084000
     51 H253        2.6290   -7.0660    4.7550 h1        1 DUO      0.084000
     52 H271        1.1350   -7.5870   -0.3770 h1        1 DUO      0.087667
     53 H272        1.9960   -7.4720    0.9740 h1        1 DUO      0.087667
     54 H273        1.0610   -8.7690    0.6970 h1        1 DUO      0.087667
     55 H291       -1.0480   -5.5100   -1.3290 h1        1 DUO      0.087667
     56 H292       -1.7340   -6.6410   -0.3220 h1        1 DUO      0.087667
     57 H293       -2.7360   -5.5430   -1.1190 h1        1 DUO      0.087667
     58 H31        -4.4890    3.3190   -2.0010 ho        1 DUO      0.227000
     59 H331        0.2420    3.8840   -4.7060 hc        1 DUO      0.103000
     60 H332        0.1520    2.8100   -3.4390 hc        1 DUO      0.103000
     61 H333        1.5860    3.6570   -3.7470 hc        1 DUO      0.103000
     62 H371        0.0470    8.6450   -5.0290 h1        1 DUO      0.094000
     63 H372        1.4290    7.9750   -4.6440 h1        1 DUO      0.094000
     64 H373        0.7740    7.6430   -6.0100 h1        1 DUO      0.094000
@<TRIPOS>BOND
     1    1    2 1   
     2    1    5 1   
     3    1   38 1   
     4    2    3 1   
     5    2   33 1   
     6    2   34 1   
     7    3    4 1   
     8    3   32 1   
     9    4    5 1   
    10    4    9 1   
    11    5    6 1   
    12    6   31 1   
    13    7    8 1   
    14    7   39 1   
    15    8   13 1   
    16    9   11 1   
    17   10   11 1   
    18   10   40 1   
    19   10   41 1   
    20   10   42 1   
    21   11   12 1   
    22   11   43 1   
    23   12   13 1   
    24   12   44 1   
    25   12   45 1   
    26   13   14 1   
    27   14   15 1   
    28   14   30 1   
    29   15   16 1   
    30   15   23 1   
    31   16   17 1   
    32   17   22 1   
    33   18   19 1   
    34   18   47 1   
    35   19   24 1   
    36   20   21 1   
    37   20   26 1   
    38   21   28 1   
    39   24   25 1   
    40   25   49 1   
    41   25   50 1   
    42   25   51 1   
    43   26   27 1   
    44   27   52 1   
    45   27   53 1   
    46   27   54 1   
    47   28   29 1   
    48   29   55 1   
    49   29   56 1   
    50   29   57 1   
    51   31   58 1   
    52   33   59 1   
    53   33   60 1   
    54   33   61 1   
    55   34   35 1   
    56   34   36 1   
    57   36   37 1   
    58   37   62 1   
    59   37   63 1   
    60   37   64 1   
@<TRIPOS>SUBSTRUCTURE
     1 DUO         1 TEMP              0 ****  ****    0 ROOT
