@<TRIPOS>MOLECULE
DUO
   64    68     1     0     0
SMALL
bcc


@<TRIPOS>ATOM
      1 N1         -0.0600    0.8120   -0.0710 nh        1 DUO     -0.662600
      2 C2          1.1780    0.0070   -0.2100 c3        1 DUO      0.044200
      3 C3          1.5780   -0.4250    1.2400 c         1 DUO      0.601700
      4 C4          0.4890    0.0590    2.1090 ca        1 DUO     -0.161600
      5 C5         -0.4810    0.7080    1.2780 ca        1 DUO      0.084600
      6 C6         -1.6570    1.2190    1.8460 ca        1 DUO      0.109100
      7 C7         -1.8650    1.1450    3.2370 ca        1 DUO     -0.157000
      8 C8         -0.8940    0.5440    4.0340 ca        1 DUO      0.038600
      9 C9          0.2950   -0.0220    3.4660 ca        1 DUO     -0.049300
     10 C10         1.3820   -2.0790    4.4190 c3        1 DUO     -0.096100
     11 C11         1.1540   -0.5950    4.5520 c3        1 DUO     -0.024400
     12 C12         0.3620   -0.2450    5.8510 c3        1 DUO      0.078000
     13 N13        -0.8800    0.4260    5.4500 n         1 DUO     -0.361000
     14 C14        -2.0450    0.3830    6.2200 c         1 DUO      0.695300
     15 C15        -1.9220    0.0950    7.6670 cc        1 DUO     -0.137300
     16 C16        -2.8240   -0.6660    8.4180 cd        1 DUO     -0.111200
     17 C17        -2.3610   -0.6460    9.7830 ca        1 DUO     -0.077800
     18 C18        -2.8380   -1.2140   10.9680 ca        1 DUO     -0.159000
     19 C19        -2.1440   -0.9720   12.1460 ca        1 DUO      0.095100
     20 C20        -0.9650   -0.1620   12.1730 ca        1 DUO      0.075100
     21 C21        -0.4700    0.4060   10.9990 ca        1 DUO      0.103100
     22 C22        -1.1640    0.1570    9.7930 ca        1 DUO     -0.064200
     23 N23        -0.8810    0.5620    8.4880 na        1 DUO     -0.155400
     24 O24        -2.5260   -1.4570   13.3840 os        1 DUO     -0.321900
     25 C25        -3.6230   -2.3640   13.3870 c3        1 DUO      0.111700
     26 O26        -0.2330   -0.0260   13.3400 os        1 DUO     -0.332900
     27 C27        -0.8660    0.7900   14.3290 c3        1 DUO      0.117700
     28 O28         0.6040    1.2760   10.9630 os        1 DUO     -0.339900
     29 C29         1.8520    0.6930   11.3480 c3        1 DUO      0.113700
     30 O30        -3.1600    0.6250    5.7230 o         1 DUO     -0.573100
     31 O31        -2.5900    1.7660    0.9940 oh        1 DUO     -0.493100
     32 O32         2.5800   -1.0690    1.5240 o         1 DUO     -0.487100
     33 C33         1.0340   -1.2460   -1.0710 c3        1 DUO     -0.110100
     34 C34         2.2680    0.9020   -0.7920 c         1 DUO      0.655100
     35 O35         3.1950    1.4540   -0.2060 o         1 DUO     -0.515000
     36 O36         2.1400    1.0760   -2.1410 os        1 DUO     -0.433900
     37 C37         3.0990    1.9330   -2.7660 c3        1 DUO      0.124700
     38 H1         -0.7660    0.5940   -0.7450 hn        1 DUO      0.412800
     39 H7         -2.7900    1.5510    3.6790 ha        1 DUO      0.176000
     40 H101        1.9830   -2.4530    5.2830 hc        1 DUO      0.049367
     41 H102        0.4140   -2.6340    4.3930 hc        1 DUO      0.049367
     42 H103        1.9430   -2.2920    3.4740 hc        1 DUO      0.049367
     43 H11         2.1460   -0.0660    4.5680 hc        1 DUO      0.085700
     44 H121        0.9680    0.4660    6.4750 h1        1 DUO      0.060700
     45 H122        0.1430   -1.1690    6.4490 h1        1 DUO      0.060700
     46 H16        -3.7110   -1.1680    8.0410 ha        1 DUO      0.172000
     47 H18        -3.7440   -1.8340   10.9460 ha        1 DUO      0.148000
     48 H23        -0.2670    1.3030    8.2580 hn        1 DUO      0.311700
     49 H251       -3.4080   -3.2500   12.7430 h1        1 DUO      0.045700
     50 H252       -4.5570   -1.8510   13.0510 h1        1 DUO      0.045700
     51 H253       -3.7050   -2.6670   14.4620 h1        1 DUO      0.045700
     52 H271       -0.1400    0.7740   15.1800 h1        1 DUO      0.046033
     53 H272       -1.0060    1.8270   13.9420 h1        1 DUO      0.046033
     54 H273       -1.8450    0.3460   14.6320 h1        1 DUO      0.046033
     55 H291        1.7960    0.2970   12.3910 h1        1 DUO      0.049033
     56 H292        2.1320   -0.1190   10.6350 h1        1 DUO      0.049033
     57 H293        2.5690    1.5480   11.2810 h1        1 DUO      0.049033
     58 H31        -3.3130    2.1190    1.5340 ho        1 DUO      0.428000
     59 H331        0.2330   -1.9100   -0.6670 hc        1 DUO      0.063367
     60 H332        0.7860   -0.9680   -2.1240 hc        1 DUO      0.063367
     61 H333        2.0030   -1.8030   -1.0630 hc        1 DUO      0.063367
     62 H371        2.7910    1.9330   -3.8400 h1        1 DUO      0.053033
     63 H372        4.1260    1.5160   -2.6320 h1        1 DUO      0.053033
     64 H373        3.0400    2.9560   -2.3220 h1        1 DUO      0.053033
@<TRIPOS>BOND
     1    1    2 1   
     2    1    5 1   
     3    1   38 1   
     4    2    3 1   
     5    2   33 1   
     6    2   34 1   
     7    3    4 1   
     8    3   32 2   
     9    4    5 ar  
    10    4    9 ar  
    11    5    6 ar  
    12    6    7 ar  
    13    6   31 1   
    14    7    8 ar  
    15    7   39 1   
    16    8    9 ar  
    17    8   13 1   
    18    9   11 1   
    19   10   11 1   
    20   10   40 1   
    21   10   41 1   
    22   10   42 1   
    23   11   12 1   
    24   11   43 1   
    25   12   13 1   
    26   12   44 1   
    27   12   45 1   
    28   13   14 1   
    29   14   15 1   
    30   14   30 2   
    31   15   16 2   
    32   15   23 1   
    33   16   17 1   
    34   16   46 1   
    35   17   18 ar  
    36   17   22 ar  
    37   18   19 ar  
    38   18   47 1   
    39   19   20 ar  
    40   19   24 1   
    41   20   21 ar  
    42   20   26 1   
    43   21   22 ar  
    44   21   28 1   
    45   22   23 1   
    46   23   48 1   
    47   24   25 1   
    48   25   49 1   
    49   25   50 1   
    50   25   51 1   
    51   26   27 1   
    52   27   52 1   
    53   27   53 1   
    54   27   54 1   
    55   28   29 1   
    56   29   55 1   
    57   29   56 1   
    58   29   57 1   
    59   31   58 1   
    60   33   59 1   
    61   33   60 1   
    62   33   61 1   
    63   34   35 2   
    64   34   36 1   
    65   36   37 1   
    66   37   62 1   
    67   37   63 1   
    68   37   64 1   
@<TRIPOS>SUBSTRUCTURE
     1 DUO         1 TEMP              0 ****  ****    0 ROOT
