@<TRIPOS>MOLECULE
DUO
   64    68     1     0     0
SMALL
bcc


@<TRIPOS>ATOM
      1 N1         -0.0760    0.7540   -0.0740 nu        1 DUO     -0.662600
      2 C2          1.1790   -0.0240   -0.2070 c3        1 DUO      0.044200
      3 C3          1.5870   -0.4380    1.2460 c         1 DUO      0.601700
      4 C4          0.4870    0.0280    2.1110 ca        1 DUO     -0.161600
      5 C5         -0.4960    0.6500    1.2750 ca        1 DUO      0.084600
      6 C6         -1.6830    1.1390    1.8390 ca        1 DUO      0.109100
      7 C7         -1.8910    1.0700    3.2300 ca        1 DUO     -0.157000
      8 C8         -0.9070    0.4950    4.0320 ca        1 DUO      0.038600
      9 C9          0.2940   -0.0480    3.4680 ca        1 DUO     -0.049300
     10 C10         1.4250   -2.0760    4.4350 c3        1 DUO     -0.096100
     11 C11         1.1640   -0.5960    4.5590 c3        1 DUO     -0.024400
     12 C12         0.3640   -0.2550    5.8540 c3        1 DUO      0.078000
     13 N13        -0.8920    0.3860    5.4480 n         1 DUO     -0.361000
     14 C14        -2.0560    0.3220    6.2180 c         1 DUO      0.695300
     15 C15        -1.9280    0.0460    7.6670 cc        1 DUO     -0.137300
     16 C16        -2.8120   -0.7320    8.4210 cd        1 DUO     -0.112200
     17 C17        -2.3500   -0.6940    9.7870 ca        1 DUO     -0.077800
     18 C18        -2.8150   -1.2670   10.9750 ca        1 DUO     -0.159000
     19 C19        -2.1280   -1.0020   12.1520 ca        1 DUO      0.095100
     20 C20        -0.9680   -0.1650   12.1740 ca        1 DUO      0.075100
     21 C21        -0.4860    0.4090   10.9980 ca        1 DUO      0.103100
     22 C22        -1.1730    0.1370    9.7930 ca        1 DUO     -0.064200
     23 N23        -0.8990    0.5420    8.4850 na        1 DUO     -0.155400
     24 O24        -2.4990   -1.4900   13.3920 os        1 DUO     -0.321900
     25 C25        -3.5730   -2.4240   13.3990 c3        1 DUO      0.111700
     26 O26        -0.2410   -0.0040   13.3410 os        1 DUO     -0.332900
     27 C27        -0.8940    0.8010   14.3260 c3        1 DUO      0.117700
     28 O28         0.5670    1.3050   10.9570 os        1 DUO     -0.339900
     29 C29         1.8280    0.7530   11.3470 c3        1 DUO      0.113700
     30 O30        -3.1760    0.5370    5.7180 o         1 DUO     -0.573100
     31 O31        -2.6270    1.6600    0.9830 oh        1 DUO     -0.493100
     32 O32         2.6030   -1.0570    1.5340 o         1 DUO     -0.487100
     33 C33         1.0630   -1.2850   -1.0600 c3        1 DUO     -0.110100
     34 C34         2.2490    0.8910   -0.7940 c         1 DUO      0.655100
     35 O35         3.1640    1.4670   -0.2110 o         1 DUO     -0.515000
     36 O36         2.1200    1.0520   -2.1450 os        1 DUO     -0.433900
     37 C37         3.0600    1.9270   -2.7740 c3        1 DUO      0.124700
     38 H1         -0.7760    0.5170   -0.7480 hn        1 DUO      0.412800
     39 H7         -2.8250    1.4580    3.6690 ha        1 DUO      0.176000
     40 H101        1.9920   -2.2820    3.4920 hc        1 DUO      0.049367
     41 H102        0.4690   -2.6510    4.4120 hc        1 DUO      0.049367
     42 H103        2.0340   -2.4300    5.3020 hc        1 DUO      0.049367
     43 H11         2.1440   -0.0450    4.5720 hc        1 DUO      0.085700
     44 H121        0.1650   -1.1800    6.4590 h1        1 DUO      0.060700
     45 H122        0.9530    0.4730    6.4750 h1        1 DUO      0.060700
     46 H16        -3.6870   -1.2580    8.0460 ha        1 DUO      0.172000
     47 H18        -3.7050   -1.9090   10.9550 ha        1 DUO      0.148000
     48 H23        -0.3030    1.2950    8.2520 hn        1 DUO      0.311700
     49 H251       -4.5190   -1.9360   13.0590 h1        1 DUO      0.045700
     50 H252       -3.6480   -2.7230   14.4750 h1        1 DUO      0.045700
     51 H253       -3.3360   -3.3080   12.7590 h1        1 DUO      0.045700
     52 H271       -1.8620    0.3350   14.6310 h1        1 DUO      0.046033
     53 H272       -0.1680    0.8080   15.1770 h1        1 DUO      0.046033
     54 H273       -1.0590    1.8330   13.9330 h1        1 DUO      0.046033
     55 H291        2.5250    1.6250   11.2750 h1        1 DUO      0.049033
     56 H292        2.1280   -0.0560   10.6390 h1        1 DUO      0.049033
     57 H293        1.7810    0.3620   12.3920 h1        1 DUO      0.049033
     58 H31        -3.3580    2.0010    1.5200 ho        1 DUO      0.428000
     59 H331        0.8100   -1.0200   -2.1150 hc        1 DUO      0.063367
     60 H332        2.0440   -1.8210   -1.0480 hc        1 DUO      0.063367
     61 H333        0.2770   -1.9640   -0.6520 hc        1 DUO      0.063367
     62 H371        2.7530    1.9120   -3.8490 h1        1 DUO      0.053033
     63 H372        4.0960    1.5320   -2.6370 h1        1 DUO      0.053033
     64 H373        2.9780    2.9510   -2.3380 h1        1 DUO      0.053033
@<TRIPOS>BOND
     1    1    2 1   
     2    1    5 1   
     3    1   38 1   
     4    2    3 1   
     5    2   33 1   
     6    2   34 1   
     7    3    4 1   
     8    3   32 2   
     9    4    5 ar  
    10    4    9 ar  
    11    5    6 ar  
    12    6    7 ar  
    13    6   31 1   
    14    7    8 ar  
    15    7   39 1   
    16    8    9 ar  
    17    8   13 1   
    18    9   11 1   
    19   10   11 1   
    20   10   40 1   
    21   10   41 1   
    22   10   42 1   
    23   11   12 1   
    24   11   43 1   
    25   12   13 1   
    26   12   44 1   
    27   12   45 1   
    28   13   14 1   
    29   14   15 1   
    30   14   30 2   
    31   15   16 2   
    32   15   23 1   
    33   16   17 1   
    34   16   46 1   
    35   17   18 ar  
    36   17   22 ar  
    37   18   19 ar  
    38   18   47 1   
    39   19   20 ar  
    40   19   24 1   
    41   20   21 ar  
    42   20   26 1   
    43   21   22 ar  
    44   21   28 1   
    45   22   23 1   
    46   23   48 1   
    47   24   25 1   
    48   25   49 1   
    49   25   50 1   
    50   25   51 1   
    51   26   27 1   
    52   27   52 1   
    53   27   53 1   
    54   27   54 1   
    55   28   29 1   
    56   29   55 1   
    57   29   56 1   
    58   29   57 1   
    59   31   58 1   
    60   33   59 1   
    61   33   60 1   
    62   33   61 1   
    63   34   35 2   
    64   34   36 1   
    65   36   37 1   
    66   37   62 1   
    67   37   63 1   
    68   37   64 1   
@<TRIPOS>SUBSTRUCTURE
     1 DUO         1 TEMP              0 ****  ****    0 ROOT
