@<TRIPOS>MOLECULE
DUO
   64    68     1     0     0
SMALL
bcc


@<TRIPOS>ATOM
      1 N1         -0.0540    0.8400   -0.0670 nh        1 DUO     -0.662600
      2 C2          1.1710    0.0180   -0.2110 c3        1 DUO      0.044200
      3 C3          1.5670   -0.4280    1.2370 c         1 DUO      0.601700
      4 C4          0.4860    0.0680    2.1090 ca        1 DUO     -0.161600
      5 C5         -0.4750    0.7370    1.2820 ca        1 DUO      0.084600
      6 C6         -1.6420    1.2630    1.8550 ca        1 DUO      0.109100
      7 C7         -1.8500    1.1850    3.2450 ca        1 DUO     -0.157000
      8 C8         -0.8870    0.5660    4.0380 ca        1 DUO      0.038600
      9 C9          0.2920   -0.0160    3.4660 ca        1 DUO     -0.049300
     10 C10         1.3490   -2.0940    4.4080 c3        1 DUO     -0.096100
     11 C11         1.1430   -0.6070    4.5490 c3        1 DUO     -0.024400
     12 C12         0.3590   -0.2520    5.8500 c3        1 DUO      0.078000
     13 N13        -0.8740    0.4400    5.4530 n         1 DUO     -0.361000
     14 C14        -2.0380    0.4110    6.2240 c         1 DUO      0.695300
     15 C15        -1.9180    0.1130    7.6700 cc        1 DUO     -0.137300
     16 C16        -2.8290   -0.6410    8.4170 cd        1 DUO     -0.112200
     17 C17        -2.3640   -0.6350    9.7820 ca        1 DUO     -0.077800
     18 C18        -2.8480   -1.2040   10.9640 ca        1 DUO     -0.159000
     19 C19        -2.1500   -0.9780   12.1430 ca        1 DUO      0.095100
     20 C20        -0.9600   -0.1840   12.1730 ca        1 DUO      0.075100
     21 C21        -0.4590    0.3850   11.0020 ca        1 DUO      0.103100
     22 C22        -1.1570    0.1520    9.7950 ca        1 DUO     -0.064200
     23 N23        -0.8700    0.5620    8.4920 na        1 DUO     -0.155400
     24 O24        -2.5370   -1.4660   13.3780 os        1 DUO     -0.321900
     25 C25        -3.6440   -2.3600   13.3770 c3        1 DUO      0.111700
     26 O26        -0.2250   -0.0640   13.3400 os        1 DUO     -0.332900
     27 C27        -0.8470    0.7540   14.3350 c3        1 DUO      0.117700
     28 O28         0.6260    1.2420   10.9700 os        1 DUO     -0.339900
     29 C29         1.8660    0.6400   11.3510 c3        1 DUO      0.113700
     30 O30        -3.1500    0.6720    5.7300 o         1 DUO     -0.573100
     31 O31        -2.5670    1.8280    1.0060 oh        1 DUO     -0.493100
     32 O32         2.5590   -1.0880    1.5160 o         1 DUO     -0.487100
     33 C33         1.0080   -1.2290   -1.0770 c3        1 DUO     -0.110100
     34 C34         2.2750    0.8980   -0.7900 c         1 DUO      0.655100
     35 O35         3.2110    1.4330   -0.2020 o         1 DUO     -0.515000
     36 O36         2.1490    1.0790   -2.1380 os        1 DUO     -0.433900
     37 C37         3.1200    1.9250   -2.7600 c3        1 DUO      0.124700
     38 H1         -0.7630    0.6360   -0.7410 hn        1 DUO      0.412800
     39 H7         -2.7680    1.6030    3.6900 ha        1 DUO      0.176000
     40 H101        1.9060   -2.3110    3.4620 hc        1 DUO      0.049367
     41 H102        0.3720   -2.6340    4.3810 hc        1 DUO      0.049367
     42 H103        1.9450   -2.4810    5.2700 hc        1 DUO      0.049367
     43 H11         2.1430   -0.0930    4.5660 hc        1 DUO      0.085700
     44 H121        0.1260   -1.1750    6.4440 h1        1 DUO      0.060700
     45 H122        0.9750    0.4470    6.4770 h1        1 DUO      0.060700
     46 H16        -3.7230   -1.1300    8.0380 ha        1 DUO      0.172000
     47 H18        -3.7610   -1.8130   10.9390 ha        1 DUO      0.148000
     48 H23        -0.2470    1.2950    8.2670 hn        1 DUO      0.311700
     49 H251       -4.5720   -1.8340   13.0440 h1        1 DUO      0.045700
     50 H252       -3.4400   -3.2450   12.7260 h1        1 DUO      0.045700
     51 H253       -3.7280   -2.6680   14.4500 h1        1 DUO      0.045700
     52 H271       -1.8310    0.3200   14.6360 h1        1 DUO      0.046033
     53 H272       -0.9740    1.7950   13.9550 h1        1 DUO      0.046033
     54 H273       -0.1200    0.7240   15.1850 h1        1 DUO      0.046033
     55 H291        2.5950    1.4870   11.2880 h1        1 DUO      0.049033
     56 H292        2.1360   -0.1710   10.6330 h1        1 DUO      0.049033
     57 H293        1.8070    0.2390   12.3910 h1        1 DUO      0.049033
     58 H31        -3.2840    2.1900    1.5490 ho        1 DUO      0.428000
     59 H331        0.7620   -0.9430   -2.1280 hc        1 DUO      0.063367
     60 H332        1.9680   -1.8010   -1.0730 hc        1 DUO      0.063367
     61 H333        0.1970   -1.8830   -0.6750 hc        1 DUO      0.063367
     62 H371        2.8110    1.9340   -3.8340 h1        1 DUO      0.053033
     63 H372        3.0770    2.9460   -2.3120 h1        1 DUO      0.053033
     64 H373        4.1400    1.4910   -2.6290 h1        1 DUO      0.053033
@<TRIPOS>BOND
     1    1    2 1   
     2    1    5 1   
     3    1   38 1   
     4    2    3 1   
     5    2   33 1   
     6    2   34 1   
     7    3    4 1   
     8    3   32 2   
     9    4    5 ar  
    10    4    9 ar  
    11    5    6 ar  
    12    6    7 ar  
    13    6   31 1   
    14    7    8 ar  
    15    7   39 1   
    16    8    9 ar  
    17    8   13 1   
    18    9   11 1   
    19   10   11 1   
    20   10   40 1   
    21   10   41 1   
    22   10   42 1   
    23   11   12 1   
    24   11   43 1   
    25   12   13 1   
    26   12   44 1   
    27   12   45 1   
    28   13   14 1   
    29   14   15 1   
    30   14   30 2   
    31   15   16 2   
    32   15   23 1   
    33   16   17 1   
    34   16   46 1   
    35   17   18 ar  
    36   17   22 ar  
    37   18   19 ar  
    38   18   47 1   
    39   19   20 ar  
    40   19   24 1   
    41   20   21 ar  
    42   20   26 1   
    43   21   22 ar  
    44   21   28 1   
    45   22   23 1   
    46   23   48 1   
    47   24   25 1   
    48   25   49 1   
    49   25   50 1   
    50   25   51 1   
    51   26   27 1   
    52   27   52 1   
    53   27   53 1   
    54   27   54 1   
    55   28   29 1   
    56   29   55 1   
    57   29   56 1   
    58   29   57 1   
    59   31   58 1   
    60   33   59 1   
    61   33   60 1   
    62   33   61 1   
    63   34   35 2   
    64   34   36 1   
    65   36   37 1   
    66   37   62 1   
    67   37   63 1   
    68   37   64 1   
@<TRIPOS>SUBSTRUCTURE
     1 DUO         1 TEMP              0 ****  ****    0 ROOT
