@<TRIPOS>MOLECULE
DUO
   64    68     1     0     0
SMALL
bcc


@<TRIPOS>ATOM
      1 N1          1.1330   -0.1260    5.8140 nh        1 DUO     -0.670600
      2 C2         -0.1800   -0.7310    6.1500 c3        1 DUO      0.049200
      3 C3         -0.8510   -1.0870    4.7790 c         1 DUO      0.595700
      4 C4          0.0150   -0.4810    3.7500 ca        1 DUO     -0.166600
      5 C5          1.1410    0.1080    4.4120 ca        1 DUO      0.035600
      6 C6          2.1440    0.7360    3.6660 ca        1 DUO      0.101100
      7 C7          2.0410    0.8220    2.2620 ca        1 DUO     -0.094000
      8 C8          0.9280    0.2660    1.6370 ca        1 DUO      0.024600
      9 C9         -0.0950   -0.4100    2.3840 ca        1 DUO     -0.039300
     10 C10        -1.3210   -2.4030    1.4660 c3        1 DUO     -0.096100
     11 C11        -1.1610   -0.9040    1.4540 c3        1 DUO     -0.026400
     12 C12        -0.6870   -0.3820    0.0630 c3        1 DUO      0.077000
     13 N13         0.6000    0.2980    0.2540 n         1 DUO     -0.361000
     14 C14         1.5710    0.3570   -0.7510 c         1 DUO      0.692300
     15 C15         1.1310    0.2260   -2.1600 cc        1 DUO     -0.137300
     16 C16         1.8450   -0.4250   -3.1710 cd        1 DUO     -0.111200
     17 C17         1.0910   -0.2670   -4.3900 ca        1 DUO     -0.077800
     18 C18         1.2940   -0.6900   -5.7070 ca        1 DUO     -0.158000
     19 C19         0.3560   -0.3380   -6.6690 ca        1 DUO      0.094100
     20 C20        -0.8000    0.4390   -6.3440 ca        1 DUO      0.075100
     21 C21        -1.0230    0.8630   -5.0330 ca        1 DUO      0.102100
     22 C22        -0.0800    0.5010   -4.0450 ca        1 DUO     -0.064200
     23 N23        -0.0670    0.7530   -2.6720 na        1 DUO     -0.155400
     24 O24         0.4550   -0.6750   -8.0070 os        1 DUO     -0.321900
     25 C25         1.5260   -1.5460   -8.3530 c3        1 DUO      0.111700
     26 O26        -1.7720    0.6840   -7.2980 os        1 DUO     -0.332900
     27 C27        -1.3740    1.6190   -8.3050 c3        1 DUO      0.117700
     28 O28        -2.0630    1.6960   -4.6650 os        1 DUO     -0.339900
     29 C29        -3.3650    1.1250   -4.8290 c3        1 DUO      0.113700
     30 O30         2.7690    0.5640   -0.4860 o         1 DUO     -0.563100
     31 O31         3.2230    1.3640    4.2500 oh        1 DUO     -0.497100
     32 O32        -1.8520   -1.7780    4.6520 o         1 DUO     -0.478100
     33 C33        -0.0230   -2.0070    6.9800 c3        1 DUO     -0.081100
     34 C34        -1.1160    0.1980    6.9200 c         1 DUO      0.613100
     35 O35        -2.3410    0.2690    6.8480 o         1 DUO     -0.506000
     36 O36        -0.4710    1.0120    7.8100 os        1 DUO     -0.446900
     37 C37        -1.2900    1.8920    8.5850 c3        1 DUO      0.127700
     38 H1          1.3410    0.6900    6.3580 hn        1 DUO      0.408800
     39 H7          2.8410    1.3210    1.6900 ha        1 DUO      0.190000
     40 H101       -2.0920   -2.7110    0.7200 hc        1 DUO      0.050367
     41 H102       -0.3590   -2.9110    1.2140 hc        1 DUO      0.050367
     42 H103       -1.6500   -2.7400    2.4810 hc        1 DUO      0.050367
     43 H11        -2.1430   -0.4230    1.7150 hc        1 DUO      0.083700
     44 H121       -1.4290    0.3640   -0.3290 h1        1 DUO      0.061200
     45 H122       -0.5900   -1.2270   -0.6700 h1        1 DUO      0.061200
     46 H16         2.7940   -0.9430   -3.0580 ha        1 DUO      0.172000
     47 H18         2.1820   -1.2860   -5.9540 ha        1 DUO      0.148000
     48 H23        -0.6120    1.4510   -2.2330 hn        1 DUO      0.310700
     49 H251        1.3680   -1.7270   -9.4470 h1        1 DUO      0.045700
     50 H252        2.5100   -1.0490   -8.1740 h1        1 DUO      0.045700
     51 H253        1.4610   -2.5030   -7.7810 h1        1 DUO      0.045700
     52 H271       -2.2700    1.6790   -8.9710 h1        1 DUO      0.046033
     53 H272       -1.1520    2.6110   -7.8440 h1        1 DUO      0.046033
     54 H273       -0.4860    1.2360   -8.8640 h1        1 DUO      0.046033
     55 H291       -4.0510    1.9500   -4.5110 h1        1 DUO      0.048367
     56 H292       -3.5410    0.8460   -5.8950 h1        1 DUO      0.048367
     57 H293       -3.4790    0.2340   -4.1660 h1        1 DUO      0.048367
     58 H31         3.5370    0.7940    4.9680 ho        1 DUO      0.426000
     59 H331        0.4020   -1.7670    7.9830 hc        1 DUO      0.063700
     60 H332       -1.0300   -2.4770    7.1010 hc        1 DUO      0.063700
     61 H333        0.6560   -2.7250    6.4620 hc        1 DUO      0.063700
     62 H371       -0.5540    2.4400    9.2230 h1        1 DUO      0.055700
     63 H372       -1.8460    2.5850    7.9090 h1        1 DUO      0.055700
     64 H373       -2.0070    1.2980    9.2010 h1        1 DUO      0.055700
@<TRIPOS>BOND
     1    1    2 1   
     2    1    5 1   
     3    1   38 1   
     4    2    3 1   
     5    2   33 1   
     6    2   34 1   
     7    3    4 1   
     8    3   32 2   
     9    4    5 ar  
    10    4    9 ar  
    11    5    6 ar  
    12    6    7 ar  
    13    6   31 1   
    14    7    8 ar  
    15    7   39 1   
    16    8    9 ar  
    17    8   13 1   
    18    9   11 1   
    19   10   11 1   
    20   10   40 1   
    21   10   41 1   
    22   10   42 1   
    23   11   12 1   
    24   11   43 1   
    25   12   13 1   
    26   12   44 1   
    27   12   45 1   
    28   13   14 1   
    29   14   15 1   
    30   14   30 2   
    31   15   16 2   
    32   15   23 1   
    33   16   17 1   
    34   16   46 1   
    35   17   18 ar  
    36   17   22 ar  
    37   18   19 ar  
    38   18   47 1   
    39   19   20 ar  
    40   19   24 1   
    41   20   21 ar  
    42   20   26 1   
    43   21   22 ar  
    44   21   28 1   
    45   22   23 1   
    46   23   48 1   
    47   24   25 1   
    48   25   49 1   
    49   25   50 1   
    50   25   51 1   
    51   26   27 1   
    52   27   52 1   
    53   27   53 1   
    54   27   54 1   
    55   28   29 1   
    56   29   55 1   
    57   29   56 1   
    58   29   57 1   
    59   31   58 1   
    60   33   59 1   
    61   33   60 1   
    62   33   61 1   
    63   34   35 2   
    64   34   36 1   
    65   36   37 1   
    66   37   62 1   
    67   37   63 1   
    68   37   64 1   
@<TRIPOS>SUBSTRUCTURE
     1 DUO         1 TEMP              0 ****  ****    0 ROOT
