@<TRIPOS>MOLECULE
DUP
   41    42     1     0     0
SMALL
bcc


@<TRIPOS>ATOM
      1 O4          0.0000    0.0000    0.0000 o         1 DUP     -0.783500
      2 C4          1.2180    0.0000    0.0000 c         1 DUP      0.594700
      3 C5          1.9310    0.0000    1.2230 cc        1 DUP     -0.374200
      4 C6          3.2810    0.0010    1.1950 cd        1 DUP     -0.287400
      5 N3          1.8990   -0.0010   -1.1630 ns        1 DUP     -0.147500
      6 C2          3.2450    0.0040   -1.1610 c         1 DUP      0.582500
      7 O2          3.8460    0.0030   -2.2190 o         1 DUP     -0.718500
      8 N1          3.9340    0.0000   -0.0070 n         1 DUP      0.091000
      9 C1'         5.3990    0.0000   -0.0370 c3        1 DUP      0.226500
     10 C2'         5.9220   -1.2540   -0.7700 c3        1 DUP     -0.114400
     11 C3'         7.1590   -0.7470   -1.5460 c3        1 DUP      0.156100
     12 O3'         8.3370   -1.4260   -1.1100 oh        1 DUP     -0.597800
     13 O4'         5.8880    1.1140   -0.8150 os        1 DUP     -0.345600
     14 C4'         7.2370    0.7550   -1.1930 c3        1 DUP      0.163100
     15 C5'         7.6860    1.5720   -2.4070 c3        1 DUP      0.224400
     16 O5'         7.6810    2.9610   -2.0730 os        1 DUP     -0.449200
     17 PA          8.1600    3.7560   -3.3880 p5        1 DUP      0.668700
     18 O1A         7.2250    3.4790   -4.5000 o         1 DUP     -0.541500
     19 O2A         8.1770    5.3370   -3.0820 o         1 DUP     -0.541500
     20 N3A         9.7070    3.2510   -3.8160 ny        1 DUP     -0.237200
     21 PB         10.1380    4.1220   -5.1900 p5        1 DUP      0.640700
     22 O1B         9.1730    3.8390   -6.2750 o         1 DUP     -0.522000
     23 O2B        10.1210    5.6960   -4.8540 o         1 DUP     -0.522000
     24 O3B        11.6150    3.6900   -5.6580 os        1 DUP     -0.499800
     25 PG         11.9600    4.5570   -6.9700 p5        1 DUP      0.778900
     26 O2G        11.9170    5.9960   -6.6350 o         1 DUP     -0.633833
     27 O1G        10.8800    4.2410   -8.1210 o         1 DUP     -0.633833
     28 O3G        13.4330    4.1720   -7.4960 o         1 DUP     -0.633833
     29 H5          1.4010    0.0000    2.1670 ha        1 DUP      0.117000
     30 H6          3.8420    0.0990    2.1160 h4        1 DUP      0.112000
     31 HN3         1.4020   -0.0060   -2.0310 hn        1 DUP      0.181500
     32 H1'         5.8010    0.0410    0.9680 h2        1 DUP      0.014700
     33 H2'1        6.2100   -2.0160   -0.0560 hc        1 DUP      0.033200
     34 H2'2        5.1730   -1.6300   -1.4560 hc        1 DUP      0.033200
     35 H1          7.0130   -0.8760   -2.6120 h1        1 DUP      0.030700
     36 H3'         8.5770   -2.0800   -1.7450 ho        1 DUP      0.380000
     37 H4'         7.9120    0.9080   -0.3600 h1        1 DUP      0.013700
     38 H5'1        7.0070    1.3960   -3.2320 h1        1 DUP      0.001700
     39 H5'2        8.6870    1.2730   -2.6930 h1        1 DUP      0.001700
     40 H3A        10.3480    3.4450   -3.0720 hn        1 DUP      0.269800
     41 H3A2        9.7030    2.2710   -4.0190 hn        1 DUP      0.269800
@<TRIPOS>BOND
     1    1    2 2   
     2    2    3 1   
     3    2    5 1   
     4    3    4 2   
     5    3   29 1   
     6    4    8 1   
     7    4   30 1   
     8    5    6 1   
     9    5   31 1   
    10    6    7 2   
    11    6    8 1   
    12    8    9 1   
    13    9   10 1   
    14    9   13 1   
    15    9   32 1   
    16   10   11 1   
    17   10   33 1   
    18   10   34 1   
    19   11   12 1   
    20   11   14 1   
    21   11   35 1   
    22   12   36 1   
    23   13   14 1   
    24   14   15 1   
    25   14   37 1   
    26   15   16 1   
    27   15   38 1   
    28   15   39 1   
    29   16   17 1   
    30   17   18 1   
    31   17   19 1   
    32   17   20 1   
    33   20   21 1   
    34   20   40 1   
    35   20   41 1   
    36   21   22 1   
    37   21   23 1   
    38   21   24 1   
    39   24   25 1   
    40   25   26 1   
    41   25   27 1   
    42   25   28 1   
@<TRIPOS>SUBSTRUCTURE
     1 DUP         1 TEMP              0 ****  ****    0 ROOT
