@<TRIPOS>MOLECULE
DUQ
   69    72     1     0     0
SMALL
bcc


@<TRIPOS>ATOM
      1 O4         -8.2000    1.2790    0.8490 o         1 DUQ     -0.611500
      2 C4         -7.0460    1.3230    0.3930 c         1 DUQ      0.714700
      3 N3         -6.0480    1.9760    1.1430 n         1 DUQ     -0.585500
      4 C2         -4.7180    2.0810    0.7120 c         1 DUQ      0.802500
      5 O2         -3.8600    2.6550    1.4190 o         1 DUQ     -0.650500
      6 C5         -6.6150    0.7400   -0.8810 cc        1 DUQ     -0.327200
      7 C6         -5.3260    0.8510   -1.2940 cd        1 DUQ      0.057600
      8 N1         -4.3700    1.5280   -0.5510 n         1 DUQ     -0.378000
      9 C1'        -3.0070    1.6550   -1.0150 c3        1 DUQ      0.110000
     10 C1         -2.0520    0.5520   -0.5220 c3        1 DUQ     -0.155700
     11 C38        -2.4870   -0.7910   -1.1070 c         1 DUQ      0.654100
     12 N34        -2.3470   -1.9100   -0.3170 n         1 DUQ     -0.545900
     13 C39        -2.5840   -3.2400   -0.8070 c3        1 DUQ      0.079000
     14 C40        -1.3100   -4.0800   -0.9800 c3        1 DUQ      0.101400
     15 O37        -0.7310   -4.2400    0.3040 oh        1 DUQ     -0.615800
     16 O38        -2.9970   -0.8570   -2.2470 o         1 DUQ     -0.636100
     17 C4'        -0.6450    0.8850   -0.9950 c3        1 DUQ     -0.082400
     18 C5'         0.4080    0.1270   -0.2010 c3        1 DUQ      0.122400
     19 O1          1.6630    0.5860   -0.6970 os        1 DUQ     -0.418600
     20 C17         2.8130    0.1950    0.0860 c3        1 DUQ      0.307700
     21 C30         2.7740    0.8750    1.4410 ca        1 DUQ     -0.102300
     22 C31         2.1190    2.1060    1.5740 ca        1 DUQ     -0.111833
     23 C32         2.1080    2.7710    2.7990 ca        1 DUQ     -0.136500
     24 C33         2.7560    2.2180    3.9020 ca        1 DUQ     -0.127333
     25 C34         3.4180    0.9970    3.7750 ca        1 DUQ     -0.136500
     26 C35         3.4290    0.3290    2.5510 ca        1 DUQ     -0.111833
     27 C24         2.8540   -1.3180    0.1850 ca        1 DUQ     -0.102300
     28 C25         2.1610   -1.9880    1.2020 ca        1 DUQ     -0.111833
     29 C26         2.1760   -3.3800    1.2720 ca        1 DUQ     -0.136500
     30 C27         2.8800   -4.1210    0.3220 ca        1 DUQ     -0.127333
     31 C28         3.5650   -3.4630   -0.6980 ca        1 DUQ     -0.136500
     32 C29         3.5480   -2.0700   -0.7700 ca        1 DUQ     -0.111833
     33 C18         4.0120    0.7210   -0.6880 ca        1 DUQ     -0.102300
     34 C19         3.8780    1.1860   -2.0010 ca        1 DUQ     -0.111833
     35 C20         4.9890    1.6700   -2.6920 ca        1 DUQ     -0.136500
     36 C21         6.2420    1.6900   -2.0810 ca        1 DUQ     -0.127333
     37 C22         6.3810    1.2250   -0.7740 ca        1 DUQ     -0.136500
     38 C23         5.2740    0.7440   -0.0790 ca        1 DUQ     -0.111833
     39 H3         -6.2730    2.3850    2.0240 hn        1 DUQ      0.350500
     40 H5         -7.3780    0.2140   -1.4680 ha        1 DUQ      0.180000
     41 H6         -4.9580    0.4000   -2.2410 h4        1 DUQ      0.193000
     42 H1'1       -3.0140    1.6440   -2.1430 h1        1 DUQ      0.085700
     43 H1'2       -2.6100    2.6480   -0.6520 h1        1 DUQ      0.085700
     44 H1         -2.0760    0.5300    0.6030 hc        1 DUQ      0.087700
     45 H4'1       -0.5380    0.6470   -2.0860 hc        1 DUQ      0.069700
     46 H4'2       -0.4580    1.9860   -0.8710 hc        1 DUQ      0.069700
     47 H34        -1.8160   -1.8450    0.5220 hn        1 DUQ      0.320500
     48 H391       -3.2540   -3.7640   -0.0670 h1        1 DUQ      0.074700
     49 H392       -3.1090   -3.1850   -1.8030 h1        1 DUQ      0.074700
     50 H401       -1.5910   -5.0880   -1.3860 h1        1 DUQ      0.037700
     51 H402       -0.5920   -3.5850   -1.6850 h1        1 DUQ      0.037700
     52 H37         0.2020   -4.4520    0.1730 ho        1 DUQ      0.410000
     53 H5'1        0.3190    0.3460    0.8970 h1        1 DUQ      0.039700
     54 H5'2        0.3280   -0.9800   -0.3650 h1        1 DUQ      0.039700
     55 H31         1.6130    2.5470    0.7000 ha        1 DUQ      0.144667
     56 H35         3.9550   -0.6350    2.4620 ha        1 DUQ      0.144667
     57 H32         1.5870    3.7360    2.8920 ha        1 DUQ      0.135333
     58 H33         2.7480    2.7430    4.8690 ha        1 DUQ      0.133000
     59 HA          3.9350    0.5570    4.6410 ha        1 DUQ      0.135333
     60 H25         1.6010   -1.4100    1.9550 ha        1 DUQ      0.144667
     61 H29         4.0860   -1.5600   -1.5850 ha        1 DUQ      0.144667
     62 H26         1.6260   -3.8920    2.0760 ha        1 DUQ      0.135333
     63 H27         2.8980   -5.2190    0.3830 ha        1 DUQ      0.133000
     64 H28         4.1220   -4.0410   -1.4500 ha        1 DUQ      0.135333
     65 H19         2.8910    1.1760   -2.4900 ha        1 DUQ      0.144667
     66 H23         5.3910    0.3850    0.9550 ha        1 DUQ      0.144667
     67 H20         4.8720    2.0380   -3.7210 ha        1 DUQ      0.135333
     68 H21         7.1160    2.0730   -2.6270 ha        1 DUQ      0.133000
     69 H22         7.3670    1.2400   -0.2860 ha        1 DUQ      0.135333
@<TRIPOS>BOND
     1    1    2 2   
     2    2    3 1   
     3    2    6 1   
     4    3    4 1   
     5    3   39 1   
     6    4    5 2   
     7    4    8 1   
     8    6    7 2   
     9    6   40 1   
    10    7    8 1   
    11    7   41 1   
    12    8    9 1   
    13    9   10 1   
    14    9   42 1   
    15    9   43 1   
    16   10   11 1   
    17   10   17 1   
    18   10   44 1   
    19   11   12 1   
    20   11   16 2   
    21   12   13 1   
    22   12   47 1   
    23   13   14 1   
    24   13   48 1   
    25   13   49 1   
    26   14   15 1   
    27   14   50 1   
    28   14   51 1   
    29   15   52 1   
    30   17   18 1   
    31   17   45 1   
    32   17   46 1   
    33   18   19 1   
    34   18   53 1   
    35   18   54 1   
    36   19   20 1   
    37   20   21 1   
    38   20   27 1   
    39   20   33 1   
    40   21   22 ar  
    41   21   26 ar  
    42   22   23 ar  
    43   22   55 1   
    44   23   24 ar  
    45   23   57 1   
    46   24   25 ar  
    47   24   58 1   
    48   25   26 ar  
    49   25   59 1   
    50   26   56 1   
    51   27   28 ar  
    52   27   32 ar  
    53   28   29 ar  
    54   28   60 1   
    55   29   30 ar  
    56   29   62 1   
    57   30   31 ar  
    58   30   63 1   
    59   31   32 ar  
    60   31   64 1   
    61   32   61 1   
    62   33   34 ar  
    63   33   38 ar  
    64   34   35 ar  
    65   34   65 1   
    66   35   36 ar  
    67   35   67 1   
    68   36   37 ar  
    69   36   68 1   
    70   37   38 ar  
    71   37   69 1   
    72   38   66 1   
@<TRIPOS>SUBSTRUCTURE
     1 DUQ         1 TEMP              0 ****  ****    0 ROOT
