@<TRIPOS>MOLECULE
DUQ
   70    73     1     0     0
SMALL
bcc


@<TRIPOS>ATOM
      1 O4          0.7310   -0.0720   -2.9290 o         1 DUQ     -0.552500
      2 C4          1.6130   -0.2240   -2.0770 c         1 DUQ      0.705700
      3 N3          2.2640   -1.4780   -1.9870 n         1 DUQ     -0.573500
      4 C2          3.2550   -1.7500   -1.0500 c         1 DUQ      0.818500
      5 O2          3.8400   -2.8660   -1.0590 o         1 DUQ     -0.725500
      6 C5          2.0700    0.7980   -1.1240 cc        1 DUQ     -0.270200
      7 C6          3.0190    0.5120   -0.2020 cd        1 DUQ      0.024600
      8 N1          3.6520   -0.7360   -0.1350 n         1 DUQ     -0.389000
      9 C1'         4.3520   -1.0680    1.0910 c3        1 DUQ      0.105000
     10 C1          5.4700   -2.1180    0.9750 c3        1 DUQ     -0.137700
     11 C38         6.4150   -1.7460   -0.1460 c         1 DUQ      0.581100
     12 N34         6.7530   -2.8610   -1.0970 n4        1 DUQ     -0.669800
     13 C39         7.5980   -2.4270   -2.2430 c3        1 DUQ      0.099800
     14 C40         7.7180   -3.5050   -3.3250 c3        1 DUQ      0.110400
     15 O37         6.4010   -3.8660   -3.7000 oh        1 DUQ     -0.621800
     16 O38         6.9260   -0.6530   -0.3420 o         1 DUQ     -0.437100
     17 C4'         6.2490   -2.1770    2.2860 c3        1 DUQ     -0.091400
     18 C5'         7.0550   -3.4600    2.4110 c3        1 DUQ      0.112400
     19 O1          8.0650   -3.4130    1.4030 os        1 DUQ     -0.483600
     20 C17         9.0050   -4.5230    1.4190 c3        1 DUQ      0.313700
     21 C30         9.7850   -4.5670    2.7150 ca        1 DUQ     -0.120967
     22 C31        10.0090   -3.3890    3.4380 ca        1 DUQ     -0.124167
     23 C32        10.7770   -3.4100    4.6000 ca        1 DUQ     -0.127000
     24 C33        11.3440   -4.6060    5.0420 ca        1 DUQ     -0.110000
     25 C34        11.1450   -5.7780    4.3130 ca        1 DUQ     -0.127000
     26 C35        10.3730   -5.7590    3.1520 ca        1 DUQ     -0.124167
     27 C24         8.2070   -5.7810    1.1400 ca        1 DUQ     -0.120967
     28 C25         7.6810   -6.5440    2.1910 ca        1 DUQ     -0.124167
     29 C26         6.9110   -7.6770    1.9280 ca        1 DUQ     -0.127000
     30 C27         6.6480   -8.0570    0.6120 ca        1 DUQ     -0.110000
     31 C28         7.1570   -7.2960   -0.4410 ca        1 DUQ     -0.127000
     32 C29         7.9270   -6.1640   -0.1780 ca        1 DUQ     -0.124167
     33 C18        10.0000   -4.2030    0.3160 ca        1 DUQ     -0.120967
     34 C19        10.2280   -2.8800   -0.0780 ca        1 DUQ     -0.124167
     35 C20        11.1910   -2.5900   -1.0450 ca        1 DUQ     -0.127000
     36 C21        11.9420   -3.6170   -1.6150 ca        1 DUQ     -0.110000
     37 C22        11.7290   -4.9370   -1.2140 ca        1 DUQ     -0.127000
     38 C23        10.7640   -5.2310   -0.2520 ca        1 DUQ     -0.124167
     39 H3          2.0040   -2.2170   -2.6080 hn        1 DUQ      0.364500
     40 H5          1.6020    1.7900   -1.2060 ha        1 DUQ      0.199000
     41 H6          3.3660    1.2620    0.5350 h4        1 DUQ      0.178000
     42 H1'1        3.6130   -1.4610    1.8510 h1        1 DUQ      0.082200
     43 H1'2        4.8070   -0.1130    1.4900 h1        1 DUQ      0.082200
     44 H1          4.9970   -3.1270    0.7880 hc        1 DUQ      0.123700
     45 H4'1        5.5220   -2.1430    3.1410 hc        1 DUQ      0.085200
     46 H4'2        6.9290   -1.2880    2.3700 hc        1 DUQ      0.085200
     47 H34         5.8670   -3.2600   -1.4630 hn        1 DUQ      0.493300
     48 H391        7.1320   -1.5000   -2.6830 hx        1 DUQ      0.116700
     49 H392        8.6280   -2.1740   -1.8510 hx        1 DUQ      0.116700
     50 H401        8.2890   -3.0660   -4.1870 h1        1 DUQ      0.066200
     51 H402        8.2600   -4.4110   -2.9400 h1        1 DUQ      0.066200
     52 H37         6.4490   -4.2950   -4.5640 ho        1 DUQ      0.443000
     53 H5'1        6.4070   -4.3640    2.2530 h1        1 DUQ      0.065700
     54 H5'2        7.5290   -3.5200    3.4280 h1        1 DUQ      0.065700
     55 H31         9.5860   -2.4390    3.0750 ha        1 DUQ      0.139333
     56 H35        10.2370   -6.6860    2.5720 ha        1 DUQ      0.139333
     57 H32        10.9450   -2.4800    5.1630 ha        1 DUQ      0.145833
     58 H33        11.9540   -4.6220    5.9580 ha        1 DUQ      0.148667
     59 HA         11.6020   -6.7210    4.6490 ha        1 DUQ      0.145833
     60 H25         7.8810   -6.2520    3.2350 ha        1 DUQ      0.139333
     61 H29         8.3440   -5.5880   -1.0190 ha        1 DUQ      0.139333
     62 H26         6.5140   -8.2740    2.7640 ha        1 DUQ      0.145833
     63 H27         6.0450   -8.9540    0.4040 ha        1 DUQ      0.148667
     64 H28         6.9570   -7.5940   -1.4810 ha        1 DUQ      0.145833
     65 H19         9.6720   -2.0610    0.4050 ha        1 DUQ      0.139333
     66 H23        10.6110   -6.2710    0.0760 ha        1 DUQ      0.139333
     67 H20        11.3740   -1.5450   -1.3380 ha        1 DUQ      0.145833
     68 H21        12.7130   -3.3870   -2.3660 ha        1 DUQ      0.148667
     69 H22        12.3340   -5.7490   -1.6470 ha        1 DUQ      0.145833
     70 H342        7.2470   -3.5950   -0.5540 hn        1 DUQ      0.493300
@<TRIPOS>BOND
     1    1    2 2   
     2    2    3 1   
     3    2    6 1   
     4    3    4 1   
     5    3   39 1   
     6    4    5 2   
     7    4    8 1   
     8    6    7 2   
     9    6   40 1   
    10    7    8 1   
    11    7   41 1   
    12    8    9 1   
    13    9   10 1   
    14    9   42 1   
    15    9   43 1   
    16   10   11 1   
    17   10   17 1   
    18   10   44 1   
    19   11   12 1   
    20   11   16 2   
    21   12   13 1   
    22   12   47 1   
    23   12   70 1   
    24   13   14 1   
    25   13   48 1   
    26   13   49 1   
    27   14   15 1   
    28   14   50 1   
    29   14   51 1   
    30   15   52 1   
    31   17   18 1   
    32   17   45 1   
    33   17   46 1   
    34   18   19 1   
    35   18   53 1   
    36   18   54 1   
    37   19   20 1   
    38   20   21 1   
    39   20   27 1   
    40   20   33 1   
    41   21   22 ar  
    42   21   26 ar  
    43   22   23 ar  
    44   22   55 1   
    45   23   24 ar  
    46   23   57 1   
    47   24   25 ar  
    48   24   58 1   
    49   25   26 ar  
    50   25   59 1   
    51   26   56 1   
    52   27   28 ar  
    53   27   32 ar  
    54   28   29 ar  
    55   28   60 1   
    56   29   30 ar  
    57   29   62 1   
    58   30   31 ar  
    59   30   63 1   
    60   31   32 ar  
    61   31   64 1   
    62   32   61 1   
    63   33   34 ar  
    64   33   38 ar  
    65   34   35 ar  
    66   34   65 1   
    67   35   36 ar  
    68   35   67 1   
    69   36   37 ar  
    70   36   68 1   
    71   37   38 ar  
    72   37   69 1   
    73   38   66 1   
@<TRIPOS>SUBSTRUCTURE
     1 DUQ         1 TEMP              0 ****  ****    0 ROOT
