@<TRIPOS>MOLECULE
DUQ
   70    73     1     0     0
SMALL
bcc


@<TRIPOS>ATOM
      1 O4          0.8840    0.0810   -3.0680 o         1 DUQ     -0.552500
      2 C4          1.7610   -0.0720   -2.2120 c         1 DUQ      0.705700
      3 N3          2.3550   -1.3490   -2.0670 n         1 DUQ     -0.573500
      4 C2          3.3360   -1.6250   -1.1210 c         1 DUQ      0.818500
      5 O2          3.8700   -2.7650   -1.0810 o         1 DUQ     -0.725500
      6 C5          2.2670    0.9680   -1.3060 cc        1 DUQ     -0.270200
      7 C6          3.2050    0.6810   -0.3740 cd        1 DUQ      0.024600
      8 N1          3.7820   -0.5910   -0.2520 n         1 DUQ     -0.389000
      9 C1'         4.4700   -0.8990    0.9860 c3        1 DUQ      0.105000
     10 C1          5.5390   -2.0030    0.9160 c3        1 DUQ     -0.137700
     11 C38         6.4970   -1.7240   -0.2220 c         1 DUQ      0.580100
     12 N34         6.7800   -2.8940   -1.1230 n4        1 DUQ     -0.669800
     13 C39         7.6400   -2.5510   -2.2880 c3        1 DUQ      0.099800
     14 C40         7.7070   -3.6790   -3.3220 c3        1 DUQ      0.110400
     15 O37         6.3730   -3.9950   -3.6800 oh        1 DUQ     -0.621800
     16 O38         7.0560   -0.6650   -0.4680 o         1 DUQ     -0.437100
     17 C4'         6.3190   -2.0390    2.2260 c3        1 DUQ     -0.091400
     18 C5'         7.0660   -3.3510    2.4070 c3        1 DUQ      0.112400
     19 O1          8.0730   -3.3960    1.3970 os        1 DUQ     -0.483600
     20 C17         8.9600   -4.5470    1.4600 c3        1 DUQ      0.313700
     21 C30         9.7420   -4.5700    2.7550 ca        1 DUQ     -0.120967
     22 C31        10.0230   -3.3730    3.4260 ca        1 DUQ     -0.124167
     23 C32        10.7950   -3.3790    4.5870 ca        1 DUQ     -0.127000
     24 C33        11.3070   -4.5790    5.0800 ca        1 DUQ     -0.110000
     25 C34        11.0510   -5.7710    4.4030 ca        1 DUQ     -0.127000
     26 C35        10.2770   -5.7680    3.2440 ca        1 DUQ     -0.124167
     27 C24         8.1040   -5.7770    1.2380 ca        1 DUQ     -0.120967
     28 C25         7.5470   -6.4680    2.3220 ca        1 DUQ     -0.124167
     29 C26         6.7240   -7.5740    2.1110 ca        1 DUQ     -0.127000
     30 C27         6.4390   -7.9980    0.8130 ca        1 DUQ     -0.110000
     31 C28         6.9790   -7.3090   -0.2730 ca        1 DUQ     -0.127000
     32 C29         7.8010   -6.2040   -0.0610 ca        1 DUQ     -0.124167
     33 C18         9.9650   -4.3230    0.3430 ca        1 DUQ     -0.120967
     34 C19        10.2540   -3.0300   -0.1090 ca        1 DUQ     -0.124167
     35 C20        11.2250   -2.8280   -1.0890 ca        1 DUQ     -0.127000
     36 C21        11.9260   -3.9130   -1.6160 ca        1 DUQ     -0.110000
     37 C22        11.6530   -5.2020   -1.1570 ca        1 DUQ     -0.127000
     38 C23        10.6790   -5.4090   -0.1810 ca        1 DUQ     -0.124167
     39 H3          2.0590   -2.1030   -2.6540 hn        1 DUQ      0.364500
     40 H5          1.8440    1.9760   -1.4300 ha        1 DUQ      0.199000
     41 H6          3.5890    1.4460    0.3300 h4        1 DUQ      0.178000
     42 H1'1        3.7170   -1.2240    1.7640 h1        1 DUQ      0.082200
     43 H1'2        4.9700    0.0500    1.3420 h1        1 DUQ      0.082200
     44 H1          5.0200   -2.9970    0.7740 hc        1 DUQ      0.123700
     45 H4'1        7.0390   -1.1800    2.2690 hc        1 DUQ      0.085200
     46 H4'2        5.5980   -1.9340    3.0810 hc        1 DUQ      0.085200
     47 H34         5.8750   -3.2680   -1.4700 hn        1 DUQ      0.493300
     48 H391        8.6820   -2.3280   -1.9090 hx        1 DUQ      0.116700
     49 H392        7.2160   -1.6230   -2.7690 hx        1 DUQ      0.116700
     50 H401        8.2080   -4.5910   -2.8990 h1        1 DUQ      0.066200
     51 H402        8.2940   -3.3060   -4.2030 h1        1 DUQ      0.066200
     52 H37         6.3990   -4.4640   -4.5240 ho        1 DUQ      0.443000
     53 H5'1        7.5400   -3.3880    3.4250 h1        1 DUQ      0.065700
     54 H5'2        6.3760   -4.2300    2.2910 h1        1 DUQ      0.065700
     55 H31         9.6450   -2.4210    3.0220 ha        1 DUQ      0.139333
     56 H35        10.0950   -6.7120    2.7060 ha        1 DUQ      0.139333
     57 H32        11.0080   -2.4330    5.1080 ha        1 DUQ      0.145833
     58 H33        11.9190   -4.5840    5.9950 ha        1 DUQ      0.148667
     59 HA         11.4650   -6.7190    4.7800 ha        1 DUQ      0.145833
     60 H25         7.7640   -6.1400    3.3520 ha        1 DUQ      0.139333
     61 H29         8.2420   -5.6860   -0.9270 ha        1 DUQ      0.139333
     62 H26         6.3030   -8.1140    2.9730 ha        1 DUQ      0.145833
     63 H27         5.7940   -8.8750    0.6470 ha        1 DUQ      0.148667
     64 H28         6.7610   -7.6430   -1.2980 ha        1 DUQ      0.145833
     65 H19         9.7390   -2.1650    0.3390 ha        1 DUQ      0.139333
     66 H23        10.4780   -6.4260    0.1920 ha        1 DUQ      0.139333
     67 H20        11.4570   -1.8070   -1.4280 ha        1 DUQ      0.145833
     68 H21        12.7040   -3.7520   -2.3770 ha        1 DUQ      0.148667
     69 H22        12.2170   -6.0600   -1.5550 ha        1 DUQ      0.145833
     70 H342        7.2410   -3.6250   -0.5490 hn        1 DUQ      0.493300
@<TRIPOS>BOND
     1    1    2 2   
     2    2    3 1   
     3    2    6 1   
     4    3    4 1   
     5    3   39 1   
     6    4    5 2   
     7    4    8 1   
     8    6    7 2   
     9    6   40 1   
    10    7    8 1   
    11    7   41 1   
    12    8    9 1   
    13    9   10 1   
    14    9   42 1   
    15    9   43 1   
    16   10   11 1   
    17   10   17 1   
    18   10   44 1   
    19   11   12 1   
    20   11   16 2   
    21   12   13 1   
    22   12   47 1   
    23   12   70 1   
    24   13   14 1   
    25   13   48 1   
    26   13   49 1   
    27   14   15 1   
    28   14   50 1   
    29   14   51 1   
    30   15   52 1   
    31   17   18 1   
    32   17   45 1   
    33   17   46 1   
    34   18   19 1   
    35   18   53 1   
    36   18   54 1   
    37   19   20 1   
    38   20   21 1   
    39   20   27 1   
    40   20   33 1   
    41   21   22 ar  
    42   21   26 ar  
    43   22   23 ar  
    44   22   55 1   
    45   23   24 ar  
    46   23   57 1   
    47   24   25 ar  
    48   24   58 1   
    49   25   26 ar  
    50   25   59 1   
    51   26   56 1   
    52   27   28 ar  
    53   27   32 ar  
    54   28   29 ar  
    55   28   60 1   
    56   29   30 ar  
    57   29   62 1   
    58   30   31 ar  
    59   30   63 1   
    60   31   32 ar  
    61   31   64 1   
    62   32   61 1   
    63   33   34 ar  
    64   33   38 ar  
    65   34   35 ar  
    66   34   65 1   
    67   35   36 ar  
    68   35   67 1   
    69   36   37 ar  
    70   36   68 1   
    71   37   38 ar  
    72   37   69 1   
    73   38   66 1   
@<TRIPOS>SUBSTRUCTURE
     1 DUQ         1 TEMP              0 ****  ****    0 ROOT
