@<TRIPOS>MOLECULE
DUQ
   69    64     1     0     0
SMALL
bcc


@<TRIPOS>ATOM
      1 O4         -5.8490   -1.0000    3.8950 o         1 DUQ     -0.335000
      2 C4         -5.0300   -0.3390    3.2760 c1        1 DUQ      0.352000
      3 N3         -3.7550   -0.8860    2.9840 n2        1 DUQ     -0.365000
      4 C2         -2.7620   -0.0930    2.2170 c2        1 DUQ      0.396000
      5 O2         -1.6280   -0.4740    2.1340 o         1 DUQ     -0.370000
      6 C5         -5.4220    0.9910    2.6980 c2        1 DUQ     -0.303000
      7 C6         -4.4590    1.7410    1.8460 c1        1 DUQ      0.041000
      8 N1         -3.1460    1.2250    1.6370 n2        1 DUQ     -0.274000
      9 C1'        -2.1760    1.9900    0.8800 c3        1 DUQ     -0.021000
     10 C1         -2.0340    1.3980   -0.4950 c3        1 DUQ     -0.144000
     11 C38        -2.8020    2.2380   -1.4890 c2        1 DUQ      0.296000
     12 N34        -2.5850    3.6540   -1.5560 n         1 DUQ     -0.362000
     13 C39        -2.9990    4.3890   -2.7340 c3        1 DUQ     -0.030000
     14 C40        -2.3540    5.7650   -2.7320 c3        1 DUQ     -0.048000
     15 O37        -1.7590    6.0040   -3.9800 oh        1 DUQ     -0.337000
     16 O38        -3.6000    1.7200   -2.2200 o         1 DUQ     -0.390000
     17 C4'        -0.5430    1.3670   -0.8880 c3        1 DUQ     -0.166000
     18 C5'         0.0470   -0.0700   -0.6130 c3        1 DUQ     -0.027000
     19 O1          1.4440    0.0330   -0.3440 os        1 DUQ     -0.278000
     20 C17         2.0660   -1.2080   -0.0550 c3        1 DUQ      0.214000
     21 C30         3.3500   -0.9600    0.8530 c2        1 DUQ     -0.095000
     22 C31         4.0470    0.2540    0.7690 c2        1 DUQ     -0.105000
     23 C32         5.1900    0.4510    1.5300 c1        1 DUQ     -0.134000
     24 C33         5.6420   -0.5530    2.3730 c1        1 DUQ     -0.128667
     25 C34         4.9550   -1.7500    2.4560 c1        1 DUQ     -0.128667
     26 C35         3.7980   -1.9500    1.6860 c1        1 DUQ     -0.117667
     27 C24         1.0400   -2.1440    0.7170 c2        1 DUQ     -0.095000
     28 C25         1.0980   -2.2490    2.1200 c2        1 DUQ     -0.105000
     29 C26         0.2070   -3.0970    2.7950 c1        1 DUQ     -0.134000
     30 C27        -0.7370   -3.8390    2.0720 c1        1 DUQ     -0.128667
     31 C28        -0.7910   -3.7330    0.6750 c1        1 DUQ     -0.128667
     32 C29         0.0980   -2.8850   -0.0000 c1        1 DUQ     -0.117667
     33 C18         2.5010   -1.9020   -1.3950 c2        1 DUQ     -0.095000
     34 C19         2.4270   -1.2010   -2.5940 c2        1 DUQ     -0.105000
     35 C20         2.9670   -1.7480   -3.7570 c1        1 DUQ     -0.134000
     36 C21         3.5790   -2.9910   -3.7200 c1        1 DUQ     -0.128667
     37 C22         3.6540   -3.6920   -2.5210 c1        1 DUQ     -0.128667
     38 C23         3.1140   -3.1450   -1.3570 c1        1 DUQ     -0.117667
     39 H3         -3.5360   -1.7050    3.2920 hn        1 DUQ      0.265000
     40 H5         -6.2770    1.3240    2.8370 ha        1 DUQ      0.181000
     41 H6         -4.7090    2.5980    1.4700 ha        1 DUQ      0.197000
     42 H1'1       -2.4840    2.9480    0.8060 h1        1 DUQ      0.122000
     43 H1'2       -1.3160    1.9610    1.3350 h1        1 DUQ      0.122000
     44 H1         -2.3940    0.4810   -0.4960 hc        1 DUQ      0.140000
     45 H4'1       -0.0360    2.0490   -0.3370 hc        1 DUQ      0.102500
     46 H4'2       -0.4480    1.5860   -1.8610 hc        1 DUQ      0.102500
     47 H34        -2.2130    4.0990   -0.8410 hn        1 DUQ      0.240000
     48 H391       -3.9720    4.4850   -2.7340 h1        1 DUQ      0.113500
     49 H392       -2.7200    3.9000   -3.5370 h1        1 DUQ      0.113500
     50 H401       -1.6750    5.8050   -2.0350 h1        1 DUQ      0.073500
     51 H402       -3.0310    6.4390   -2.5630 h1        1 DUQ      0.073500
     52 H37        -1.3430    6.7930   -3.9650 ho        1 DUQ      0.207000
     53 H5'1       -0.4080   -0.4690    0.1640 h1        1 DUQ      0.088000
     54 H5'2       -0.0940   -0.6480   -1.4130 h1        1 DUQ      0.088000
     55 H31         3.7360    0.9440    0.1890 ha        1 DUQ      0.145000
     56 H35         3.3210   -2.7810    1.7440 ha        1 DUQ      0.139333
     57 H32         5.6820    1.3070    1.4710 ha        1 DUQ      0.133333
     58 H33         6.4630   -0.4130    2.9200 ha        1 DUQ      0.132667
     59 HA          5.2670   -2.4420    3.0380 ha        1 DUQ      0.132667
     60 H25         1.7480   -1.7370    2.6150 ha        1 DUQ      0.145000
     61 H29         0.0590   -2.8150   -0.9480 ha        1 DUQ      0.139333
     62 H26         0.2470   -3.1730    3.7970 ha        1 DUQ      0.133333
     63 H27        -1.3380   -4.4120    2.5260 ha        1 DUQ      0.132667
     64 H28        -1.4590   -4.2570    0.1650 ha        1 DUQ      0.132667
     65 H19         1.9950   -0.3240   -2.6220 ha        1 DUQ      0.145000
     66 H23         3.1660   -3.6380   -0.5140 ha        1 DUQ      0.139333
     67 H20         2.9120   -1.2370   -4.6290 ha        1 DUQ      0.133333
     68 H21         3.9620   -3.3780   -4.5450 ha        1 DUQ      0.132667
     69 H22         4.0990   -4.5960   -2.4930 ha        1 DUQ      0.132667
@<TRIPOS>BOND
     1    1    2 1   
     2    2    6 1   
     3    3    4 1   
     4    3   39 1   
     5    4    5 1   
     6    4    8 1   
     7    6    7 1   
     8    6   40 1   
     9    7   41 1   
    10    8    9 1   
    11    9   10 1   
    12    9   42 1   
    13    9   43 1   
    14   10   11 1   
    15   10   17 1   
    16   10   44 1   
    17   11   12 1   
    18   11   16 1   
    19   12   13 1   
    20   12   47 1   
    21   13   14 1   
    22   13   48 1   
    23   13   49 1   
    24   14   15 1   
    25   14   50 1   
    26   14   51 1   
    27   15   52 1   
    28   17   18 1   
    29   17   45 1   
    30   17   46 1   
    31   18   19 1   
    32   18   53 1   
    33   18   54 1   
    34   19   20 1   
    35   20   21 1   
    36   20   27 1   
    37   20   33 1   
    38   21   22 1   
    39   21   26 1   
    40   22   23 1   
    41   22   55 1   
    42   23   57 1   
    43   24   25 1   
    44   24   58 1   
    45   25   59 1   
    46   26   56 1   
    47   27   28 1   
    48   27   32 1   
    49   28   29 1   
    50   28   60 1   
    51   29   62 1   
    52   30   31 1   
    53   30   63 1   
    54   31   64 1   
    55   32   61 1   
    56   33   34 1   
    57   33   38 1   
    58   34   35 1   
    59   34   65 1   
    60   35   67 1   
    61   36   37 1   
    62   36   68 1   
    63   37   69 1   
    64   38   66 1   
@<TRIPOS>SUBSTRUCTURE
     1 DUQ         1 TEMP              0 ****  ****    0 ROOT
