@<TRIPOS>MOLECULE
DUQ
   70    73     1     0     0
SMALL
bcc


@<TRIPOS>ATOM
      1 O4          0.8890    0.0300   -3.1320 o         1 DUQ     -0.552500
      2 C4          1.7590   -0.1180   -2.2660 c         1 DUQ      0.705700
      3 N3          2.3610   -1.3900   -2.1170 ns        1 DUQ     -0.573500
      4 C2          3.3340   -1.6590   -1.1610 c         1 DUQ      0.818500
      5 O2          3.8770   -2.7950   -1.1160 o         1 DUQ     -0.725500
      6 C5          2.2470    0.9260   -1.3540 cc        1 DUQ     -0.270200
      7 C6          3.1780    0.6450   -0.4120 cd        1 DUQ      0.024600
      8 N1          3.7630   -0.6220   -0.2860 n         1 DUQ     -0.389000
      9 C1'         4.4410   -0.9260    0.9590 c3        1 DUQ      0.105000
     10 C1          5.5190   -2.0210    0.8980 c3        1 DUQ     -0.137700
     11 C38         6.4860   -1.7330   -0.2300 c         1 DUQ      0.580100
     12 N34         6.7890   -2.8990   -1.1290 ny        1 DUQ     -0.669800
     13 C39         7.6580   -2.5470   -2.2850 c3        1 DUQ      0.099800
     14 C40         7.7440   -3.6740   -3.3200 c3        1 DUQ      0.110400
     15 O37         6.4180   -4.0010   -3.6910 oh        1 DUQ     -0.621800
     16 O38         7.0390   -0.6690   -0.4680 o         1 DUQ     -0.437100
     17 C4'         6.2870   -2.0530    2.2160 c3        1 DUQ     -0.091400
     18 C5'         7.0440   -3.3580    2.4030 c3        1 DUQ      0.112400
     19 O1          8.0610   -3.3920    1.4030 os        1 DUQ     -0.483600
     20 C17         8.9580   -4.5350    1.4740 c3        1 DUQ      0.313700
     21 C30         9.7270   -4.5520    2.7770 ca        1 DUQ     -0.120967
     22 C31         9.9900   -3.3530    3.4520 ca        1 DUQ     -0.124167
     23 C32        10.7500   -3.3530    4.6200 ca        1 DUQ     -0.127000
     24 C33        11.2680   -4.5490    5.1180 ca        1 DUQ     -0.110000
     25 C34        11.0300   -5.7430    4.4380 ca        1 DUQ     -0.127000
     26 C35        10.2680   -5.7450    3.2700 ca        1 DUQ     -0.124167
     27 C24         8.1160   -5.7730    1.2420 ca        1 DUQ     -0.120967
     28 C25         7.5540   -6.4700    2.3200 ca        1 DUQ     -0.124167
     29 C26         6.7440   -7.5830    2.0990 ca        1 DUQ     -0.127000
     30 C27         6.4760   -8.0090    0.7980 ca        1 DUQ     -0.110000
     31 C28         7.0210   -7.3140   -0.2820 ca        1 DUQ     -0.127000
     32 C29         7.8310   -6.2010   -0.0610 ca        1 DUQ     -0.124167
     33 C18         9.9730   -4.3000    0.3670 ca        1 DUQ     -0.120967
     34 C19        10.2540   -3.0040   -0.0800 ca        1 DUQ     -0.124167
     35 C20        11.2330   -2.7920   -1.0500 ca        1 DUQ     -0.127000
     36 C21        11.9490   -3.8700   -1.5700 ca        1 DUQ     -0.110000
     37 C22        11.6840   -5.1620   -1.1150 ca        1 DUQ     -0.127000
     38 C23        10.7020   -5.3780   -0.1500 ca        1 DUQ     -0.124167
     39 H3          2.0780   -2.1460   -2.7080 hn        1 DUQ      0.364500
     40 H5          1.8170    1.9300   -1.4820 ha        1 DUQ      0.199000
     41 H6          3.5470    1.4120    0.2960 h4        1 DUQ      0.178000
     42 H1'1        3.6830   -1.2590    1.7280 h1        1 DUQ      0.082200
     43 H1'2        4.9290    0.0270    1.3210 h1        1 DUQ      0.082200
     44 H1          5.0100   -3.0190    0.7500 hc        1 DUQ      0.123700
     45 H4'1        6.9990   -1.1870    2.2680 hc        1 DUQ      0.085200
     46 H4'2        5.5560   -1.9550    3.0630 hc        1 DUQ      0.085200
     47 H34         7.2510   -3.6270   -0.5520 hn        1 DUQ      0.493300
     48 H391        8.6930   -2.3160   -1.8950 hx        1 DUQ      0.116700
     49 H392        7.2300   -1.6230   -2.7690 hx        1 DUQ      0.116700
     50 H401        8.2500   -4.5820   -2.8920 h1        1 DUQ      0.066200
     51 H402        8.3380   -3.2940   -4.1950 h1        1 DUQ      0.066200
     52 H37         6.4560   -4.4690   -4.5350 ho        1 DUQ      0.443000
     53 H5'1        7.5070   -3.3920    3.4260 h1        1 DUQ      0.065700
     54 H5'2        6.3630   -4.2430    2.2790 h1        1 DUQ      0.065700
     55 H31         9.6070   -2.4040    3.0450 ha        1 DUQ      0.139333
     56 H35        10.1010   -6.6910    2.7300 ha        1 DUQ      0.139333
     57 H32        10.9480   -2.4060    5.1450 ha        1 DUQ      0.145833
     58 H33        11.8700   -4.5490    6.0390 ha        1 DUQ      0.148667
     59 HA         11.4490   -6.6870    4.8180 ha        1 DUQ      0.145833
     60 H25         7.7580   -6.1410    3.3520 ha        1 DUQ      0.139333
     61 H29         8.2750   -5.6780   -0.9220 ha        1 DUQ      0.139333
     62 H26         6.3190   -8.1290    2.9560 ha        1 DUQ      0.145833
     63 H27         5.8420   -8.8920    0.6240 ha        1 DUQ      0.148667
     64 H28         6.8170   -7.6490   -1.3100 ha        1 DUQ      0.145833
     65 H19         9.7260   -2.1450    0.3630 ha        1 DUQ      0.139333
     66 H23        10.5070   -6.3980    0.2200 ha        1 DUQ      0.139333
     67 H20        11.4580   -1.7680   -1.3860 ha        1 DUQ      0.145833
     68 H21        12.7330   -3.7010   -2.3240 ha        1 DUQ      0.148667
     69 H22        12.2600   -6.0140   -1.5080 ha        1 DUQ      0.145833
     70 H342        5.8910   -3.2810   -1.4860 hn        1 DUQ      0.493300
@<TRIPOS>BOND
     1    1    2 2   
     2    2    3 1   
     3    2    6 1   
     4    3    4 1   
     5    3   39 1   
     6    4    5 2   
     7    4    8 1   
     8    6    7 2   
     9    6   40 1   
    10    7    8 1   
    11    7   41 1   
    12    8    9 1   
    13    9   10 1   
    14    9   42 1   
    15    9   43 1   
    16   10   11 1   
    17   10   17 1   
    18   10   44 1   
    19   11   12 1   
    20   11   16 2   
    21   12   13 1   
    22   12   47 1   
    23   12   70 1   
    24   13   14 1   
    25   13   48 1   
    26   13   49 1   
    27   14   15 1   
    28   14   50 1   
    29   14   51 1   
    30   15   52 1   
    31   17   18 1   
    32   17   45 1   
    33   17   46 1   
    34   18   19 1   
    35   18   53 1   
    36   18   54 1   
    37   19   20 1   
    38   20   21 1   
    39   20   27 1   
    40   20   33 1   
    41   21   22 ar  
    42   21   26 ar  
    43   22   23 ar  
    44   22   55 1   
    45   23   24 ar  
    46   23   57 1   
    47   24   25 ar  
    48   24   58 1   
    49   25   26 ar  
    50   25   59 1   
    51   26   56 1   
    52   27   28 ar  
    53   27   32 ar  
    54   28   29 ar  
    55   28   60 1   
    56   29   30 ar  
    57   29   62 1   
    58   30   31 ar  
    59   30   63 1   
    60   31   32 ar  
    61   31   64 1   
    62   32   61 1   
    63   33   34 ar  
    64   33   38 ar  
    65   34   35 ar  
    66   34   65 1   
    67   35   36 ar  
    68   35   67 1   
    69   36   37 ar  
    70   36   68 1   
    71   37   38 ar  
    72   37   69 1   
    73   38   66 1   
@<TRIPOS>SUBSTRUCTURE
     1 DUQ         1 TEMP              0 ****  ****    0 ROOT
