@<TRIPOS>MOLECULE
DUR
   28    29     1     0     0
SMALL
bcc


@<TRIPOS>ATOM
      1 N1          0.0030    0.1660   -0.2130 n         1 DUR     -0.389000
      2 C2          1.4200    0.1780   -0.3400 c         1 DUR      0.811500
      3 N3          2.1990   -0.1660    0.7750 n         1 DUR     -0.586500
      4 C4          1.6480   -0.6020    1.9940 c         1 DUR      0.713700
      5 C5          0.1830   -0.6760    2.0420 cc        1 DUR     -0.311200
      6 C6         -0.5600   -0.3220    0.9640 cd        1 DUR      0.049600
      7 O2          1.9880    0.5140   -1.4030 o         1 DUR     -0.657500
      8 O4          2.4100   -0.8940    2.9290 o         1 DUR     -0.601500
      9 C1'        -0.8780    0.4020   -1.3580 c3        1 DUR      0.317500
     10 C2'        -0.4490    1.5300   -2.3150 c3        1 DUR     -0.136400
     11 C3'        -0.0050    0.8240   -3.6030 c3        1 DUR      0.124100
     12 C4'        -0.4410   -0.6440   -3.4420 c3        1 DUR      0.098100
     13 O3'        -0.6770    1.3410   -4.7380 oh        1 DUR     -0.591800
     14 O4'        -1.0290   -0.7920   -2.1390 os        1 DUR     -0.434600
     15 C5'         0.7360   -1.6100   -3.5670 c3        1 DUR      0.115400
     16 O5'         0.3130   -2.9500   -3.4340 oh        1 DUR     -0.593800
     17 HN3         3.1900   -0.1200    0.6650 hn        1 DUR      0.353500
     18 H5         -0.2630   -1.0290    2.9790 ha        1 DUR      0.181000
     19 H6         -1.6650   -0.3890    0.9730 h4        1 DUR      0.167000
     20 H1'        -1.9080    0.6030   -0.9330 h2        1 DUR      0.085700
     21 H2'1       -1.3340    2.1840   -2.5180 hc        1 DUR      0.081700
     22 H2'2        0.3740    2.1600   -1.8990 hc        1 DUR      0.081700
     23 H3'         1.1090    0.9010   -3.7310 h1        1 DUR      0.078700
     24 H4'        -1.2550   -0.9140   -4.1700 h1        1 DUR      0.101700
     25 HO3'       -0.2920    2.2070   -4.9170 ho        1 DUR      0.408000
     26 H5'1        1.5180   -1.3670   -2.7980 h1        1 DUR      0.062700
     27 H5'2        1.1760   -1.5430   -4.5980 h1        1 DUR      0.062700
     28 HO5'       -0.1500   -3.0190   -2.5890 ho        1 DUR      0.409000
@<TRIPOS>BOND
     1    1    2 1   
     2    1    6 1   
     3    1    9 1   
     4    2    3 1   
     5    2    7 2   
     6    3    4 1   
     7    3   17 1   
     8    4    5 1   
     9    4    8 2   
    10    5    6 2   
    11    5   18 1   
    12    6   19 1   
    13    9   10 1   
    14    9   14 1   
    15    9   20 1   
    16   10   11 1   
    17   10   21 1   
    18   10   22 1   
    19   11   12 1   
    20   11   13 1   
    21   11   23 1   
    22   12   14 1   
    23   12   15 1   
    24   12   24 1   
    25   13   25 1   
    26   15   16 1   
    27   15   26 1   
    28   15   27 1   
    29   16   28 1   
@<TRIPOS>SUBSTRUCTURE
     1 DUR         1 TEMP              0 ****  ****    0 ROOT
