@<TRIPOS>MOLECULE
DUR
   28    29     1     0     0
SMALL
bcc


@<TRIPOS>ATOM
      1 N1         -0.0400    0.1670   -0.2220 n         1 DUR     -0.389000
      2 C2          1.3810    0.1930   -0.3050 c         1 DUR      0.811500
      3 N3          2.1290   -0.1400    0.8330 ns        1 DUR     -0.586500
      4 C4          1.5450   -0.5800    2.0360 c         1 DUR      0.713700
      5 C5          0.0800   -0.6680    2.0390 cc        1 DUR     -0.311200
      6 C6         -0.6330   -0.3250    0.9380 cd        1 DUR      0.049600
      7 O2          1.9780    0.5320   -1.3520 o         1 DUR     -0.657500
      8 O4          2.2810   -0.8620    2.9950 o         1 DUR     -0.601500
      9 C1'        -0.8860    0.3910   -1.3950 c3        1 DUR      0.317500
     10 C2'        -0.4400    1.5210   -2.3410 c3        1 DUR     -0.136400
     11 C3'         0.0510    0.8160   -3.6120 c3        1 DUR      0.124100
     12 C4'        -0.3750   -0.6560   -3.4610 c3        1 DUR      0.098100
     13 O3'        -0.5910    1.3230   -4.7690 oh        1 DUR     -0.591800
     14 O4'        -1.0020   -0.8060   -2.1770 os        1 DUR     -0.434600
     15 C5'         0.8150   -1.6100   -3.5470 c3        1 DUR      0.115400
     16 O5'         0.4020   -2.9540   -3.4240 oh        1 DUR     -0.593800
     17 HN3         3.1220   -0.0840    0.7540 hn        1 DUR      0.353500
     18 H5         -0.3910   -1.0250    2.9630 ha        1 DUR      0.181000
     19 H6         -1.7370   -0.4030    0.9130 h4        1 DUR      0.167000
     20 H1'        -1.9320    0.5820   -1.0020 h2        1 DUR      0.085700
     21 H2'1       -1.3250    2.1650   -2.5730 hc        1 DUR      0.081700
     22 H2'2        0.3640    2.1600   -1.9020 hc        1 DUR      0.081700
     23 H3'         1.1670    0.9040   -3.7070 h1        1 DUR      0.078700
     24 H4'        -1.1630   -0.9360   -4.2130 h1        1 DUR      0.101700
     25 HO3'       -0.2100    2.1930   -4.9390 ho        1 DUR      0.408000
     26 H5'1        1.2860   -1.5410   -4.5640 h1        1 DUR      0.062700
     27 H5'2        1.5710   -1.3570   -2.7550 h1        1 DUR      0.062700
     28 HO5'       -0.0870   -3.0260   -2.5930 ho        1 DUR      0.409000
@<TRIPOS>BOND
     1    1    2 1   
     2    1    6 1   
     3    1    9 1   
     4    2    3 1   
     5    2    7 2   
     6    3    4 1   
     7    3   17 1   
     8    4    5 1   
     9    4    8 2   
    10    5    6 2   
    11    5   18 1   
    12    6   19 1   
    13    9   10 1   
    14    9   14 1   
    15    9   20 1   
    16   10   11 1   
    17   10   21 1   
    18   10   22 1   
    19   11   12 1   
    20   11   13 1   
    21   11   23 1   
    22   12   14 1   
    23   12   15 1   
    24   12   24 1   
    25   13   25 1   
    26   15   16 1   
    27   15   26 1   
    28   15   27 1   
    29   16   28 1   
@<TRIPOS>SUBSTRUCTURE
     1 DUR         1 TEMP              0 ****  ****    0 ROOT
