@<TRIPOS>MOLECULE
DUR
   28    29     1     0     0
SMALL
bcc


@<TRIPOS>ATOM
      1 N1         -0.4140    0.5590   -0.8160 n         1 DUR     -0.389000
      2 C2         -0.1210   -0.8190   -1.0130 c         1 DUR      0.811500
      3 N3          0.4660   -1.2170   -2.2230 n         1 DUR     -0.586500
      4 C4          0.8550   -0.3080   -3.2250 c         1 DUR      0.713700
      5 C5          0.6050    1.1080   -2.9340 cc        1 DUR     -0.311200
      6 C6          0.0200    1.4780   -1.7680 cd        1 DUR      0.049600
      7 O2         -0.3960   -1.6860   -0.1530 o         1 DUR     -0.657500
      8 O4          1.3740   -0.7440   -4.2650 o         1 DUR     -0.601500
      9 C1'        -0.9200    1.0670    0.4600 c3        1 DUR      0.317500
     10 C2'        -1.9900    0.2010    1.1520 c3        1 DUR     -0.136400
     11 C3'        -1.2960   -0.3960    2.3830 c3        1 DUR      0.124100
     12 C4'         0.0470    0.3480    2.5040 c3        1 DUR      0.098100
     13 O3'        -2.0280   -0.1400    3.5680 oh        1 DUR     -0.591800
     14 O4'         0.1520    1.2560    1.3950 os        1 DUR     -0.434600
     15 C5'         1.2380   -0.6070    2.4790 c3        1 DUR      0.115400
     16 O5'         2.4570    0.0930    2.6080 oh        1 DUR     -0.593800
     17 HN3         0.6330   -2.1930   -2.3460 hn        1 DUR      0.353500
     18 H5          0.9170    1.8320   -3.6960 ha        1 DUR      0.181000
     19 H6         -0.1590    2.5430   -1.5200 h4        1 DUR      0.167000
     20 H1'        -1.3140    2.1090    0.2560 h2        1 DUR      0.085700
     21 H2'1       -2.8370    0.8610    1.4670 hc        1 DUR      0.081700
     22 H2'2       -2.3900   -0.6030    0.4890 hc        1 DUR      0.081700
     23 H3'        -1.1330   -1.5000    2.2480 h1        1 DUR      0.078700
     24 H4'         0.0770    0.9960    3.4240 h1        1 DUR      0.101700
     25 HO3'       -2.7980   -0.7210    3.5500 ho        1 DUR      0.408000
     26 H5'1        1.2300   -1.2090    1.5300 h1        1 DUR      0.062700
     27 H5'2        1.1980   -1.2900    3.3680 h1        1 DUR      0.062700
     28 HO5'        2.4810    0.7540    1.9030 ho        1 DUR      0.409000
@<TRIPOS>BOND
     1    1    2 1   
     2    1    6 1   
     3    1    9 1   
     4    2    3 1   
     5    2    7 2   
     6    3    4 1   
     7    3   17 1   
     8    4    5 1   
     9    4    8 2   
    10    5    6 2   
    11    5   18 1   
    12    6   19 1   
    13    9   10 1   
    14    9   14 1   
    15    9   20 1   
    16   10   11 1   
    17   10   21 1   
    18   10   22 1   
    19   11   12 1   
    20   11   13 1   
    21   11   23 1   
    22   12   14 1   
    23   12   15 1   
    24   12   24 1   
    25   13   25 1   
    26   15   16 1   
    27   15   26 1   
    28   15   27 1   
    29   16   28 1   
@<TRIPOS>SUBSTRUCTURE
     1 DUR         1 TEMP              0 ****  ****    0 ROOT
