@<TRIPOS>MOLECULE
DUR
   28    29     1     0     0
SMALL
bcc


@<TRIPOS>ATOM
      1 N1         -0.0270    0.1670   -0.2200 n         1 DUR     -0.389000
      2 C2          1.3930    0.1720   -0.3110 c         1 DUR      0.811500
      3 N3          2.1420   -0.1780    0.8220 n         1 DUR     -0.586500
      4 C4          1.5590   -0.6130    2.0260 c         1 DUR      0.713700
      5 C5          0.0930   -0.6790    2.0380 cc        1 DUR     -0.311200
      6 C6         -0.6210   -0.3200    0.9420 cd        1 DUR      0.049600
      7 O2          1.9890    0.5050   -1.3600 o         1 DUR     -0.657500
      8 O4          2.2960   -0.9100    2.9800 o         1 DUR     -0.601500
      9 C1'        -0.8770    0.4080   -1.3860 c3        1 DUR      0.317500
     10 C2'        -0.4190    1.5350   -2.3300 c3        1 DUR     -0.136400
     11 C3'         0.0530    0.8280   -3.6080 c3        1 DUR      0.124100
     12 C4'        -0.3950   -0.6380   -3.4590 c3        1 DUR      0.098100
     13 O3'        -0.5870    1.3490   -4.7580 oh        1 DUR     -0.591800
     14 O4'        -1.0160   -0.7840   -2.1710 os        1 DUR     -0.434600
     15 C5'         0.7800   -1.6110   -3.5560 c3        1 DUR      0.115400
     16 O5'         0.3460   -2.9480   -3.4350 oh        1 DUR     -0.593800
     17 HN3         3.1360   -0.1370    0.7370 hn        1 DUR      0.353500
     18 H5         -0.3790   -1.0310    2.9630 ha        1 DUR      0.181000
     19 H6         -1.7270   -0.3810    0.9240 h4        1 DUR      0.167000
     20 H1'        -1.9170    0.6150   -0.9860 h2        1 DUR      0.085700
     21 H2'1        0.3970    2.1600   -1.8940 hc        1 DUR      0.081700
     22 H2'2       -1.2950    2.1940   -2.5550 hc        1 DUR      0.081700
     23 H3'         1.1700    0.8990   -3.7080 h1        1 DUR      0.078700
     24 H4'        -1.1920   -0.9030   -4.2080 h1        1 DUR      0.101700
     25 HO3'       -0.1940    2.2140   -4.9280 ho        1 DUR      0.408000
     26 H5'1        1.2450   -1.5450   -4.5750 h1        1 DUR      0.062700
     27 H5'2        1.5440   -1.3720   -2.7680 h1        1 DUR      0.062700
     28 HO5'       -0.1390   -3.0150   -2.6020 ho        1 DUR      0.409000
@<TRIPOS>BOND
     1    1    2 1   
     2    1    6 1   
     3    1    9 1   
     4    2    3 1   
     5    2    7 2   
     6    3    4 1   
     7    3   17 1   
     8    4    5 1   
     9    4    8 2   
    10    5    6 2   
    11    5   18 1   
    12    6   19 1   
    13    9   10 1   
    14    9   14 1   
    15    9   20 1   
    16   10   11 1   
    17   10   21 1   
    18   10   22 1   
    19   11   12 1   
    20   11   13 1   
    21   11   23 1   
    22   12   14 1   
    23   12   15 1   
    24   12   24 1   
    25   13   25 1   
    26   15   16 1   
    27   15   26 1   
    28   15   27 1   
    29   16   28 1   
@<TRIPOS>SUBSTRUCTURE
     1 DUR         1 TEMP              0 ****  ****    0 ROOT
