@<TRIPOS>MOLECULE
DUR
   28    29     1     0     0
SMALL
bcc


@<TRIPOS>ATOM
      1 N1          0.5170   -1.1460    0.6270 n         1 DUR     -0.389000
      2 C2          1.8820   -0.7070    0.9210 c         1 DUR      0.811500
      3 N3          2.5540   -1.1670    2.1370 n         1 DUR     -0.586500
      4 C4          1.9020   -2.0770    3.0090 c         1 DUR      0.713700
      5 C5          0.5330   -2.5190    2.7160 cc        1 DUR     -0.311200
      6 C6         -0.1400   -2.0560    1.4950 cd        1 DUR      0.049600
      7 O2          2.4530    0.0490    0.1620 o         1 DUR     -0.657500
      8 O4          2.4610   -2.4580    4.0170 o         1 DUR     -0.601500
      9 C1'        -0.1230   -0.7050   -0.5350 c3        1 DUR      0.317500
     10 C2'        -1.3860   -0.4460   -0.2850 c3        1 DUR     -0.136400
     11 C3'        -1.7380    0.7350   -1.1970 c3        1 DUR      0.124100
     12 C4'        -0.3590    1.2710   -1.7530 c3        1 DUR      0.098100
     13 O3'        -2.5170    0.3270   -2.2030 oh        1 DUR     -0.591800
     14 O4'         0.5370    0.6930   -1.0400 os        1 DUR     -0.434600
     15 C5'        -0.2730    2.7880   -1.5860 c3        1 DUR      0.115400
     16 O5'         0.9520    3.2500   -2.1090 oh        1 DUR     -0.593800
     17 HN3         3.4050   -0.8920    2.3190 hn        1 DUR      0.353500
     18 H5          0.0830   -3.1450    3.3140 ha        1 DUR      0.181000
     19 H6         -1.0500   -2.3480    1.2980 h4        1 DUR      0.167000
     20 H1'        -0.0520   -1.3830   -1.2380 h2        1 DUR      0.085700
     21 H2'1       -1.5020   -0.1960    0.6550 hc        1 DUR      0.081700
     22 H2'2       -1.9420   -1.2220   -0.5030 hc        1 DUR      0.081700
     23 H3'        -2.1890    1.4350   -0.6830 h1        1 DUR      0.078700
     24 H4'        -0.2540    1.0260   -2.6940 h1        1 DUR      0.101700
     25 HO3'       -3.3660    0.5290   -2.0230 ho        1 DUR      0.408000
     26 H5'1       -1.0140    3.2120   -2.0670 h1        1 DUR      0.062700
     27 H5'2       -0.3290    3.0150   -0.6350 h1        1 DUR      0.062700
     28 HO5'        0.9540    4.1390   -2.1180 ho        1 DUR      0.409000
@<TRIPOS>BOND
     1    1    2 1   
     2    1    6 1   
     3    1    9 1   
     4    2    3 1   
     5    2    7 2   
     6    3    4 1   
     7    3   17 1   
     8    4    5 1   
     9    4    8 2   
    10    5    6 2   
    11    5   18 1   
    12    6   19 1   
    13    9   10 1   
    14    9   14 1   
    15    9   20 1   
    16   10   11 1   
    17   10   21 1   
    18   10   22 1   
    19   11   12 1   
    20   11   13 1   
    21   11   23 1   
    22   12   14 1   
    23   12   15 1   
    24   12   24 1   
    25   13   25 1   
    26   15   16 1   
    27   15   26 1   
    28   15   27 1   
    29   16   28 1   
@<TRIPOS>SUBSTRUCTURE
     1 DUR         1 TEMP              0 ****  ****    0 ROOT
