@<TRIPOS>MOLECULE
DUT
   39    40     1     0     0
SMALL
bcc


@<TRIPOS>ATOM
      1 N1          0.0000    0.0000    0.0000 n         1 DUT      0.134000
      2 C2          1.3450    0.0000    0.0000 c         1 DUT      0.577500
      3 N3          2.0360    0.0000    1.1540 ns        1 DUT     -0.163500
      4 C4          1.3870   -0.0090    2.3360 c         1 DUT      0.546700
      5 C5         -0.0280   -0.0140    2.3500 cc        1 DUT     -0.396200
      6 C6         -0.6970   -0.0090    1.1770 cd        1 DUT     -0.497400
      7 O2          1.9440    0.0090   -1.0580 o         1 DUT     -0.772500
      8 O4          2.0120   -0.0140    3.3810 o         1 DUT     -0.879500
      9 C1'        -0.7250    0.0040   -1.2720 c3        1 DUT      0.224500
     10 C2'        -0.3680    1.2650   -2.0900 c3        1 DUT     -0.120400
     11 C3'        -0.3340    0.7660   -3.5520 c3        1 DUT      0.152100
     12 C4'        -0.6720   -0.7370   -3.4470 c3        1 DUT      0.154100
     13 O4'        -0.3040   -1.1030   -2.0980 os        1 DUT     -0.340600
     14 O3'        -1.3150    1.4470   -4.3370 oh        1 DUT     -0.603800
     15 C5'         0.1400   -1.5460   -4.4600 c3        1 DUT      0.247400
     16 O5'        -0.1380   -2.9380   -4.2930 os        1 DUT     -0.472200
     17 PA          0.7460   -3.7240   -5.3820 p5        1 DUT      0.898800
     18 O1A         0.3700   -3.2730   -6.7400 o         1 DUT     -0.671000
     19 O2A         2.3060   -3.4190   -5.1290 o         1 DUT     -0.671000
     20 O3A         0.4800   -5.3050   -5.2500 os        1 DUT     -0.490800
     21 PB          1.3920   -6.0260   -6.3640 p5        1 DUT      0.978800
     22 O1B         2.8150   -5.7110   -6.1150 o         1 DUT     -0.499500
     23 O2B         0.9710   -5.4980   -7.8240 o         1 DUT     -0.499500
     24 O3B         1.1740   -7.6190   -6.2870 os        1 DUT     -0.485800
     25 PG          2.1100   -8.2720   -7.4230 p5        1 DUT      0.802900
     26 O1G         3.5230   -7.9220   -7.1580 o         1 DUT     -0.654500
     27 O2G         1.9420   -9.8730   -7.4020 o         1 DUT     -0.654500
     28 O3G         1.6780   -7.7070   -8.8650 o         1 DUT     -0.654500
     29 HN3         3.0370    0.0020    1.1360 hn        1 DUT      0.157500
     30 H5         -0.5680   -0.0210    3.2890 ha        1 DUT      0.089000
     31 H6         -1.7760    0.0910    1.1690 h4        1 DUT      0.097000
     32 H1'        -1.7940   -0.0410   -1.1020 h2        1 DUT      0.002700
     33 H2'1        0.6040    1.6430   -1.7970 hc        1 DUT      0.023700
     34 H2'2       -1.1310    2.0240   -1.9670 hc        1 DUT      0.023700
     35 H3'         0.6550    0.9000   -3.9720 h1        1 DUT      0.026700
     36 H4'        -1.7340   -0.8930   -3.5990 h1        1 DUT      0.001700
     37 HO3'       -0.8940    2.1050   -4.8650 ho        1 DUT      0.363000
     38 H5'1        1.1960   -1.3670   -4.3000 h1        1 DUT      0.013200
     39 H5'2       -0.1300   -1.2420   -5.4640 h1        1 DUT      0.013200
@<TRIPOS>BOND
     1    1    2 1   
     2    1    6 1   
     3    1    9 1   
     4    2    3 1   
     5    2    7 2   
     6    3    4 1   
     7    3   29 1   
     8    4    5 1   
     9    4    8 2   
    10    5    6 2   
    11    5   30 1   
    12    6   31 1   
    13    9   10 1   
    14    9   13 1   
    15    9   32 1   
    16   10   11 1   
    17   10   33 1   
    18   10   34 1   
    19   11   12 1   
    20   11   14 1   
    21   11   35 1   
    22   12   13 1   
    23   12   15 1   
    24   12   36 1   
    25   14   37 1   
    26   15   16 1   
    27   15   38 1   
    28   15   39 1   
    29   16   17 1   
    30   17   18 1   
    31   17   19 1   
    32   17   20 1   
    33   20   21 1   
    34   21   22 1   
    35   21   23 1   
    36   21   24 1   
    37   24   25 1   
    38   25   26 1   
    39   25   27 1   
    40   25   28 1   
@<TRIPOS>SUBSTRUCTURE
     1 DUT         1 TEMP              0 ****  ****    0 ROOT
