@<TRIPOS>MOLECULE
DUX
   60    64     1     0     0
SMALL
bcc


@<TRIPOS>ATOM
      1 F3'        -0.5850   -0.5920   -0.2920 f         1 DUX     -0.232300
      2 C3'         0.7440   -0.5280    0.0830 c3        1 DUX      0.149600
      3 C2'         0.9220   -0.7070    1.6030 c3        1 DUX     -0.131400
      4 C1'         2.0360   -1.7560    1.7620 c3        1 DUX      0.308500
      5 N1          3.3260   -1.2570    2.2410 n         1 DUX     -0.385000
      6 C2          3.8710   -0.0220    1.7900 c         1 DUX      0.812500
      7 N3          5.1670    0.3310    2.1950 n         1 DUX     -0.583500
      8 C4          6.0000   -0.5250    2.9390 c         1 DUX      0.714700
      9 C5          5.4210   -1.8240    3.2990 cc        1 DUX     -0.311200
     10 C6          4.1570   -2.1420    2.9250 cd        1 DUX      0.052600
     11 O4          7.1430   -0.1420    3.2390 o         1 DUX     -0.605500
     12 O2          3.2160    0.7710    1.0770 o         1 DUX     -0.660500
     13 O4'         2.1770   -2.4250    0.5020 os        1 DUX     -0.408600
     14 C4'         1.5720   -1.6770   -0.5580 c3        1 DUX      0.108100
     15 C5'         2.6430   -1.1250   -1.4980 c3        1 DUX      0.111400
     16 O5'         3.1070   -2.2350   -2.2590 os        1 DUX     -0.412600
     17 C17         3.9750   -1.8960   -3.3640 c3        1 DUX      0.306700
     18 C30         3.1860   -1.1580   -4.4300 ca        1 DUX     -0.101967
     19 C31         1.8110   -1.3950   -4.5560 ca        1 DUX     -0.111333
     20 C32         1.0730   -0.7620   -5.5550 ca        1 DUX     -0.136333
     21 C33         1.7020    0.1100   -6.4440 ca        1 DUX     -0.124000
     22 C34         3.0710    0.3440   -6.3300 ca        1 DUX     -0.136333
     23 C35         3.8110   -0.2870   -5.3300 ca        1 DUX     -0.111333
     24 C24         5.1590   -1.1010   -2.8500 ca        1 DUX     -0.101967
     25 C25         6.3330   -1.7550   -2.4600 ca        1 DUX     -0.111333
     26 C26         7.4160   -1.0290   -1.9650 ca        1 DUX     -0.136333
     27 C27         7.3370    0.3580   -1.8490 ca        1 DUX     -0.124000
     28 C28         6.1660    1.0160   -2.2230 ca        1 DUX     -0.136333
     29 C29         5.0830    0.2920   -2.7160 ca        1 DUX     -0.111333
     30 C18         4.4240   -3.2340   -3.9330 ca        1 DUX     -0.101967
     31 C19         4.2260   -4.4220   -3.2200 ca        1 DUX     -0.111333
     32 C20         4.6390   -5.6410   -3.7590 ca        1 DUX     -0.136333
     33 C21         5.2560   -5.6840   -5.0080 ca        1 DUX     -0.124000
     34 C22         5.4590   -4.5020   -5.7200 ca        1 DUX     -0.136333
     35 C23         5.0440   -3.2830   -5.1870 ca        1 DUX     -0.111333
     36 H3'         1.1580    0.4730   -0.2320 h1        1 DUX      0.097700
     37 H2'1       -0.0180   -1.1040    2.0620 hc        1 DUX      0.088200
     38 H2'2        1.1680    0.2690    2.0860 hc        1 DUX      0.088200
     39 H1'         1.7230   -2.5700    2.4860 h2        1 DUX      0.087700
     40 H3          5.5140    1.2120    1.8800 hn        1 DUX      0.352500
     41 H5          6.0610   -2.5100    3.8680 ha        1 DUX      0.180000
     42 H6          3.7110   -3.1280    3.1630 h4        1 DUX      0.167000
     43 H4'         0.9150   -2.4100   -1.1020 h1        1 DUX      0.097700
     44 H5'1        3.4890   -0.6730   -0.9160 h1        1 DUX      0.055700
     45 H5'2        2.1910   -0.3520   -2.1770 h1        1 DUX      0.055700
     46 H31         1.3170   -2.0910   -3.8590 ha        1 DUX      0.144667
     47 H32        -0.0060   -0.9560   -5.6430 ha        1 DUX      0.132833
     48 H33         1.1200    0.6080   -7.2330 ha        1 DUX      0.132000
     49 H34         3.5740    1.0270   -7.0300 ha        1 DUX      0.132833
     50 H35         4.8930   -0.0950   -5.2490 ha        1 DUX      0.144667
     51 H25         6.4030   -2.8520   -2.5400 ha        1 DUX      0.144667
     52 H26         8.3340   -1.5560   -1.6650 ha        1 DUX      0.132833
     53 H27         8.1930    0.9290   -1.4600 ha        1 DUX      0.132000
     54 H28         6.0930    2.1100   -2.1270 ha        1 DUX      0.132833
     55 H29         4.1580    0.8190   -3.0010 ha        1 DUX      0.144667
     56 H19         3.7380   -4.3960   -2.2320 ha        1 DUX      0.144667
     57 H20         4.4750   -6.5690   -3.1930 ha        1 DUX      0.132833
     58 H21         5.5810   -6.6450   -5.4310 ha        1 DUX      0.132000
     59 H22         5.9440   -4.5290   -6.7060 ha        1 DUX      0.132833
     60 H23         5.2020   -2.3550   -5.7580 ha        1 DUX      0.144667
@<TRIPOS>BOND
     1    1    2 1   
     2    2    3 1   
     3    2   14 1   
     4    2   36 1   
     5    3    4 1   
     6    3   37 1   
     7    3   38 1   
     8    4    5 1   
     9    4   13 1   
    10    4   39 1   
    11    5    6 1   
    12    5   10 1   
    13    6    7 1   
    14    6   12 2   
    15    7    8 1   
    16    7   40 1   
    17    8    9 1   
    18    8   11 2   
    19    9   10 2   
    20    9   41 1   
    21   10   42 1   
    22   13   14 1   
    23   14   15 1   
    24   14   43 1   
    25   15   16 1   
    26   15   44 1   
    27   15   45 1   
    28   16   17 1   
    29   17   18 1   
    30   17   24 1   
    31   17   30 1   
    32   18   19 ar  
    33   18   23 ar  
    34   19   20 ar  
    35   19   46 1   
    36   20   21 ar  
    37   20   47 1   
    38   21   22 ar  
    39   21   48 1   
    40   22   23 ar  
    41   22   49 1   
    42   23   50 1   
    43   24   25 ar  
    44   24   29 ar  
    45   25   26 ar  
    46   25   51 1   
    47   26   27 ar  
    48   26   52 1   
    49   27   28 ar  
    50   27   53 1   
    51   28   29 ar  
    52   28   54 1   
    53   29   55 1   
    54   30   31 ar  
    55   30   35 ar  
    56   31   32 ar  
    57   31   56 1   
    58   32   33 ar  
    59   32   57 1   
    60   33   34 ar  
    61   33   58 1   
    62   34   35 ar  
    63   34   59 1   
    64   35   60 1   
@<TRIPOS>SUBSTRUCTURE
     1 DUX         1 TEMP              0 ****  ****    0 ROOT
