@<TRIPOS>MOLECULE
DUX
   60    58     1     0     0
SMALL
bcc


@<TRIPOS>ATOM
      1 F3'        -3.3340    0.9500    1.5830 f         1 DUX     -0.155000
      2 C3'        -2.1090    1.2310    1.8260 c3        1 DUX      0.038000
      3 C2'        -1.9320    1.5810    3.2840 c3        1 DUX     -0.220000
      4 C1'        -1.3080    0.5530    3.8110 c3        1 DUX      0.168000
      5 N1         -0.4270    0.9930    4.8590 n         1 DUX     -0.298000
      6 C2         -0.4800    0.3540    6.1770 c2        1 DUX      0.396000
      7 N3          0.4150    0.8060    7.2510 n         1 DUX     -0.364000
      8 C4          1.2850    1.9050    7.0360 c2        1 DUX      0.353000
      9 C5          1.3410    2.5490    5.7140 c2        1 DUX     -0.309000
     10 C6          0.4430    2.0960    4.6380 c2        1 DUX      0.054000
     11 O4          2.0300    2.2790    7.9320 o         1 DUX     -0.337000
     12 O2         -1.2570   -0.5600    6.3780 o         1 DUX     -0.377000
     13 O4'        -0.4670   -0.1170    2.6340 os        1 DUX     -0.250000
     14 C4'        -1.1970   -0.0370    1.5760 c3        1 DUX     -0.013000
     15 C5'        -0.3220    0.1670    0.3340 c3        1 DUX     -0.047000
     16 O5'        -0.3070   -1.0480   -0.4520 os        1 DUX     -0.270000
     17 C17         0.1340   -0.8570   -1.8210 c3        1 DUX      0.212000
     18 C30        -1.0640   -0.4540   -2.6940 c2        1 DUX     -0.098667
     19 C31        -2.3370   -0.8330   -2.3300 c2        1 DUX     -0.107000
     20 C32        -3.4050   -0.5790   -3.1770 c1        1 DUX     -0.133667
     21 C33        -3.1930    0.0560   -4.3890 c1        1 DUX     -0.127833
     22 C34        -1.9190    0.4360   -4.7540 c1        1 DUX     -0.127833
     23 C35        -0.8510    0.1830   -3.9090 c1        1 DUX     -0.120000
     24 C24         1.1970    0.2520   -1.8650 c2        1 DUX     -0.098667
     25 C25         2.5250   -0.0530   -1.6210 c2        1 DUX     -0.107000
     26 C26         3.4940    0.9380   -1.7150 c1        1 DUX     -0.133667
     27 C27         3.1310    2.2350   -2.0530 c1        1 DUX     -0.127833
     28 C28         1.8020    2.5410   -2.2970 c1        1 DUX     -0.127833
     29 C29         0.8330    1.5500   -2.2040 c1        1 DUX     -0.120000
     30 C18         0.7390   -2.1720   -2.3550 c2        1 DUX     -0.098667
     31 C19         0.5750   -3.3510   -1.6400 c2        1 DUX     -0.107000
     32 C20         1.0610   -4.5530   -2.1560 c1        1 DUX     -0.133667
     33 C21         1.7080   -4.5700   -3.3810 c1        1 DUX     -0.127833
     34 C22         1.8730   -3.3880   -4.0980 c1        1 DUX     -0.127833
     35 C23         1.3880   -2.1890   -3.5840 c1        1 DUX     -0.120000
     36 H3'        -1.8170    1.9690    1.2660 h1        1 DUX      0.111000
     37 H2'1       -1.3910    2.3900    3.3750 hc        1 DUX      0.134000
     38 H2'2       -2.8050    1.7060    3.7130 hc        1 DUX      0.134000
     39 H1'        -1.9590   -0.0900    4.1660 h2        1 DUX      0.142000
     40 H3          0.3800    0.4060    8.0720 hn        1 DUX      0.265000
     41 H5          1.9450    3.3130    5.5630 ha        1 DUX      0.179000
     42 H6          0.4790    2.5230    3.7590 h4        1 DUX      0.200000
     43 H4'        -1.7510   -0.8450    1.4790 h1        1 DUX      0.143000
     44 H5'1       -0.6840    0.8970   -0.2030 h1        1 DUX      0.091000
     45 H5'2        0.5880    0.3880    0.6100 h1        1 DUX      0.091000
     46 H31        -2.4870   -1.2810   -1.4730 ha        1 DUX      0.148333
     47 H32        -4.3160   -0.8500   -2.9160 ha        1 DUX      0.136000
     48 H33        -3.9490    0.2350   -4.9880 ha        1 DUX      0.134333
     49 H34        -1.7680    0.8870   -5.6160 ha        1 DUX      0.134333
     50 H35         0.0540    0.4530   -4.1700 ha        1 DUX      0.139000
     51 H25         2.7830   -0.9730   -1.3810 ha        1 DUX      0.148333
     52 H26         4.4320    0.7230   -1.5420 ha        1 DUX      0.136000
     53 H27         3.8170    2.9380   -2.1190 ha        1 DUX      0.134333
     54 H28         1.5440    3.4600   -2.5370 ha        1 DUX      0.134333
     55 H29        -0.1070    1.7650   -2.3760 ha        1 DUX      0.139000
     56 H19         0.1170   -3.3390   -0.7720 ha        1 DUX      0.148333
     57 H20         0.9450   -5.3890   -1.6490 ha        1 DUX      0.136000
     58 H21         2.0510   -5.4190   -3.7440 ha        1 DUX      0.134333
     59 H22         2.3300   -3.4010   -4.9650 ha        1 DUX      0.134333
     60 H23         1.5040   -1.3570   -4.0900 ha        1 DUX      0.139000
@<TRIPOS>BOND
     1    1    2 1   
     2    2    3 1   
     3    2   14 1   
     4    2   36 1   
     5    3    4 1   
     6    3   37 1   
     7    3   38 1   
     8    4    5 1   
     9    4   13 1   
    10    4   39 1   
    11    5    6 1   
    12    5   10 1   
    13    6    7 1   
    14    6   12 1   
    15    7    8 1   
    16    7   40 1   
    17    8    9 1   
    18    8   11 1   
    19    9   10 1   
    20    9   41 1   
    21   10   42 1   
    22   13   14 1   
    23   14   15 1   
    24   14   43 1   
    25   15   16 1   
    26   15   44 1   
    27   15   45 1   
    28   16   17 1   
    29   17   18 1   
    30   17   24 1   
    31   17   30 1   
    32   18   19 1   
    33   18   23 1   
    34   19   20 1   
    35   19   46 1   
    36   20   47 1   
    37   21   22 1   
    38   21   48 1   
    39   22   49 1   
    40   23   50 1   
    41   24   25 1   
    42   24   29 1   
    43   25   26 1   
    44   25   51 1   
    45   26   52 1   
    46   27   28 1   
    47   27   53 1   
    48   28   54 1   
    49   29   55 1   
    50   30   31 1   
    51   30   35 1   
    52   31   32 1   
    53   31   56 1   
    54   32   57 1   
    55   33   34 1   
    56   33   58 1   
    57   34   59 1   
    58   35   60 1   
@<TRIPOS>SUBSTRUCTURE
     1 DUX         1 TEMP              0 ****  ****    0 ROOT
