@<TRIPOS>MOLECULE
DUX
   60    64     1     0     0
SMALL
bcc


@<TRIPOS>ATOM
      1 F3'        -0.5830   -0.5920   -0.2890 f         1 DUX     -0.232300
      2 C3'         0.7460   -0.5250    0.0840 c3        1 DUX      0.149600
      3 C2'         0.9260   -0.6980    1.6050 c3        1 DUX     -0.131400
      4 C1'         2.0420   -1.7450    1.7660 c3        1 DUX      0.308500
      5 N1          3.3320   -1.2430    2.2410 n         1 DUX     -0.385000
      6 C2          3.8750   -0.0090    1.7850 c         1 DUX      0.812500
      7 N3          5.1710    0.3460    2.1860 ns        1 DUX     -0.583500
      8 C4          6.0060   -0.5050    2.9320 c         1 DUX      0.714700
      9 C5          5.4300   -1.8040    3.2970 cc        1 DUX     -0.311200
     10 C6          4.1650   -2.1250    2.9270 cd        1 DUX      0.052600
     11 O4          7.1490   -0.1200    3.2280 o         1 DUX     -0.605500
     12 O2          3.2180    0.7810    1.0700 o         1 DUX     -0.660500
     13 O4'         2.1820   -2.4190    0.5080 os        1 DUX     -0.408600
     14 C4'         1.5740   -1.6750   -0.5540 c3        1 DUX      0.108100
     15 C5'         2.6420   -1.1250   -1.4980 c3        1 DUX      0.111400
     16 O5'         3.1070   -2.2370   -2.2550 os        1 DUX     -0.412600
     17 C17         3.9730   -1.9010   -3.3620 c3        1 DUX      0.306700
     18 C30         3.1820   -1.1700   -4.4300 ca        1 DUX     -0.101967
     19 C31         1.8070   -1.4100   -4.5530 ca        1 DUX     -0.111333
     20 C32         1.0660   -0.7820   -5.5540 ca        1 DUX     -0.136333
     21 C33         1.6920    0.0870   -6.4470 ca        1 DUX     -0.124000
     22 C34         3.0610    0.3240   -6.3360 ca        1 DUX     -0.136333
     23 C35         3.8040   -0.3010   -5.3350 ca        1 DUX     -0.111333
     24 C24         5.1560   -1.1020   -2.8540 ca        1 DUX     -0.101967
     25 C25         6.3320   -1.7520   -2.4620 ca        1 DUX     -0.111333
     26 C26         7.4150   -1.0220   -1.9730 ca        1 DUX     -0.136333
     27 C27         7.3340    0.3650   -1.8610 ca        1 DUX     -0.124000
     28 C28         6.1610    1.0200   -2.2370 ca        1 DUX     -0.136333
     29 C29         5.0780    0.2910   -2.7250 ca        1 DUX     -0.111333
     30 C18         4.4240   -3.2410   -3.9260 ca        1 DUX     -0.101967
     31 C19         4.2290   -4.4270   -3.2080 ca        1 DUX     -0.111333
     32 C20         4.6440   -5.6460   -3.7430 ca        1 DUX     -0.136333
     33 C21         5.2590   -5.6940   -4.9920 ca        1 DUX     -0.124000
     34 C22         5.4580   -4.5140   -5.7100 ca        1 DUX     -0.136333
     35 C23         5.0420   -3.2940   -5.1820 ca        1 DUX     -0.111333
     36 H3'         1.1580    0.4760   -0.2350 h1        1 DUX      0.097700
     37 H2'1        1.1720    0.2800    2.0830 hc        1 DUX      0.088200
     38 H2'2       -0.0130   -1.0940    2.0660 hc        1 DUX      0.088200
     39 H1'         1.7310   -2.5570    2.4930 h2        1 DUX      0.087700
     40 H3          5.5160    1.2270    1.8670 hn        1 DUX      0.352500
     41 H5          6.0710   -2.4860    3.8680 ha        1 DUX      0.180000
     42 H6          3.7210   -3.1100    3.1690 h4        1 DUX      0.167000
     43 H4'         0.9180   -2.4110   -1.0940 h1        1 DUX      0.097700
     44 H5'1        2.1890   -0.3560   -2.1790 h1        1 DUX      0.055700
     45 H5'2        3.4890   -0.6700   -0.9180 h1        1 DUX      0.055700
     46 H31         1.3150   -2.1040   -3.8530 ha        1 DUX      0.144667
     47 H32        -0.0130   -0.9780   -5.6390 ha        1 DUX      0.132833
     48 H33         1.1080    0.5810   -7.2370 ha        1 DUX      0.132000
     49 H34         3.5610    1.0060   -7.0400 ha        1 DUX      0.132833
     50 H35         4.8850   -0.1060   -5.2560 ha        1 DUX      0.144667
     51 H25         6.4040   -2.8490   -2.5380 ha        1 DUX      0.144667
     52 H26         8.3340   -1.5460   -1.6720 ha        1 DUX      0.132833
     53 H27         8.1890    0.9400   -1.4770 ha        1 DUX      0.132000
     54 H28         6.0860    2.1130   -2.1450 ha        1 DUX      0.132833
     55 H29         4.1520    0.8150   -3.0110 ha        1 DUX      0.144667
     56 H19         3.7430   -4.3970   -2.2200 ha        1 DUX      0.144667
     57 H20         4.4820   -6.5730   -3.1730 ha        1 DUX      0.132833
     58 H21         5.5850   -6.6560   -5.4120 ha        1 DUX      0.132000
     59 H22         5.9420   -4.5450   -6.6970 ha        1 DUX      0.132833
     60 H23         5.1970   -2.3680   -5.7570 ha        1 DUX      0.144667
@<TRIPOS>BOND
     1    1    2 1   
     2    2    3 1   
     3    2   14 1   
     4    2   36 1   
     5    3    4 1   
     6    3   37 1   
     7    3   38 1   
     8    4    5 1   
     9    4   13 1   
    10    4   39 1   
    11    5    6 1   
    12    5   10 1   
    13    6    7 1   
    14    6   12 2   
    15    7    8 1   
    16    7   40 1   
    17    8    9 1   
    18    8   11 2   
    19    9   10 2   
    20    9   41 1   
    21   10   42 1   
    22   13   14 1   
    23   14   15 1   
    24   14   43 1   
    25   15   16 1   
    26   15   44 1   
    27   15   45 1   
    28   16   17 1   
    29   17   18 1   
    30   17   24 1   
    31   17   30 1   
    32   18   19 ar  
    33   18   23 ar  
    34   19   20 ar  
    35   19   46 1   
    36   20   21 ar  
    37   20   47 1   
    38   21   22 ar  
    39   21   48 1   
    40   22   23 ar  
    41   22   49 1   
    42   23   50 1   
    43   24   25 ar  
    44   24   29 ar  
    45   25   26 ar  
    46   25   51 1   
    47   26   27 ar  
    48   26   52 1   
    49   27   28 ar  
    50   27   53 1   
    51   28   29 ar  
    52   28   54 1   
    53   29   55 1   
    54   30   31 ar  
    55   30   35 ar  
    56   31   32 ar  
    57   31   56 1   
    58   32   33 ar  
    59   32   57 1   
    60   33   34 ar  
    61   33   58 1   
    62   34   35 ar  
    63   34   59 1   
    64   35   60 1   
@<TRIPOS>SUBSTRUCTURE
     1 DUX         1 TEMP              0 ****  ****    0 ROOT
