@<TRIPOS>MOLECULE
DUX
   60    64     1     0     0
SMALL
bcc


@<TRIPOS>ATOM
      1 F3'        -0.5820   -0.5760   -0.2950 f         1 DUX     -0.232300
      2 C3'         0.7480   -0.5110    0.0790 c3        1 DUX      0.149600
      3 C2'         0.9260   -0.6800    1.6000 c3        1 DUX     -0.131400
      4 C1'         2.0390   -1.7290    1.7660 c3        1 DUX      0.308500
      5 N1          3.3300   -1.2290    2.2410 n         1 DUX     -0.385000
      6 C2          3.8760    0.0020    1.7810 c         1 DUX      0.812500
      7 N3          5.1730    0.3560    2.1820 n         1 DUX     -0.583500
      8 C4          6.0050   -0.4960    2.9320 c         1 DUX      0.714700
      9 C5          5.4250   -1.7920    3.3010 cc        1 DUX     -0.311200
     10 C6          4.1600   -2.1110    2.9300 cd        1 DUX      0.052600
     11 O4          7.1490   -0.1130    3.2280 o         1 DUX     -0.605500
     12 O2          3.2220    0.7920    1.0630 o         1 DUX     -0.660500
     13 O4'         2.1780   -2.4070    0.5100 os        1 DUX     -0.408600
     14 C4'         1.5730   -1.6650   -0.5540 c3        1 DUX      0.108100
     15 C5'         2.6440   -1.1210   -1.5000 c3        1 DUX      0.111400
     16 O5'         3.1070   -2.2370   -2.2520 os        1 DUX     -0.412600
     17 C17         3.9740   -1.9070   -3.3610 c3        1 DUX      0.306700
     18 C30         3.1830   -1.1770   -4.4310 ca        1 DUX     -0.101967
     19 C31         1.8080   -1.4150   -4.5540 ca        1 DUX     -0.111333
     20 C32         1.0690   -0.7900   -5.5570 ca        1 DUX     -0.136333
     21 C33         1.6960    0.0750   -6.4530 ca        1 DUX     -0.124000
     22 C34         3.0660    0.3100   -6.3420 ca        1 DUX     -0.136333
     23 C35         3.8070   -0.3130   -5.3390 ca        1 DUX     -0.111333
     24 C24         5.1580   -1.1080   -2.8550 ca        1 DUX     -0.101967
     25 C25         6.3330   -1.7590   -2.4610 ca        1 DUX     -0.111333
     26 C26         7.4170   -1.0290   -1.9740 ca        1 DUX     -0.136333
     27 C27         7.3380    0.3580   -1.8670 ca        1 DUX     -0.124000
     28 C28         6.1660    1.0140   -2.2450 ca        1 DUX     -0.136333
     29 C29         5.0820    0.2860   -2.7310 ca        1 DUX     -0.111333
     30 C18         4.4210   -3.2490   -3.9200 ca        1 DUX     -0.101967
     31 C19         4.2230   -4.4320   -3.1990 ca        1 DUX     -0.111333
     32 C20         4.6360   -5.6540   -3.7290 ca        1 DUX     -0.136333
     33 C21         5.2520   -5.7070   -4.9780 ca        1 DUX     -0.124000
     34 C22         5.4540   -4.5300   -5.6990 ca        1 DUX     -0.136333
     35 C23         5.0410   -3.3070   -5.1750 ca        1 DUX     -0.111333
     36 H3'         1.1620    0.4880   -0.2430 h1        1 DUX      0.097700
     37 H2'1       -0.0140   -1.0720    2.0620 hc        1 DUX      0.088200
     38 H2'2        1.1740    0.2990    2.0760 hc        1 DUX      0.088200
     39 H1'         1.7250   -2.5380    2.4950 h2        1 DUX      0.087700
     40 H3          5.5210    1.2340    1.8610 hn        1 DUX      0.352500
     41 H5          6.0640   -2.4740    3.8740 ha        1 DUX      0.180000
     42 H6          3.7130   -3.0940    3.1750 h4        1 DUX      0.167000
     43 H4'         0.9150   -2.4020   -1.0930 h1        1 DUX      0.097700
     44 H5'1        3.4910   -0.6660   -0.9210 h1        1 DUX      0.055700
     45 H5'2        2.1930   -0.3530   -2.1830 h1        1 DUX      0.055700
     46 H31         1.3150   -2.1060   -3.8510 ha        1 DUX      0.144667
     47 H32        -0.0100   -0.9840   -5.6410 ha        1 DUX      0.132833
     48 H33         1.1140    0.5680   -7.2450 ha        1 DUX      0.132000
     49 H34         3.5670    0.9880   -7.0490 ha        1 DUX      0.132833
     50 H35         4.8890   -0.1200   -5.2610 ha        1 DUX      0.144667
     51 H25         6.4030   -2.8560   -2.5330 ha        1 DUX      0.144667
     52 H26         8.3350   -1.5540   -1.6710 ha        1 DUX      0.132833
     53 H27         8.1940    0.9330   -1.4850 ha        1 DUX      0.132000
     54 H28         6.0940    2.1080   -2.1570 ha        1 DUX      0.132833
     55 H29         4.1570    0.8110   -3.0190 ha        1 DUX      0.144667
     56 H19         3.7370   -4.3980   -2.2110 ha        1 DUX      0.144667
     57 H20         4.4720   -6.5790   -3.1560 ha        1 DUX      0.132833
     58 H21         5.5760   -6.6720   -5.3940 ha        1 DUX      0.132000
     59 H22         5.9390   -4.5650   -6.6850 ha        1 DUX      0.132833
     60 H23         5.1990   -2.3840   -5.7530 ha        1 DUX      0.144667
@<TRIPOS>BOND
     1    1    2 1   
     2    2    3 1   
     3    2   14 1   
     4    2   36 1   
     5    3    4 1   
     6    3   37 1   
     7    3   38 1   
     8    4    5 1   
     9    4   13 1   
    10    4   39 1   
    11    5    6 1   
    12    5   10 1   
    13    6    7 1   
    14    6   12 2   
    15    7    8 1   
    16    7   40 1   
    17    8    9 1   
    18    8   11 2   
    19    9   10 2   
    20    9   41 1   
    21   10   42 1   
    22   13   14 1   
    23   14   15 1   
    24   14   43 1   
    25   15   16 1   
    26   15   44 1   
    27   15   45 1   
    28   16   17 1   
    29   17   18 1   
    30   17   24 1   
    31   17   30 1   
    32   18   19 ar  
    33   18   23 ar  
    34   19   20 ar  
    35   19   46 1   
    36   20   21 ar  
    37   20   47 1   
    38   21   22 ar  
    39   21   48 1   
    40   22   23 ar  
    41   22   49 1   
    42   23   50 1   
    43   24   25 ar  
    44   24   29 ar  
    45   25   26 ar  
    46   25   51 1   
    47   26   27 ar  
    48   26   52 1   
    49   27   28 ar  
    50   27   53 1   
    51   28   29 ar  
    52   28   54 1   
    53   29   55 1   
    54   30   31 ar  
    55   30   35 ar  
    56   31   32 ar  
    57   31   56 1   
    58   32   33 ar  
    59   32   57 1   
    60   33   34 ar  
    61   33   58 1   
    62   34   35 ar  
    63   34   59 1   
    64   35   60 1   
@<TRIPOS>SUBSTRUCTURE
     1 DUX         1 TEMP              0 ****  ****    0 ROOT
