@<TRIPOS>MOLECULE
DUX
   60    64     1     0     0
SMALL
bcc


@<TRIPOS>ATOM
      1 F3'         4.3420   -1.2920   -1.1610 f         1 DUX     -0.232300
      2 C3'         3.1860   -0.6400   -1.5470 c3        1 DUX      0.149600
      3 C2'         2.9250   -0.7820   -3.0590 c3        1 DUX     -0.131400
      4 C1'         1.4510   -1.2070   -3.1800 c3        1 DUX      0.308500
      5 N1          0.5280   -0.1920   -3.6900 n         1 DUX     -0.385000
      6 C2          0.6180    1.1730   -3.2980 c         1 DUX      0.812500
      7 N3         -0.3770    2.0640   -3.7270 n         1 DUX     -0.583500
      8 C4         -1.5200    1.6570   -4.4390 c         1 DUX      0.714700
      9 C5         -1.6080    0.2230   -4.7370 cc        1 DUX     -0.311200
     10 C6         -0.6260   -0.6250   -4.3400 cd        1 DUX      0.052600
     11 O4         -2.3630    2.5090   -4.7630 o         1 DUX     -0.605500
     12 O2          1.5740    1.6060   -2.6160 o         1 DUX     -0.660500
     13 O4'         1.0360   -1.6830   -1.8930 os        1 DUX     -0.408600
     14 C4'         1.9330   -1.2520   -0.8630 c3        1 DUX      0.108100
     15 C5'         1.2490   -0.2300    0.0450 c3        1 DUX      0.111400
     16 O5'         0.3370   -0.9690    0.8510 os        1 DUX     -0.412600
     17 C17        -0.2630   -0.2220    1.9340 c3        1 DUX      0.306700
     18 C30         0.7920    0.1150    2.9710 ca        1 DUX     -0.101967
     19 C31         1.9060   -0.7220    3.1180 ca        1 DUX     -0.111333
     20 C32         2.8660   -0.4570    4.0930 ca        1 DUX     -0.136333
     21 C33         2.7210    0.6440    4.9370 ca        1 DUX     -0.124000
     22 C34         1.6110    1.4760    4.8030 ca        1 DUX     -0.136333
     23 C35         0.6500    1.2140    3.8270 ca        1 DUX     -0.111333
     24 C24        -0.9560    1.0050    1.3770 ca        1 DUX     -0.101967
     25 C25        -2.3050    0.9480    1.0080 ca        1 DUX     -0.111333
     26 C26        -2.9410    2.0690    0.4740 ca        1 DUX     -0.136333
     27 C27        -2.2350    3.2580    0.2960 ca        1 DUX     -0.124000
     28 C28        -0.8870    3.3200    0.6490 ca        1 DUX     -0.136333
     29 C29        -0.2510    2.2000    1.1820 ca        1 DUX     -0.111333
     30 C18        -1.2680   -1.1790    2.5580 ca        1 DUX     -0.101967
     31 C19        -1.6480   -2.3540    1.9000 ca        1 DUX     -0.111333
     32 C20        -2.5670   -3.2220    2.4890 ca        1 DUX     -0.136333
     33 C21        -3.1170   -2.9240    3.7350 ca        1 DUX     -0.124000
     34 C22        -2.7440   -1.7520    4.3930 ca        1 DUX     -0.136333
     35 C23        -1.8230   -0.8840    3.8090 ca        1 DUX     -0.111333
     36 H3'         3.2840    0.4510   -1.2810 h1        1 DUX      0.097700
     37 H2'1        3.1480    0.1760   -3.5870 hc        1 DUX      0.088200
     38 H2'2        3.5710   -1.5860   -3.4930 hc        1 DUX      0.088200
     39 H1'         1.3450   -2.1040   -3.8650 h2        1 DUX      0.087700
     40 H3         -0.2750    3.0190   -3.4540 hn        1 DUX      0.352500
     41 H5         -2.4990   -0.1150   -5.2800 ha        1 DUX      0.180000
     42 H6         -0.6860   -1.7140   -4.5310 h4        1 DUX      0.167000
     43 H4'         2.1860   -2.1810   -0.2820 h1        1 DUX      0.097700
     44 H5'1        2.0140    0.2770    0.6920 h1        1 DUX      0.055700
     45 H5'2        0.6960    0.5350   -0.5630 h1        1 DUX      0.055700
     46 H31         2.0150   -1.5960    2.4550 ha        1 DUX      0.144667
     47 H32         3.7370   -1.1200    4.1960 ha        1 DUX      0.132833
     48 H33         3.4780    0.8520    5.7070 ha        1 DUX      0.132000
     49 H34         1.4890    2.3430    5.4690 ha        1 DUX      0.132833
     50 H35        -0.2240    1.8780    3.7300 ha        1 DUX      0.144667
     51 H25        -2.8700    0.0110    1.1360 ha        1 DUX      0.144667
     52 H26        -4.0020    2.0110    0.1910 ha        1 DUX      0.132833
     53 H27        -2.7380    4.1410   -0.1230 ha        1 DUX      0.132000
     54 H28        -0.3210    4.2520    0.5050 ha        1 DUX      0.132833
     55 H29         0.8170    2.2550    1.4490 ha        1 DUX      0.144667
     56 H19        -1.2170   -2.5970    0.9150 ha        1 DUX      0.144667
     57 H20        -2.8570   -4.1450    1.9660 ha        1 DUX      0.132833
     58 H21        -3.8410   -3.6090    4.1980 ha        1 DUX      0.132000
     59 H22        -3.1740   -1.5110    5.3760 ha        1 DUX      0.132833
     60 H23        -1.5290    0.0360    4.3380 ha        1 DUX      0.144667
@<TRIPOS>BOND
     1    1    2 1   
     2    2    3 1   
     3    2   14 1   
     4    2   36 1   
     5    3    4 1   
     6    3   37 1   
     7    3   38 1   
     8    4    5 1   
     9    4   13 1   
    10    4   39 1   
    11    5    6 1   
    12    5   10 1   
    13    6    7 1   
    14    6   12 2   
    15    7    8 1   
    16    7   40 1   
    17    8    9 1   
    18    8   11 2   
    19    9   10 2   
    20    9   41 1   
    21   10   42 1   
    22   13   14 1   
    23   14   15 1   
    24   14   43 1   
    25   15   16 1   
    26   15   44 1   
    27   15   45 1   
    28   16   17 1   
    29   17   18 1   
    30   17   24 1   
    31   17   30 1   
    32   18   19 ar  
    33   18   23 ar  
    34   19   20 ar  
    35   19   46 1   
    36   20   21 ar  
    37   20   47 1   
    38   21   22 ar  
    39   21   48 1   
    40   22   23 ar  
    41   22   49 1   
    42   23   50 1   
    43   24   25 ar  
    44   24   29 ar  
    45   25   26 ar  
    46   25   51 1   
    47   26   27 ar  
    48   26   52 1   
    49   27   28 ar  
    50   27   53 1   
    51   28   29 ar  
    52   28   54 1   
    53   29   55 1   
    54   30   31 ar  
    55   30   35 ar  
    56   31   32 ar  
    57   31   56 1   
    58   32   33 ar  
    59   32   57 1   
    60   33   34 ar  
    61   33   58 1   
    62   34   35 ar  
    63   34   59 1   
    64   35   60 1   
@<TRIPOS>SUBSTRUCTURE
     1 DUX         1 TEMP              0 ****  ****    0 ROOT
