@<TRIPOS>MOLECULE
DUZ
   48    50     1     0     0
SMALL
bcc


@<TRIPOS>ATOM
      1 P           3.8360    1.4670    1.6530 p5        1 DUZ      1.325900
      2 N1          0.2690   -2.2850   -1.1040 n         1 DUZ     -0.363000
      3 C2         -0.1460   -2.6490   -2.4100 c         1 DUZ      0.801500
      4 O2          0.4670   -3.4940   -3.1020 o         1 DUZ     -0.662500
      5 N3         -1.3110   -2.0570   -2.9290 n         1 DUZ     -0.591500
      6 C4         -2.0940   -1.1410   -2.2050 c         1 DUZ      0.739700
      7 O4         -3.0850   -0.6490   -2.7880 o         1 DUZ     -0.683500
      8 C5         -1.6660   -0.8780   -0.8380 cc        1 DUZ     -0.401400
      9 C6         -0.4870   -1.4220   -0.3610 cd        1 DUZ      0.177600
     10 C1'         1.5530   -2.8670   -0.6120 c3        1 DUZ      0.314500
     11 C2'         2.8070   -2.2360   -1.2480 c3        1 DUZ     -0.116400
     12 C21        -2.4860   -0.0430    0.0660 c         1 DUZ      0.718300
     13 O22        -2.5970   -0.3140    1.2820 o         1 DUZ     -0.633100
     14 N23        -3.1060    1.0710   -0.4740 n         1 DUZ     -0.554900
     15 C24        -3.8840    1.9690    0.3260 c3        1 DUZ      0.137300
     16 C25        -5.3530    1.6490    0.4150 ca        1 DUZ     -0.099300
     17 C26        -5.7710    0.4910    1.0800 ca        1 DUZ     -0.115000
     18 C27        -7.1300    0.2030    1.1960 ca        1 DUZ     -0.142000
     19 C28        -8.0780    1.0690    0.6520 ca        1 DUZ     -0.143000
     20 C29        -7.6650    2.2240   -0.0120 ca        1 DUZ     -0.142000
     21 C3'         3.5050   -1.4830   -0.1120 c3        1 DUZ      0.123100
     22 O3'         4.8350   -1.9420   -0.0030 oh        1 DUZ     -0.668800
     23 C30        -6.3060    2.5130   -0.1330 ca        1 DUZ     -0.115000
     24 C4'         2.7000   -1.8090    1.1620 c3        1 DUZ      0.051100
     25 O4'         1.6300   -2.7240    0.7900 os        1 DUZ     -0.439600
     26 C5'         2.1030   -0.5350    1.8100 c3        1 DUZ      0.208400
     27 O5'         3.0520    0.1560    2.5050 os        1 DUZ     -0.554200
     28 OP1         4.9330    0.6660    0.9840 o         1 DUZ     -0.925167
     29 OP2         2.7580    1.8820    0.6880 o         1 DUZ     -0.925167
     30 OP3         4.2220    2.4140    2.7440 o         1 DUZ     -0.925167
     31 HN3        -1.5530   -2.2760   -3.8690 hn        1 DUZ      0.335500
     32 H6         -0.1000   -1.1810    0.6620 h4        1 DUZ      0.243000
     33 H1'         1.4680   -3.9730   -0.8300 h2        1 DUZ      0.068700
     34 H2'         3.4610   -3.0530   -1.6410 hc        1 DUZ      0.059700
     35 H2'A        2.5630   -1.5460   -2.0890 hc        1 DUZ      0.059700
     36 HN23       -3.1850    1.1390   -1.4630 hn        1 DUZ      0.329500
     37 H24        -3.4630    1.9650    1.3770 h1        1 DUZ      0.068200
     38 H24A       -3.7570    3.0060   -0.1030 h1        1 DUZ      0.068200
     39 H26        -5.0080   -0.1850    1.5070 ha        1 DUZ      0.147500
     40 H27        -7.4530   -0.7090    1.7180 ha        1 DUZ      0.118500
     41 H28        -9.1490    0.8410    0.7450 ha        1 DUZ      0.113000
     42 H29        -8.4100    2.9060   -0.4430 ha        1 DUZ      0.118500
     43 H3'         3.5130   -0.3510   -0.2540 h1        1 DUZ      0.157700
     44 HO3'        5.3260   -1.1940    0.4040 ho        1 DUZ      0.490000
     45 H30        -5.9840    3.4220   -0.6610 ha        1 DUZ      0.147500
     46 H4'         3.3200   -2.3770    1.9030 h1        1 DUZ      0.073700
     47 H5'         1.6420    0.1070    1.0040 h1        1 DUZ      0.002700
     48 H5'A        1.2920   -0.8810    2.5180 h1        1 DUZ      0.002700
@<TRIPOS>BOND
     1    1   27 1   
     2    1   28 1   
     3    1   29 1   
     4    1   30 1   
     5    2    3 1   
     6    2    9 1   
     7    2   10 1   
     8    3    4 2   
     9    3    5 1   
    10    5    6 1   
    11    5   31 1   
    12    6    7 2   
    13    6    8 1   
    14    8    9 2   
    15    8   12 1   
    16    9   32 1   
    17   10   11 1   
    18   10   25 1   
    19   10   33 1   
    20   11   21 1   
    21   11   34 1   
    22   11   35 1   
    23   12   13 2   
    24   12   14 1   
    25   14   15 1   
    26   14   36 1   
    27   15   16 1   
    28   15   37 1   
    29   15   38 1   
    30   16   17 ar  
    31   16   23 ar  
    32   17   18 ar  
    33   17   39 1   
    34   18   19 ar  
    35   18   40 1   
    36   19   20 ar  
    37   19   41 1   
    38   20   23 ar  
    39   20   42 1   
    40   21   22 1   
    41   21   24 1   
    42   21   43 1   
    43   22   44 1   
    44   23   45 1   
    45   24   25 1   
    46   24   26 1   
    47   24   46 1   
    48   26   27 1   
    49   26   47 1   
    50   26   48 1   
@<TRIPOS>SUBSTRUCTURE
     1 DUZ         1 TEMP              0 ****  ****    0 ROOT
