@<TRIPOS>MOLECULE
DUZ
   48    47     1     0     0
SMALL
bcc


@<TRIPOS>ATOM
      1 P          -3.4230   -6.6430    1.9370 p3        1 DUZ      2.538000
      2 N1         -1.3500   -0.7600    0.3120 n         1 DUZ     -0.265000
      3 C2         -0.8380   -1.8700   -0.4890 c2        1 DUZ      0.393000
      4 O2         -1.4740   -2.9100   -0.5670 o         1 DUZ     -0.399000
      5 N3          0.4540   -1.7540   -1.1530 n         1 DUZ     -0.379000
      6 C4          1.1290   -0.5010   -1.1810 c2        1 DUZ      0.381000
      7 O4          2.0910   -0.3500   -1.9040 o         1 DUZ     -0.353000
      8 C5          0.5580    0.6500   -0.4720 c2        1 DUZ     -0.328000
      9 C6         -0.7110    0.4970    0.2660 c2        1 DUZ      0.114000
     10 C1'        -2.3850   -0.9370    1.0770 c3        1 DUZ      0.161000
     11 C2'        -3.6660   -0.6570    0.3030 c3        1 DUZ     -0.209000
     12 C21         1.3600    1.9580   -0.3580 c2        1 DUZ      0.375000
     13 O22         0.8450    2.9440    0.1400 o         1 DUZ     -0.390000
     14 N23         2.6890    2.0540   -0.9560 n         1 DUZ     -0.367000
     15 C24         3.0400    3.2210   -1.7780 c3        1 DUZ      0.030000
     16 C25         4.1700    4.0180   -1.0870 c2        1 DUZ     -0.132000
     17 C26         3.9190    4.6880    0.1050 c2        1 DUZ     -0.088000
     18 C27         4.9280    5.4330    0.7090 c1        1 DUZ     -0.086000
     19 C28         6.1810    5.5070    0.1220 c1        1 DUZ     -0.164000
     20 C29         6.4320    4.8360   -1.0720 c1        1 DUZ     -0.164000
     21 C3'        -4.2010   -1.8340    0.0980 c3        1 DUZ      0.044000
     22 O3'        -5.6520   -1.7360    0.1270 oh        1 DUZ     -0.391000
     23 C30         5.4260    4.0920   -1.6750 c1        1 DUZ     -0.146000
     24 C4'        -3.6840   -2.7810    1.3040 c3        1 DUZ     -0.060000
     25 O4'        -2.4780   -2.4470    1.5300 os        1 DUZ     -0.294000
     26 C5'        -3.7500   -4.2600    0.8830 c3        1 DUZ      0.080000
     27 O5'        -3.0780   -5.0740    1.8710 o         1 DUZ     -0.713000
     28 OP1        -4.9040   -6.8240    2.1630 o         1 DUZ     -1.252000
     29 OP2        -2.6580   -7.2810    3.0750 o         1 DUZ     -1.252000
     30 OP3        -3.0300   -7.2990    0.6380 o         1 DUZ     -1.252000
     31 HN3         0.8620   -2.5030   -1.4950 hn        1 DUZ      0.247000
     32 H6         -1.1190    1.2710    0.7030 h4        1 DUZ      0.222000
     33 H1'        -2.3290   -0.3460    1.8700 h2        1 DUZ      0.121000
     34 H2'        -3.4610   -0.2230   -0.5500 hc        1 DUZ      0.098000
     35 H2'A       -4.2690   -0.0990    0.8340 hc        1 DUZ      0.098000
     36 HN23        3.3210    1.4170   -0.7710 hn        1 DUZ      0.249000
     37 H24         2.2530    3.7940   -1.8820 h1        1 DUZ      0.080000
     38 H24A        3.3440    2.9200   -2.6610 h1        1 DUZ      0.080000
     39 H26         3.0090    4.7220    0.4620 ha        1 DUZ      0.228000
     40 H27         4.7530    5.9060    1.5480 ha        1 DUZ      0.218000
     41 H28         6.8700    6.0930    0.5100 ha        1 DUZ      0.101000
     42 H29         7.3180    4.8880   -1.4860 ha        1 DUZ      0.101000
     43 H3'        -3.9060   -2.1900   -0.7570 h1        1 DUZ      0.144000
     44 HO3'       -5.9630   -1.6990   -0.7050 ho        1 DUZ      0.297000
     45 H30         5.6020    3.6200   -2.5140 ha        1 DUZ      0.103000
     46 H4'        -4.2310   -2.6340    2.1050 h1        1 DUZ      0.123000
     47 H5'        -4.6890   -4.5390    0.8130 h1        1 DUZ      0.029000
     48 H5'A       -3.3060   -4.3740    0.0060 h1        1 DUZ      0.029000
@<TRIPOS>BOND
     1    1   28 1   
     2    1   29 1   
     3    1   30 1   
     4    2    3 1   
     5    2    9 1   
     6    2   10 1   
     7    3    4 1   
     8    3    5 1   
     9    5    6 1   
    10    5   31 1   
    11    6    7 1   
    12    6    8 1   
    13    8    9 1   
    14    8   12 1   
    15    9   32 1   
    16   10   11 1   
    17   10   25 1   
    18   10   33 1   
    19   11   21 1   
    20   11   34 1   
    21   11   35 1   
    22   12   13 1   
    23   12   14 1   
    24   14   15 1   
    25   14   36 1   
    26   15   16 1   
    27   15   37 1   
    28   15   38 1   
    29   16   17 1   
    30   16   23 1   
    31   17   18 1   
    32   17   39 1   
    33   18   40 1   
    34   19   20 1   
    35   19   41 1   
    36   20   42 1   
    37   21   22 1   
    38   21   24 1   
    39   21   43 1   
    40   22   44 1   
    41   23   45 1   
    42   24   25 1   
    43   24   26 1   
    44   24   46 1   
    45   26   27 1   
    46   26   47 1   
    47   26   48 1   
@<TRIPOS>SUBSTRUCTURE
     1 DUZ         1 TEMP              0 ****  ****    0 ROOT
