@<TRIPOS>MOLECULE
DVA
   18    17     1     0     0
SMALL
bcc


@<TRIPOS>ATOM
      1 N          -1.6080    0.7170   -0.9600 n3        1 DVA     -0.889800
      2 CA         -0.3500    0.0650   -0.8610 c3        1 DVA      0.024500
      3 CB          0.1420    0.1250    0.5800 c3        1 DVA     -0.048700
      4 CG1        -0.7120   -0.8070    1.4520 c3        1 DVA     -0.084100
      5 CG2         1.6120   -0.3220    0.6390 c3        1 DVA     -0.084100
      6 C           0.6480    0.7540   -1.7640 c         1 DVA      0.884600
      7 O           0.8960    1.9830   -1.6090 o         1 DVA     -0.845800
      8 OXT         1.1960    0.1130   -2.7040 o         1 DVA     -0.845800
      9 H          -2.2220    0.1430   -1.3310 hn        1 DVA      0.328300
     10 H2         -1.5260    1.4610   -1.4900 hn        1 DVA      0.328300
     11 HA         -0.4460   -0.8740   -1.1350 h1        1 DVA      0.042700
     12 HB          0.0660    1.0470    0.9130 hc        1 DVA      0.045700
     13 HG11       -1.6180   -0.4340    1.5410 hc        1 DVA      0.023700
     14 HG12       -0.7620   -1.6940    1.0320 hc        1 DVA      0.023700
     15 HG13       -0.3030   -0.8890    2.3430 hc        1 DVA      0.023700
     16 HG21        1.6590    0.4780    1.2100 hc        1 DVA      0.023700
     17 HG22        1.1710   -1.1890    0.7670 hc        1 DVA      0.023700
     18 HG23        2.1590   -0.6780    1.3780 hc        1 DVA      0.023700
@<TRIPOS>BOND
     1    1    2 1   
     2    1    9 1   
     3    1   10 1   
     4    2    3 1   
     5    2    6 1   
     6    2   11 1   
     7    3    4 1   
     8    3    5 1   
     9    3   12 1   
    10    4   13 1   
    11    4   14 1   
    12    4   15 1   
    13    5   16 1   
    14    5   17 1   
    15    5   18 1   
    16    6    7 1   
    17    6    8 1   
@<TRIPOS>SUBSTRUCTURE
     1 DVA         1 TEMP              0 ****  ****    0 ROOT
