@<TRIPOS>MOLECULE
DVA
   18    17     1     0     0
SMALL
bcc


@<TRIPOS>ATOM
      1 N          -1.8550   -0.5450    0.2410 n3        1 DVA     -0.889800
      2 CA         -0.4080   -0.4590    0.0710 c3        1 DVA      0.024500
      3 CB          0.2790    0.3680    1.1760 c3        1 DVA     -0.048700
      4 CG1        -0.2560    0.0560    2.5570 c3        1 DVA     -0.084100
      5 CG2         1.7740    0.1210    1.1380 c3        1 DVA     -0.084100
      6 C           0.0010    0.1400   -1.3170 c         1 DVA      0.884600
      7 O          -0.7660    1.0010   -1.8350 o         1 DVA     -0.845800
      8 OXT         1.0630   -0.2820   -1.8530 o         1 DVA     -0.845800
      9 H          -2.2290   -0.9530   -0.5990 hn        1 DVA      0.328300
     10 H2         -2.2200    0.3910    0.2830 hn        1 DVA      0.328300
     11 HA         -0.0100   -1.5130    0.1240 h1        1 DVA      0.042700
     12 HB          0.0900    1.4560    0.9530 hc        1 DVA      0.045700
     13 HG11        0.3880    0.5290    3.3390 hc        1 DVA      0.023700
     14 HG12       -1.2950    0.4440    2.6810 hc        1 DVA      0.023700
     15 HG13       -0.2710   -1.0470    2.7300 hc        1 DVA      0.023700
     16 HG21        2.0100   -0.9070    1.5040 hc        1 DVA      0.023700
     17 HG22        2.1480    0.2150    0.0860 hc        1 DVA      0.023700
     18 HG23        2.3060    0.8570    1.7880 hc        1 DVA      0.023700
@<TRIPOS>BOND
     1    1    2 1   
     2    1    9 1   
     3    1   10 1   
     4    2    3 1   
     5    2    6 1   
     6    2   11 1   
     7    3    4 1   
     8    3    5 1   
     9    3   12 1   
    10    4   13 1   
    11    4   14 1   
    12    4   15 1   
    13    5   16 1   
    14    5   17 1   
    15    5   18 1   
    16    6    7 1   
    17    6    8 1   
@<TRIPOS>SUBSTRUCTURE
     1 DVA         1 TEMP              0 ****  ****    0 ROOT
