@<TRIPOS>MOLECULE
DVC
   27    27     1     0     0
SMALL
bcc


@<TRIPOS>ATOM
      1 C1          1.6110    0.7580   -0.7380 c3        1 DVC      0.328900
      2 O1          2.4380    0.9390    0.3870 oh        1 DVC     -0.620800
      3 C2          1.2800   -0.7210   -0.9080 c3        1 DVC     -0.096400
      4 C3          0.2060   -1.2710    0.0560 c3        1 DVC      0.188200
      5 N3         -0.2920   -2.5530   -0.4420 n3        1 DVC     -0.886800
      6 C4         -0.9440   -0.1990    0.1350 c3        1 DVC      0.282600
      7 O4         -1.6890   -0.1640   -1.0710 oh        1 DVC     -0.615300
      8 C5         -0.3910    1.1980    0.4980 c3        1 DVC      0.094100
      9 O5          0.4980    1.6130   -0.5440 os        1 DVC     -0.459600
     10 C6         -1.4800    2.2460    0.5850 c3        1 DVC     -0.097100
     11 C3M         0.8150   -1.4450    1.4540 c3        1 DVC     -0.098100
     12 O41        -1.9020   -0.6440    1.0650 oh        1 DVC     -0.615300
     13 H1          2.1010    1.1650   -1.6730 h2        1 DVC      0.068700
     14 HO1         2.5940    1.8880    0.4800 ho        1 DVC      0.417000
     15 H2          0.9380   -0.8540   -1.9690 hc        1 DVC      0.072700
     16 H2A         2.2220   -1.3110   -0.7630 hc        1 DVC      0.072700
     17 HN3        -0.8830   -2.9650    0.2560 hn        1 DVC      0.358800
     18 HN3A       -0.8350   -2.3990   -1.2720 hn        1 DVC      0.358800
     19 HO4        -1.2270    0.4220   -1.6850 ho        1 DVC      0.427000
     20 H5          0.1740    1.1300    1.4680 h1        1 DVC      0.076700
     21 H6         -2.1330    2.0200    1.4620 hc        1 DVC      0.051367
     22 H6A        -1.0280    3.2590    0.7100 hc        1 DVC      0.051367
     23 H6B        -2.1000    2.2430   -0.3440 hc        1 DVC      0.051367
     24 H3M         1.4060   -0.5380    1.7280 hc        1 DVC      0.054700
     25 H3MA        0.0070   -1.5990    2.2090 hc        1 DVC      0.054700
     26 H3MB        1.5020   -2.3250    1.4700 hc        1 DVC      0.054700
     27 HO41       -2.7380   -0.2050    0.8520 ho        1 DVC      0.427000
@<TRIPOS>BOND
     1    1    2 1   
     2    1    3 1   
     3    1    9 1   
     4    1   13 1   
     5    2   14 1   
     6    3    4 1   
     7    3   15 1   
     8    3   16 1   
     9    4    5 1   
    10    4    6 1   
    11    4   11 1   
    12    5   17 1   
    13    5   18 1   
    14    6    7 1   
    15    6    8 1   
    16    6   12 1   
    17    7   19 1   
    18    8    9 1   
    19    8   10 1   
    20    8   20 1   
    21   10   21 1   
    22   10   22 1   
    23   10   23 1   
    24   11   24 1   
    25   11   25 1   
    26   11   26 1   
    27   12   27 1   
@<TRIPOS>SUBSTRUCTURE
     1 DVC         1 TEMP              0 ****  ****    0 ROOT
