@<TRIPOS>MOLECULE
DVC
   27    27     1     0     0
SMALL
bcc


@<TRIPOS>ATOM
      1 C1         -1.2580   -0.1640   -1.5840 c3        1 DVC      0.345900
      2 O1         -1.7010    0.0410   -2.7250 oh        1 DVC     -0.590800
      3 C2          0.3120   -0.1640   -1.5840 c3        1 DVC     -0.169400
      4 C3          0.9280   -0.1640   -0.2150 c3        1 DVC      0.179200
      5 N3          2.3520   -0.0600   -0.3510 n3        1 DVC     -0.910800
      6 C4          0.4750    0.8880    0.6050 c3        1 DVC      0.322600
      7 O4          0.9880    0.6920    1.9070 oh        1 DVC     -0.630300
      8 C5         -0.9260    0.9990    0.6920 c3        1 DVC      0.151100
      9 O5         -1.6010    1.0430   -0.6200 os        1 DVC     -0.446600
     10 C6         -1.4740   -0.2240    1.4920 c3        1 DVC     -0.120100
     11 C3M         0.5770   -1.5610    0.5040 c3        1 DVC     -0.093100
     12 O41         0.9900    2.1050    0.0970 oh        1 DVC     -0.630300
     13 H1         -1.6030   -1.0030   -1.2240 h2        1 DVC      0.074700
     14 HO1        -2.5340   -0.2600   -2.7770 ho        1 DVC      0.422000
     15 H2          0.6210    0.6290   -2.0630 hc        1 DVC      0.065700
     16 H2A         0.6210   -0.9560   -2.0630 hc        1 DVC      0.065700
     17 HN3         2.5800   -0.1460   -1.2300 hn        1 DVC      0.362800
     18 HN3A        2.7530   -0.7210    0.1330 hn        1 DVC      0.362800
     19 HO4         1.3750    1.4400    2.1880 ho        1 DVC      0.429500
     20 H5         -1.1440    1.8160    1.1810 h1        1 DVC      0.078700
     21 H6         -1.7000   -0.9430    0.8720 hc        1 DVC      0.052367
     22 H6A        -2.2720    0.0430    1.9870 hc        1 DVC      0.052367
     23 H6B        -0.7920   -0.5350    2.1170 hc        1 DVC      0.052367
     24 H3M         1.1890   -2.2520    0.1880 hc        1 DVC      0.047700
     25 H3MA       -0.3410   -1.8160    0.2890 hc        1 DVC      0.047700
     26 H3MB        0.6690   -1.4620    1.4710 hc        1 DVC      0.047700
     27 HO41        0.9160    2.7380    0.7150 ho        1 DVC      0.429500
@<TRIPOS>BOND
     1    1    2 1   
     2    1    3 1   
     3    1    9 1   
     4    1   13 1   
     5    2   14 1   
     6    3    4 1   
     7    3   15 1   
     8    3   16 1   
     9    4    5 1   
    10    4    6 1   
    11    4   11 1   
    12    5   17 1   
    13    5   18 1   
    14    6    7 1   
    15    6    8 1   
    16    6   12 1   
    17    7   19 1   
    18    8    9 1   
    19    8   10 1   
    20    8   20 1   
    21   10   21 1   
    22   10   22 1   
    23   10   23 1   
    24   11   24 1   
    25   11   25 1   
    26   11   26 1   
    27   12   27 1   
@<TRIPOS>SUBSTRUCTURE
     1 DVC         1 TEMP              0 ****  ****    0 ROOT
