@<TRIPOS>MOLECULE
DVP
   56    59     1     0     0
SMALL
bcc


@<TRIPOS>ATOM
      1 CAY        -0.0880    0.4570    0.7670 c3        1 DVP      0.124700
      2 OAX         1.3320    0.5440    0.6380 os        1 DVP     -0.440900
      3 CAW         2.0770   -0.2400    1.4780 c         1 DVP      0.630100
      4 OBF         1.4820   -0.9510    2.2890 o         1 DVP     -0.537000
      5 CAV         3.5570   -0.0900    1.2530 c3        1 DVP     -0.106700
      6 CAU         4.2610    0.1130    2.5860 c3        1 DVP     -0.102400
      7 CAT         5.7800    0.1400    2.3980 c3        1 DVP      0.080000
      8 CAI         4.0920   -1.3290    0.5460 c3        1 DVP     -0.102400
      9 CAH         5.6140   -1.2520    0.4130 c3        1 DVP      0.080000
     10 NAG         6.3110   -0.9810    1.6560 n         1 DVP     -0.455800
     11 CAF         6.9880   -2.0290    2.2950 c         1 DVP      0.672700
     12 OAA         7.0570   -3.1510    1.7550 o         1 DVP     -0.592100
     13 CAE         7.6890   -1.7610    3.5790 ca        1 DVP     -0.185600
     14 CAS         7.5250   -2.6670    4.6350 ca        1 DVP     -0.052500
     15 CAR         8.1940   -2.4790    5.8350 ca        1 DVP     -0.203000
     16 CAD         8.5610   -0.6810    3.7310 ca        1 DVP     -0.052500
     17 CAC         9.2490   -0.4870    4.9220 ca        1 DVP     -0.203000
     18 CAQ         9.0790   -1.3840    6.0040 ca        1 DVP      0.175600
     19 N10         9.8190   -1.2650    7.1850 nu        1 DVP     -0.733600
     20 C9         10.3420    0.0300    7.5470 c3        1 DVP      0.159500
     21 C6         10.6050    0.1970    9.0260 ca        1 DVP      0.228300
     22 C7         11.9210    0.6430    9.4380 ca        1 DVP      0.353900
     23 N8         12.2610    0.8590   10.6910 nb        1 DVP     -0.625000
     24 C8A        11.2750    0.6300   11.6640 ca        1 DVP      0.634000
     25 N1         11.5900    0.8370   12.9780 nb        1 DVP     -0.774000
     26 C2         10.5900    0.5850   13.8910 ca        1 DVP      0.948900
     27 N2         10.9090    0.7150   15.2320 nv        1 DVP     -0.944500
     28 N3          9.2830    0.1800   13.6020 nb        1 DVP     -0.847000
     29 C4          8.9660   -0.0250   12.3030 ca        1 DVP      0.717900
     30 N4          7.6970   -0.4300   11.9890 nv        1 DVP     -0.954500
     31 C4A         9.9600    0.1840   11.2370 ca        1 DVP      0.027000
     32 N5          9.6480   -0.0270    9.9210 nb        1 DVP     -0.601000
     33 HAY1       -0.4250   -0.5880    0.5670 h1        1 DVP      0.051033
     34 HAY2       -0.3960    0.7680    1.7940 h1        1 DVP      0.051033
     35 HAY3       -0.4680    1.1670   -0.0080 h1        1 DVP      0.051033
     36 HAV         3.7330    0.8100    0.5980 hc        1 DVP      0.082700
     37 HAU1        3.9430    1.0850    3.0430 hc        1 DVP      0.065200
     38 HAU2        3.9680   -0.7100    3.2900 hc        1 DVP      0.065200
     39 HAT1        6.0530    1.0750    1.8260 h1        1 DVP      0.063700
     40 HAT2        6.2630    0.2000    3.4130 h1        1 DVP      0.063700
     41 HAI1        3.8000   -2.2460    1.1210 hc        1 DVP      0.065200
     42 HAI2        3.6470   -1.4050   -0.4780 hc        1 DVP      0.065200
     43 HAH1        5.9900   -2.2200   -0.0250 h1        1 DVP      0.063700
     44 HAH2        5.8740   -0.4150   -0.2970 h1        1 DVP      0.063700
     45 HAS         6.8620   -3.5370    4.5020 ha        1 DVP      0.145000
     46 HAR         8.0450   -3.2010    6.6520 ha        1 DVP      0.137000
     47 HAD         8.7160    0.0220    2.8960 ha        1 DVP      0.145000
     48 HAC         9.9410    0.3640    5.0060 ha        1 DVP      0.137000
     49 H10         9.4650   -1.8090    7.9440 hn        1 DVP      0.417800
     50 H91         9.6480    0.8630    7.2220 h1        1 DVP      0.055200
     51 H92        11.3180    0.1660    6.9940 h1        1 DVP      0.055200
     52 H7         12.7050    0.8180    8.6770 h4        1 DVP      0.038100
     53 HN21       10.1840    0.6840   15.9050 hn        1 DVP      0.447300
     54 HN22       11.7780    1.1240   15.4790 hn        1 DVP      0.447300
     55 HN41        7.0210   -0.5710   12.7000 hn        1 DVP      0.453300
     56 HN42        7.4420   -0.5700   11.0440 hn        1 DVP      0.453300
@<TRIPOS>BOND
     1    1    2 1   
     2    1   33 1   
     3    1   34 1   
     4    1   35 1   
     5    2    3 1   
     6    3    4 2   
     7    3    5 1   
     8    5    6 1   
     9    5    8 1   
    10    5   36 1   
    11    6    7 1   
    12    6   37 1   
    13    6   38 1   
    14    7   10 1   
    15    7   39 1   
    16    7   40 1   
    17    8    9 1   
    18    8   41 1   
    19    8   42 1   
    20    9   10 1   
    21    9   43 1   
    22    9   44 1   
    23   10   11 1   
    24   11   12 2   
    25   11   13 1   
    26   13   14 ar  
    27   13   16 ar  
    28   14   15 ar  
    29   14   45 1   
    30   15   18 ar  
    31   15   46 1   
    32   16   17 ar  
    33   16   47 1   
    34   17   18 ar  
    35   17   48 1   
    36   18   19 1   
    37   19   20 1   
    38   19   49 1   
    39   20   21 1   
    40   20   50 1   
    41   20   51 1   
    42   21   22 ar  
    43   21   32 ar  
    44   22   23 ar  
    45   22   52 1   
    46   23   24 ar  
    47   24   25 ar  
    48   24   31 ar  
    49   25   26 ar  
    50   26   27 1   
    51   26   28 ar  
    52   27   53 1   
    53   27   54 1   
    54   28   29 ar  
    55   29   30 1   
    56   29   31 ar  
    57   30   55 1   
    58   30   56 1   
    59   31   32 ar  
@<TRIPOS>SUBSTRUCTURE
     1 DVP         1 TEMP              0 ****  ****    0 ROOT
