@<TRIPOS>MOLECULE
DVP
   59    62     1     0     0
SMALL
bcc


@<TRIPOS>ATOM
      1 CAY         0.0740    0.3210    0.6610 c3        1 DVP      0.122700
      2 OAX         1.4730    0.3190    0.3520 os        1 DVP     -0.421900
      3 CAW         2.3290    0.0500    1.3730 c         1 DVP      0.631100
      4 OBF         1.8800   -0.1580    2.5030 o         1 DVP     -0.551000
      5 CAV         3.7760    0.0460    0.9440 c3        1 DVP     -0.112700
      6 CAU         4.6440    0.4530    2.1260 c3        1 DVP     -0.104900
      7 CAT         6.1270    0.2470    1.8230 c3        1 DVP      0.069000
      8 CAI         4.1380   -1.3380    0.4210 c3        1 DVP     -0.104900
      9 CAH         5.6390   -1.4650    0.1740 c3        1 DVP      0.069000
     10 NAG         6.4520   -1.0750    1.3230 n         1 DVP     -0.419800
     11 CAF         6.9230   -2.0750    2.1580 c         1 DVP      0.636700
     12 OAA         6.9200   -3.2800    1.8490 o         1 DVP     -0.539100
     13 CAE         7.5790   -1.7050    3.4640 ca        1 DVP     -0.039600
     14 CAS         7.0590   -2.2630    4.6410 ca        1 DVP     -0.065500
     15 CAR         7.7070   -2.0710    5.8570 ca        1 DVP     -0.104000
     16 CAD         8.7470   -0.9370    3.5060 ca        1 DVP     -0.065500
     17 CAC         9.4130   -0.7330    4.7130 ca        1 DVP     -0.104000
     18 CAQ         8.8920   -1.3120    5.8840 ca        1 DVP     -0.098400
     19 N10         9.6310   -1.1790    7.1520 n4        1 DVP     -0.618400
     20 C9          8.9770   -0.1860    8.0540 c3        1 DVP      0.037500
     21 C6          9.7100    0.0440    9.3600 ca        1 DVP      0.333300
     22 C7         10.9920    0.7530    9.3210 ca        1 DVP      0.363900
     23 N8         11.6700    1.0840   10.3980 nb        1 DVP     -0.507000
     24 C8A        11.1040    0.7430   11.6330 ca        1 DVP      0.604000
     25 N1         11.7720    1.0880   12.7950 nb        1 DVP     -0.531000
     26 C2         11.1720    0.7540   13.9530 ca        1 DVP      0.765900
     27 N2         11.8810    1.1250   15.2140 n4        1 DVP     -0.818300
     28 N3          9.9490    0.0980   14.1140 nb        1 DVP     -0.646000
     29 C4          9.3050   -0.2400   12.9920 ca        1 DVP      0.545900
     30 N4          8.0000   -0.9240   13.1200 n4        1 DVP     -0.830300
     31 C4A         9.8290    0.0450   11.6700 ca        1 DVP      0.158000
     32 N5          9.1570   -0.3080   10.5160 nb        1 DVP     -0.620000
     33 HAY1       -0.2320   -0.6830    1.0420 h1        1 DVP      0.062033
     34 HAY2       -0.4070    0.5550   -0.3210 h1        1 DVP      0.062033
     35 HAY3       -0.1430    1.1070    1.4240 h1        1 DVP      0.062033
     36 HAV         3.9030    0.7950    0.1110 hc        1 DVP      0.097700
     37 HAU1        4.3410   -0.1400    3.0290 hc        1 DVP      0.072700
     38 HAU2        4.4760    1.5360    2.3600 hc        1 DVP      0.072700
     39 HAT1        6.7270    0.4690    2.7490 h1        1 DVP      0.072950
     40 HAT2        6.4420    0.9790    1.0220 h1        1 DVP      0.072950
     41 HAI1        3.6010   -1.5230   -0.5470 hc        1 DVP      0.072700
     42 HAI2        3.8010   -2.1200    1.1510 hc        1 DVP      0.072700
     43 HAH1        5.8820   -2.5290   -0.1120 h1        1 DVP      0.072950
     44 HAH2        5.9420   -0.7900   -0.6770 h1        1 DVP      0.072950
     45 HAS         6.1450   -2.8850    4.5930 ha        1 DVP      0.200000
     46 HAR         7.2930   -2.5350    6.7660 ha        1 DVP      0.153500
     47 HAD         9.1580   -0.5040    2.5740 ha        1 DVP      0.200000
     48 HAC        10.3420   -0.1390    4.7190 ha        1 DVP      0.153500
     49 H10         9.6540   -2.1030    7.6050 hn        1 DVP      0.461800
     50 H91         8.9200    0.8080    7.5080 hx        1 DVP      0.153700
     51 H92         7.9130   -0.5350    8.2310 hx        1 DVP      0.153700
     52 H7         11.4430    1.0630    8.3500 h4        1 DVP      0.100100
     53 HN21       12.0780    0.2720   15.7660 hn        1 DVP      0.513800
     54 HN22       11.2870    1.7630   15.7710 hn        1 DVP      0.513800
     55 HN41        7.2740   -0.3510   12.6580 hn        1 DVP      0.507133
     56 HN42        8.0540   -1.8450   12.6550 hn        1 DVP      0.507133
     57 H102       10.5950   -0.8910    6.9410 hn        1 DVP      0.461800
     58 H23        12.7770    1.6010   14.9940 hn        1 DVP      0.513800
     59 H43         7.7340   -1.0650   14.1130 hn        1 DVP      0.507133
@<TRIPOS>BOND
     1    1    2 1   
     2    1   33 1   
     3    1   34 1   
     4    1   35 1   
     5    2    3 1   
     6    3    4 2   
     7    3    5 1   
     8    5    6 1   
     9    5    8 1   
    10    5   36 1   
    11    6    7 1   
    12    6   37 1   
    13    6   38 1   
    14    7   10 1   
    15    7   39 1   
    16    7   40 1   
    17    8    9 1   
    18    8   41 1   
    19    8   42 1   
    20    9   10 1   
    21    9   43 1   
    22    9   44 1   
    23   10   11 1   
    24   11   12 2   
    25   11   13 1   
    26   13   14 ar  
    27   13   16 ar  
    28   14   15 ar  
    29   14   45 1   
    30   15   18 ar  
    31   15   46 1   
    32   16   17 ar  
    33   16   47 1   
    34   17   18 ar  
    35   17   48 1   
    36   18   19 1   
    37   19   20 1   
    38   19   49 1   
    39   19   57 1   
    40   20   21 1   
    41   20   50 1   
    42   20   51 1   
    43   21   22 ar  
    44   21   32 ar  
    45   22   23 ar  
    46   22   52 1   
    47   23   24 ar  
    48   24   25 ar  
    49   24   31 ar  
    50   25   26 ar  
    51   26   27 1   
    52   26   28 ar  
    53   27   53 1   
    54   27   54 1   
    55   27   58 1   
    56   28   29 ar  
    57   29   30 1   
    58   29   31 ar  
    59   30   55 1   
    60   30   56 1   
    61   30   59 1   
    62   31   32 ar  
@<TRIPOS>SUBSTRUCTURE
     1 DVP         1 TEMP              0 ****  ****    0 ROOT
