@<TRIPOS>MOLECULE
DVP
   56    59     1     0     0
SMALL
bcc


@<TRIPOS>ATOM
      1 CAY        -8.6770   -3.7480    0.0080 c3        1 DVP      0.124700
      2 OAX        -8.0170   -2.6030    0.5490 os        1 DVP     -0.440900
      3 CAW        -6.9620   -2.1030   -0.1660 c         1 DVP      0.630100
      4 OBF        -6.6450   -2.6750   -1.2100 o         1 DVP     -0.537000
      5 CAV        -6.3480   -0.8890    0.4750 c3        1 DVP     -0.106700
      6 CAU        -4.8350   -1.0420    0.5190 c3        1 DVP     -0.102400
      7 CAT        -4.1770    0.2350    1.0510 c3        1 DVP      0.080000
      8 CAI        -6.7390    0.3550   -0.3110 c3        1 DVP     -0.102400
      9 CAH        -6.0290    1.5880    0.2520 c3        1 DVP      0.080000
     10 NAG        -4.5920    1.4460    0.3800 n         1 DVP     -0.455800
     11 CAF        -3.7630    2.0920   -0.5460 c         1 DVP      0.672700
     12 OAA        -4.2550    2.8440   -1.4110 o         1 DVP     -0.592100
     13 CAE        -2.2880    1.9350   -0.4310 ca        1 DVP     -0.185600
     14 CAS        -1.5490    1.6650   -1.5890 ca        1 DVP     -0.052500
     15 CAR        -0.1680    1.5530   -1.5350 ca        1 DVP     -0.203000
     16 CAD        -1.6200    2.1250    0.7810 ca        1 DVP     -0.052500
     17 CAC        -0.2350    2.0290    0.8500 ca        1 DVP     -0.203000
     18 CAQ         0.5230    1.7390   -0.3090 ca        1 DVP      0.175600
     19 N10         1.9210    1.7180   -0.2920 nh        1 DVP     -0.733600
     20 C9          2.5950    1.4480    0.9560 c3        1 DVP      0.159500
     21 C6          3.9870    0.8850    0.7950 ca        1 DVP      0.228300
     22 C7          5.0740    1.5480    1.4890 ca        1 DVP      0.353900
     23 N8          6.3230    1.1350    1.4560 nb        1 DVP     -0.625000
     24 C8A         6.5910   -0.0130    0.6950 ca        1 DVP      0.634000
     25 N1          7.8770   -0.4720    0.6310 nb        1 DVP     -0.774000
     26 C2          8.0860   -1.5940   -0.1420 ca        1 DVP      0.948900
     27 N2          9.3920   -2.0320   -0.2820 nh        1 DVP     -0.944500
     28 N3          7.1100   -2.3250   -0.8270 nb        1 DVP     -0.847000
     29 C4          5.8360   -1.8750   -0.7670 ca        1 DVP      0.717900
     30 N4          4.8600   -2.5640   -1.4340 nh        1 DVP     -0.954500
     31 C4A         5.4930   -0.6690    0.0050 ca        1 DVP      0.027000
     32 N5          4.2070   -0.2050    0.0670 nb        1 DVP     -0.601000
     33 HAY1       -9.0930   -3.5080   -1.0000 h1        1 DVP      0.051033
     34 HAY2       -7.9580   -4.5990   -0.0690 h1        1 DVP      0.051033
     35 HAY3       -9.4870   -3.9620    0.7470 h1        1 DVP      0.051033
     36 HAV        -6.7440   -0.7980    1.5270 hc        1 DVP      0.082700
     37 HAU1       -4.5550   -1.8920    1.1930 hc        1 DVP      0.065200
     38 HAU2       -4.4550   -1.2790   -0.5090 hc        1 DVP      0.065200
     39 HAT1       -4.4490    0.3500    2.1410 h1        1 DVP      0.063700
     40 HAT2       -3.0600    0.1140    0.9820 h1        1 DVP      0.063700
     41 HAI1       -6.4740    0.2160   -1.3920 hc        1 DVP      0.065200
     42 HAI2       -7.8450    0.5170   -0.2440 hc        1 DVP      0.065200
     43 HAH1       -6.4320    1.7970    1.2850 h1        1 DVP      0.063700
     44 HAH2       -6.2620    2.4730   -0.4060 h1        1 DVP      0.063700
     45 HAS        -2.0740    1.5480   -2.5510 ha        1 DVP      0.145000
     46 HAR         0.3910    1.3340   -2.4570 ha        1 DVP      0.137000
     47 HAD        -2.1910    2.3630    1.6920 ha        1 DVP      0.145000
     48 HAC         0.2640    2.2000    1.8150 ha        1 DVP      0.137000
     49 H10         2.3330    1.2970   -1.0980 hn        1 DVP      0.417800
     50 H91         2.6670    2.4250    1.5180 h1        1 DVP      0.055200
     51 H92         2.0020    0.7290    1.5990 h1        1 DVP      0.055200
     52 H7          4.8710    2.4580    2.0860 h4        1 DVP      0.038100
     53 HN21       10.0950   -1.6270    0.2870 hn        1 DVP      0.447300
     54 HN22        9.5630   -2.9110   -0.7060 hn        1 DVP      0.447300
     55 HN41        5.0820   -3.3780   -1.9530 hn        1 DVP      0.453300
     56 HN42        3.9200   -2.2590   -1.3880 hn        1 DVP      0.453300
@<TRIPOS>BOND
     1    1    2 1   
     2    1   33 1   
     3    1   34 1   
     4    1   35 1   
     5    2    3 1   
     6    3    4 2   
     7    3    5 1   
     8    5    6 1   
     9    5    8 1   
    10    5   36 1   
    11    6    7 1   
    12    6   37 1   
    13    6   38 1   
    14    7   10 1   
    15    7   39 1   
    16    7   40 1   
    17    8    9 1   
    18    8   41 1   
    19    8   42 1   
    20    9   10 1   
    21    9   43 1   
    22    9   44 1   
    23   10   11 1   
    24   11   12 2   
    25   11   13 1   
    26   13   14 ar  
    27   13   16 ar  
    28   14   15 ar  
    29   14   45 1   
    30   15   18 ar  
    31   15   46 1   
    32   16   17 ar  
    33   16   47 1   
    34   17   18 ar  
    35   17   48 1   
    36   18   19 1   
    37   19   20 1   
    38   19   49 1   
    39   20   21 1   
    40   20   50 1   
    41   20   51 1   
    42   21   22 ar  
    43   21   32 ar  
    44   22   23 ar  
    45   22   52 1   
    46   23   24 ar  
    47   24   25 ar  
    48   24   31 ar  
    49   25   26 ar  
    50   26   27 1   
    51   26   28 ar  
    52   27   53 1   
    53   27   54 1   
    54   28   29 ar  
    55   29   30 1   
    56   29   31 ar  
    57   30   55 1   
    58   30   56 1   
    59   31   32 ar  
@<TRIPOS>SUBSTRUCTURE
     1 DVP         1 TEMP              0 ****  ****    0 ROOT
