@<TRIPOS>MOLECULE
DVP
   56    54     1     0     0
SMALL
bcc


@<TRIPOS>ATOM
      1 CAY        -4.6600   -1.8850   -8.2020 c3        1 DVP     -0.065000
      2 OAX        -3.5270   -1.2300   -7.6970 os        1 DVP     -0.279000
      3 CAW        -3.7860   -0.4360   -6.5040 c2        1 DVP      0.301000
      4 OBF        -4.9560   -0.2600   -6.1150 o         1 DVP     -0.347000
      5 CAV        -2.6230    0.2650   -5.7870 c3        1 DVP     -0.097000
      6 CAU        -2.9560    1.7050   -5.4530 c3        1 DVP     -0.181000
      7 CAT        -1.8690    2.3870   -4.6420 c3        1 DVP     -0.036000
      8 CAI        -2.2400   -0.4600   -4.4990 c3        1 DVP     -0.181000
      9 CAH        -1.1690    0.2720   -3.7100 c3        1 DVP     -0.036000
     10 NAG        -1.5000    1.6410   -3.4680 n         1 DVP     -0.314000
     11 CAF        -1.4630    2.2280   -2.1550 c2        1 DVP      0.346000
     12 OAA        -1.7550    3.4130   -2.0040 o         1 DVP     -0.355000
     13 CAE        -0.9910    1.3970   -0.9590 c2        1 DVP     -0.163000
     14 CAS         0.3790    1.2670   -0.6940 c2        1 DVP     -0.062000
     15 CAR         0.8070    0.5480    0.4240 c1        1 DVP     -0.201000
     16 CAD        -1.9260    0.8080   -0.1060 c1        1 DVP     -0.047000
     17 CAC        -1.4970    0.0880    1.0110 c1        1 DVP     -0.200000
     18 CAQ        -0.1340   -0.0430    1.2770 c1        1 DVP      0.089000
     19 N10         0.3060   -0.7380    2.4670 n3        1 DVP     -0.286000
     20 C9          1.1220   -0.0620    3.4290 c3        1 DVP      0.014000
     21 C6          2.2040   -1.0200    3.9410 c2        1 DVP     -0.129000
     22 C7          3.4270   -1.4220    3.4170 c2        1 DVP     -0.046000
     23 N8          4.4960   -1.5220    4.2150 n1        1 DVP     -0.099000
     24 C8A         4.3870   -1.2270    5.5490 c1        1 DVP      0.184500
     25 N1          5.4840   -1.3000    6.3570 n2        1 DVP     -0.284500
     26 C2          5.3800   -0.9780    7.6770 c1        1 DVP      0.230000
     27 N2          6.6660   -1.1150    8.2530 n2        1 DVP     -0.346000
     28 N3          4.1690   -0.5790    8.1980 n2        1 DVP     -0.284500
     29 C4          3.0880   -0.5060    7.4070 c1        1 DVP      0.184500
     30 N4          2.0170   -0.0060    8.2710 n2        1 DVP     -0.346000
     31 C4A         3.1890   -0.8330    6.0630 c2        1 DVP     -0.235000
     32 N5          2.0950   -0.7310    5.2470 n2        1 DVP     -0.073000
     33 HAY1       -4.4180   -2.3720   -9.0390 h1        1 DVP      0.090333
     34 HAY2       -5.3350   -1.2480   -8.3920 h1        1 DVP      0.090333
     35 HAY3       -4.9770   -2.4950   -7.5650 h1        1 DVP      0.090333
     36 HAV        -1.9220    0.2040   -6.4550 hc        1 DVP      0.122000
     37 HAU1       -3.0890    2.2120   -6.3050 hc        1 DVP      0.104750
     38 HAU2       -3.8150    1.7260   -4.9250 hc        1 DVP      0.104750
     39 HAT1       -1.0730    2.5000   -5.2100 h1        1 DVP      0.103000
     40 HAT2       -2.1830    3.2480   -4.3730 h1        1 DVP      0.103000
     41 HAI1       -3.0280   -0.5510   -3.9470 hc        1 DVP      0.104750
     42 HAI2       -1.9120   -1.3460   -4.7260 hc        1 DVP      0.104750
     43 HAH1       -0.2990    0.2330   -4.2270 h1        1 DVP      0.103000
     44 HAH2       -1.0480   -0.1760   -2.8570 h1        1 DVP      0.103000
     45 HAS         1.0730    1.7040   -1.3260 ha        1 DVP      0.141000
     46 HAR         1.7670    0.4550    0.6120 ha        1 DVP      0.136000
     47 HAD        -2.8850    0.8990   -0.2910 ha        1 DVP      0.149000
     48 HAC        -2.1430   -0.3170    1.5980 ha        1 DVP      0.138000
     49 H10         0.0090   -1.5630    2.6360 hn        1 DVP      0.211000
     50 H91         0.5400    0.2480    4.2120 h1        1 DVP      0.095500
     51 H92         1.5460    0.7140    3.0110 h1        1 DVP      0.095500
     52 H7          3.4890   -1.7190    2.4580 h4        1 DVP      0.174000
     53 HN21        6.8050   -0.8620    9.0990 hn        1 DVP      0.245000
     54 HN22        7.3760   -1.4080    7.7350 hn        1 DVP      0.245000
     55 HN41        2.1810    0.1630    9.1280 hn        1 DVP      0.245000
     56 HN42        1.1780    0.0870    7.9440 hn        1 DVP      0.245000
@<TRIPOS>BOND
     1    1    2 1   
     2    1   33 1   
     3    1   34 1   
     4    1   35 1   
     5    2    3 1   
     6    3    4 1   
     7    3    5 1   
     8    5    6 1   
     9    5    8 1   
    10    5   36 1   
    11    6    7 1   
    12    6   37 1   
    13    6   38 1   
    14    7   10 1   
    15    7   39 1   
    16    7   40 1   
    17    8    9 1   
    18    8   41 1   
    19    8   42 1   
    20    9   10 1   
    21    9   43 1   
    22    9   44 1   
    23   10   11 1   
    24   11   12 1   
    25   11   13 1   
    26   13   14 1   
    27   13   16 1   
    28   14   15 1   
    29   14   45 1   
    30   15   46 1   
    31   16   47 1   
    32   17   18 1   
    33   17   48 1   
    34   18   19 1   
    35   19   20 1   
    36   19   49 1   
    37   20   21 1   
    38   20   50 1   
    39   20   51 1   
    40   21   22 1   
    41   21   32 1   
    42   22   23 1   
    43   22   52 1   
    44   24   25 1   
    45   24   31 1   
    46   25   26 1   
    47   26   28 1   
    48   27   53 1   
    49   27   54 1   
    50   28   29 1   
    51   29   31 1   
    52   30   55 1   
    53   30   56 1   
    54   31   32 1   
@<TRIPOS>SUBSTRUCTURE
     1 DVP         1 TEMP              0 ****  ****    0 ROOT
