@<TRIPOS>MOLECULE
DVP
   56    59     1     0     0
SMALL
bcc


@<TRIPOS>ATOM
      1 CAY        -0.0960    0.4210    0.7710 c3        1 DVP      0.124700
      2 OAX         1.3220    0.5220    0.6440 os        1 DVP     -0.440900
      3 CAW         2.0740   -0.2580    1.4800 c         1 DVP      0.630100
      4 OBF         1.4860   -0.9790    2.2870 o         1 DVP     -0.537000
      5 CAV         3.5530   -0.0930    1.2560 c3        1 DVP     -0.106700
      6 CAU         4.2550    0.1060    2.5910 c3        1 DVP     -0.102400
      7 CAT         5.7740    0.1490    2.4030 c3        1 DVP      0.080000
      8 CAI         4.1000   -1.3210    0.5410 c3        1 DVP     -0.102400
      9 CAH         5.6210   -1.2300    0.4090 c3        1 DVP      0.080000
     10 NAG         6.3160   -0.9610    1.6530 n         1 DVP     -0.455800
     11 CAF         7.0020   -2.0070    2.2850 c         1 DVP      0.672700
     12 OAA         7.0820   -3.1250    1.7380 o         1 DVP     -0.592100
     13 CAE         7.7020   -1.7420    3.5710 ca        1 DVP     -0.185600
     14 CAS         7.5480   -2.6560    4.6200 ca        1 DVP     -0.052500
     15 CAR         8.2160   -2.4700    5.8210 ca        1 DVP     -0.203000
     16 CAD         8.5630   -0.6530    3.7290 ca        1 DVP     -0.052500
     17 CAC         9.2500   -0.4610    4.9210 ca        1 DVP     -0.203000
     18 CAQ         9.0900   -1.3670    5.9970 ca        1 DVP      0.175600
     19 N10         9.8290   -1.2490    7.1780 nh        1 DVP     -0.733600
     20 C9         10.3400    0.0490    7.5500 c3        1 DVP      0.159500
     21 C6         10.6000    0.2090    9.0290 ca        1 DVP      0.228300
     22 C7         11.9100    0.6680    9.4440 ca        1 DVP      0.353900
     23 N8         12.2470    0.8800   10.6990 nb        1 DVP     -0.625000
     24 C8A        11.2640    0.6330   11.6700 ca        1 DVP      0.634000
     25 N1         11.5760    0.8360   12.9860 nb        1 DVP     -0.774000
     26 C2         10.5790    0.5660   13.8970 ca        1 DVP      0.948900
     27 N2         10.8960    0.6920   15.2390 nh        1 DVP     -0.944500
     28 N3          9.2770    0.1460   13.6050 nb        1 DVP     -0.847000
     29 C4          8.9630   -0.0550   12.3050 ca        1 DVP      0.717900
     30 N4          7.6990   -0.4740   11.9880 nh        1 DVP     -0.954500
     31 C4A         9.9550    0.1740   11.2400 ca        1 DVP      0.027000
     32 N5          9.6450   -0.0330    9.9230 nb        1 DVP     -0.601000
     33 HAY1       -0.4090    0.7240    1.7990 h1        1 DVP      0.051033
     34 HAY2       -0.4230   -0.6260    0.5650 h1        1 DVP      0.051033
     35 HAY3       -0.4830    1.1310   -0.0010 h1        1 DVP      0.051033
     36 HAV         3.7210    0.8140    0.6080 hc        1 DVP      0.082700
     37 HAU1        3.9280    1.0720    3.0550 hc        1 DVP      0.065200
     38 HAU2        3.9700   -0.7240    3.2890 hc        1 DVP      0.065200
     39 HAT1        6.2560    0.2060    3.4190 h1        1 DVP      0.063700
     40 HAT2        6.0380    1.0910    1.8390 h1        1 DVP      0.063700
     41 HAI1        3.6560   -1.3950   -0.4840 hc        1 DVP      0.065200
     42 HAI2        3.8160   -2.2460    1.1090 hc        1 DVP      0.065200
     43 HAH1        6.0060   -2.1910   -0.0360 h1        1 DVP      0.063700
     44 HAH2        5.8730   -0.3860   -0.2960 h1        1 DVP      0.063700
     45 HAS         6.8940   -3.5320    4.4820 ha        1 DVP      0.145000
     46 HAR         8.0750   -3.1990    6.6330 ha        1 DVP      0.137000
     47 HAD         8.7100    0.0570    2.8990 ha        1 DVP      0.145000
     48 HAC         9.9340    0.3960    5.0110 ha        1 DVP      0.137000
     49 H10         9.4820   -1.8020    7.9340 hn        1 DVP      0.417800
     50 H91         9.6370    0.8770    7.2300 h1        1 DVP      0.055200
     51 H92        11.3140    0.1980    6.9980 h1        1 DVP      0.055200
     52 H7         12.6920    0.8580    8.6850 h4        1 DVP      0.038100
     53 HN21       11.7600    1.1100   15.4880 hn        1 DVP      0.447300
     54 HN22       10.1710    0.6470   15.9120 hn        1 DVP      0.447300
     55 HN41        7.0250   -0.6270   12.6980 hn        1 DVP      0.453300
     56 HN42        7.4470   -0.6110   11.0420 hn        1 DVP      0.453300
@<TRIPOS>BOND
     1    1    2 1   
     2    1   33 1   
     3    1   34 1   
     4    1   35 1   
     5    2    3 1   
     6    3    4 2   
     7    3    5 1   
     8    5    6 1   
     9    5    8 1   
    10    5   36 1   
    11    6    7 1   
    12    6   37 1   
    13    6   38 1   
    14    7   10 1   
    15    7   39 1   
    16    7   40 1   
    17    8    9 1   
    18    8   41 1   
    19    8   42 1   
    20    9   10 1   
    21    9   43 1   
    22    9   44 1   
    23   10   11 1   
    24   11   12 2   
    25   11   13 1   
    26   13   14 ar  
    27   13   16 ar  
    28   14   15 ar  
    29   14   45 1   
    30   15   18 ar  
    31   15   46 1   
    32   16   17 ar  
    33   16   47 1   
    34   17   18 ar  
    35   17   48 1   
    36   18   19 1   
    37   19   20 1   
    38   19   49 1   
    39   20   21 1   
    40   20   50 1   
    41   20   51 1   
    42   21   22 ar  
    43   21   32 ar  
    44   22   23 ar  
    45   22   52 1   
    46   23   24 ar  
    47   24   25 ar  
    48   24   31 ar  
    49   25   26 ar  
    50   26   27 1   
    51   26   28 ar  
    52   27   53 1   
    53   27   54 1   
    54   28   29 ar  
    55   29   30 1   
    56   29   31 ar  
    57   30   55 1   
    58   30   56 1   
    59   31   32 ar  
@<TRIPOS>SUBSTRUCTURE
     1 DVP         1 TEMP              0 ****  ****    0 ROOT
