@<TRIPOS>MOLECULE
DVR
   40    32     1     0     0
SMALL
bcc


@<TRIPOS>ATOM
      1 S1         -4.0930   -0.2880   -1.4250 ss        1 DVR      2.749000
      2 C2         -2.6610    0.6470   -1.1870 c2        1 DVR     -0.781000
      3 C3         -2.1160    0.3950    0.2150 c2        1 DVR     -0.277000
      4 C4         -0.7840    0.0600    0.3950 c1        1 DVR      0.052000
      5 N5          0.1150   -0.0640   -0.7650 n2        1 DVR     -0.228000
      6 C6          1.4350   -0.6200   -0.5940 c2        1 DVR      0.135000
      7 C7          2.2060    0.4240   -1.1190 c1        1 DVR     -0.254000
      8 C8          2.5080    1.3390   -2.3120 c1        1 DVR      0.261000
      9 C9          3.5140    0.0210   -1.1270 c1        1 DVR     -0.166000
     10 C10        -3.0390    0.5270    1.4390 c2        1 DVR     -0.011000
     11 C11        -3.1300    1.7100    2.0920 c1        1 DVR     -0.244000
     12 C12        -2.3130    2.9170    1.6020 c1        1 DVR      0.338000
     13 N12        -2.7470    4.2720    1.9230 n3        1 DVR     -0.426000
     14 O12        -1.2980    2.7440    1.0010 o         1 DVR     -0.423000
     15 O8          1.8510    1.2220   -3.3740 o         1 DVR     -0.348000
     16 C4A        -0.2470   -0.1940    1.8140 c2        1 DVR      0.361000
     17 O4A        -0.8510   -0.9490    2.5720 o         1 DVR     -0.525000
     18 O4B         0.8450    0.3260    2.1790 o         1 DVR     -0.525000
     19 O1A        -4.4120   -0.4000   -2.8110 o         1 DVR     -0.947000
     20 O1B        -5.2540    0.4010   -0.9260 o         1 DVR     -0.947000
     21 CG          3.5690   -1.2950   -0.5990 c1        1 DVR     -0.041000
     22 CD1         4.6310   -2.1470   -0.3450 c1        1 DVR     -0.111250
     23 ND2         2.2940   -1.6760   -0.2780 n2        1 DVR     -0.033000
     24 CE1         4.4000   -3.3850    0.2360 c1        1 DVR     -0.111250
     25 CE2         2.0650   -2.9160    0.3030 c1        1 DVR     -0.111250
     26 CZ          3.1200   -3.7650    0.5570 c1        1 DVR     -0.111250
     27 HS1        -3.9770   -1.3520   -0.9230 DU        1 DVR     -0.161000
     28 HC21       -1.9440    0.3710   -1.8950 ha        1 DVR      0.170000
     29 HC22       -2.8820    1.6430   -1.2950 ha        1 DVR      0.170000
     30 HN5        -0.1810    0.1630   -1.6010 hn        1 DVR      0.242000
     31 HC8         3.2090    2.0410   -2.2350 ha        1 DVR      0.077000
     32 HC9         4.2700    0.5300   -1.4860 DU        1 DVR     -0.161000
     33 H10        -3.5360   -0.2160    1.7370 ha        1 DVR      0.157000
     34 H11        -3.7120    1.7960    2.8700 ha        1 DVR      0.143000
     35 H121       -2.1860    4.9590    1.8070 hn        1 DVR      0.229000
     36 H122       -3.5720    4.4160    2.2360 hn        1 DVR      0.229000
     37 HD1         5.5580   -1.9120   -0.6840 ha        1 DVR      0.157250
     38 HE1         5.1610   -3.9990    0.4200 ha        1 DVR      0.157250
     39 HE2         1.2200   -3.1420    0.5770 ha        1 DVR      0.157250
     40 HCZ         2.9650   -4.6040    1.0080 ha        1 DVR      0.157250
@<TRIPOS>BOND
     1    1   19 1   
     2    1   20 1   
     3    2    3 1   
     4    2   28 1   
     5    2   29 1   
     6    3    4 1   
     7    3   10 1   
     8    4   16 1   
     9    5    6 1   
    10    5   30 1   
    11    6    7 1   
    12    6   23 1   
    13    7    9 1   
    14    8   15 1   
    15    8   31 1   
    16    9   21 1   
    17   10   11 1   
    18   10   33 1   
    19   11   34 1   
    20   12   13 1   
    21   12   14 1   
    22   13   35 1   
    23   13   36 1   
    24   16   17 1   
    25   16   18 1   
    26   21   23 1   
    27   22   24 1   
    28   22   37 1   
    29   24   38 1   
    30   25   26 1   
    31   25   39 1   
    32   26   40 1   
@<TRIPOS>SUBSTRUCTURE
     1 DVR         1 TEMP              0 ****  ****    0 ROOT
