@<TRIPOS>MOLECULE
DVR
   41    42     1     0     0
SMALL
bcc


@<TRIPOS>ATOM
      1 S1          0.2250   -0.2630   -0.1210 s6        1 DVR      1.295000
      2 C2          1.8630   -0.3390   -0.5750 c3        1 DVR     -0.223400
      3 C3          2.7260   -0.4110    0.6320 ce        1 DVR     -0.403200
      4 C4          3.0520    0.6840    1.4140 cf        1 DVR      0.152800
      5 N5          2.4950    1.9150    1.2300 nh        1 DVR     -0.595800
      6 C6          2.5840    2.9850    2.1330 cc        1 DVR      0.055900
      7 C7          1.5010    3.5630    2.8700 cd        1 DVR     -0.200200
      8 C8          0.1210    3.1110    2.8370 c         1 DVR      0.586100
      9 C9          2.0100    4.6710    3.5990 cd        1 DVR     -0.143000
     10 C10         3.4950   -1.6420    0.7340 ce        1 DVR      0.078000
     11 C11         3.3700   -2.6680    1.5880 cf        1 DVR     -0.277200
     12 C12         2.4250   -2.8490    2.6830 c         1 DVR      0.581300
     13 N12         1.7220   -1.6540    3.2130 n4        1 DVR     -0.784400
     14 O12         2.1600   -3.9160    3.2380 o         1 DVR     -0.486100
     15 O8         -0.7380    3.4880    3.6400 o         1 DVR     -0.536100
     16 C4A         4.1470    0.5060    2.5060 c         1 DVR      0.921800
     17 O4A         3.7680    0.1180    3.6520 o         1 DVR     -0.759300
     18 O4B         5.3180    0.7470    2.1580 o         1 DVR     -0.759300
     19 O1A        -0.0720   -1.1640    0.9260 o         1 DVR     -0.667300
     20 O1B        -0.1390    1.0790    0.0890 o         1 DVR     -0.667300
     21 CG          3.3870    4.7770    3.3090 cc        1 DVR     -0.056300
     22 CD1         4.3920    5.6890    3.7460 cc        1 DVR     -0.105000
     23 ND2         3.7370    3.7380    2.3990 na        1 DVR      0.064700
     24 CE1         5.6720    5.5590    3.2820 cd        1 DVR     -0.123000
     25 CE2         5.0420    3.6130    1.9560 cc        1 DVR     -0.064300
     26 CZ          5.9990    4.5060    2.3760 cd        1 DVR     -0.156000
     27 HS1        -0.2660   -0.6760   -1.1600 hs        1 DVR     -0.016200
     28 HC21        2.0880   -1.2180   -1.2390 h1        1 DVR      0.121700
     29 HC22        2.1510    0.5550   -1.1980 h1        1 DVR      0.121700
     30 HN5         1.8220    2.0610    0.5030 hn        1 DVR      0.451800
     31 HC8        -0.1350    2.3960    2.0180 h4        1 DVR      0.013200
     32 HC9         1.4360    5.3180    4.2580 ha        1 DVR      0.173000
     33 H10         4.2740   -1.7360   -0.0550 ha        1 DVR      0.144000
     34 H11         4.0480   -3.5400    1.4950 ha        1 DVR      0.176000
     35 H121        2.4430   -0.9580    3.5830 hn        1 DVR      0.480800
     36 H122        1.2050   -1.1960    2.4540 hn        1 DVR      0.480800
     37 HD1         4.0930    6.4740    4.4540 ha        1 DVR      0.151000
     38 HE1         6.4660    6.2480    3.6000 ha        1 DVR      0.140000
     39 HE2         5.2660    2.7490    1.3010 h4        1 DVR      0.203000
     40 HCZ         7.0330    4.3960    2.0200 ha        1 DVR      0.154000
     41 H123        1.0760   -1.9170    3.9570 hn        1 DVR      0.480800
@<TRIPOS>BOND
     1    1    2 1   
     2    1   19 2   
     3    1   20 2   
     4    1   27 1   
     5    2    3 1   
     6    2   28 1   
     7    2   29 1   
     8    3    4 2   
     9    3   10 1   
    10    4    5 1   
    11    4   16 1   
    12    5    6 1   
    13    5   30 1   
    14    6    7 2   
    15    6   23 1   
    16    7    8 1   
    17    7    9 1   
    18    8   15 2   
    19    8   31 1   
    20    9   21 2   
    21    9   32 1   
    22   10   11 2   
    23   10   33 1   
    24   11   12 1   
    25   11   34 1   
    26   12   13 1   
    27   12   14 2   
    28   13   35 1   
    29   13   36 1   
    30   13   41 1   
    31   16   17 1   
    32   16   18 1   
    33   21   22 1   
    34   21   23 1   
    35   22   24 2   
    36   22   37 1   
    37   23   25 1   
    38   24   26 1   
    39   24   38 1   
    40   25   26 2   
    41   25   39 1   
    42   26   40 1   
@<TRIPOS>SUBSTRUCTURE
     1 DVR         1 TEMP              0 ****  ****    0 ROOT
