@<TRIPOS>MOLECULE
DVR
   42    43     1     0     0
SMALL
bcc


@<TRIPOS>ATOM
      1 S1         -0.1150    0.0700    0.9560 s6        1 DVR      1.330000
      2 C2          1.3580    0.7880    0.4170 c3        1 DVR     -0.294400
      3 C3          2.4930    0.2280    1.2040 ce        1 DVR     -0.070200
      4 C4          2.7560    0.5670    2.4870 cf        1 DVR     -0.093200
      5 N5          2.1190    1.6960    3.1860 n4        1 DVR     -0.487600
      6 C6          2.5050    3.0100    2.7140 cc        1 DVR     -0.140100
      7 C7          1.6210    4.0090    2.1790 cd        1 DVR     -0.187200
      8 C8          0.2030    3.8650    1.8940 c         1 DVR      0.628100
      9 C9          2.3740    5.1810    1.9600 cd        1 DVR     -0.138000
     10 C10         3.3820   -0.6180    0.4090 ce        1 DVR     -0.024000
     11 C11         3.6700   -1.9200    0.3940 cf        1 DVR     -0.195200
     12 C12         3.2510   -3.0270    1.2590 c         1 DVR      0.596300
     13 N12         1.8380   -3.0390    1.7740 n4        1 DVR     -0.753400
     14 O12         3.9240   -4.0020    1.5610 o         1 DVR     -0.412100
     15 O8         -0.3240    2.7580    1.7040 o         1 DVR     -0.616100
     16 C4A         3.6140   -0.3190    3.4600 c         1 DVR      0.950800
     17 O4A         3.5160   -1.5530    3.2580 o         1 DVR     -0.760300
     18 O4B         4.2060    0.2810    4.3780 o         1 DVR     -0.760300
     19 O1A        -0.0690   -1.2970    0.6090 o         1 DVR     -0.674800
     20 O1B        -0.2470    0.2950    2.3350 o         1 DVR     -0.674800
     21 CG          3.7150    4.9080    2.3510 cc        1 DVR     -0.023300
     22 CD1         4.8860    5.7150    2.3490 cc        1 DVR     -0.103000
     23 ND2         3.7850    3.5720    2.8210 na        1 DVR      0.102700
     24 CE1         6.0650    5.1930    2.8200 cd        1 DVR     -0.094000
     25 CE2         4.9770    3.0650    3.3040 cc        1 DVR     -0.112300
     26 CZ          6.1060    3.8570    3.3040 cd        1 DVR     -0.114000
     27 HS1        -0.8990    0.6810    0.2650 hs        1 DVR      0.044800
     28 HC21        1.3480    1.9110    0.5080 h1        1 DVR      0.146200
     29 HC22        1.5220    0.6040   -0.6810 h1        1 DVR      0.146200
     30 HN5         1.0810    1.6370    3.1230 hn        1 DVR      0.494800
     31 HC8        -0.3830    4.8100    1.8360 h4        1 DVR      0.054200
     32 HC9         2.0150    6.1300    1.5640 ha        1 DVR      0.187000
     33 H10         3.9050    0.0090   -0.3540 ha        1 DVR      0.168000
     34 H11         4.4170   -2.2840   -0.3470 ha        1 DVR      0.192000
     35 H121        1.1600   -2.8960    1.0150 hn        1 DVR      0.477133
     36 H122        1.7560   -2.2740    2.4660 hn        1 DVR      0.477133
     37 HD1         4.8010    6.7450    1.9710 ha        1 DVR      0.175000
     38 HE1         6.9870    5.7970    2.8340 ha        1 DVR      0.170000
     39 HE2         4.9770    2.0220    3.6880 h4        1 DVR      0.233000
     40 HCZ         7.0500    3.4420    3.6930 ha        1 DVR      0.182000
     41 H52         2.4070    1.6080    4.1850 hn        1 DVR      0.494800
     42 H123        1.6500   -3.9270    2.2500 hn        1 DVR      0.477133
@<TRIPOS>BOND
     1    1    2 1   
     2    1   19 2   
     3    1   20 2   
     4    1   27 1   
     5    2    3 1   
     6    2   28 1   
     7    2   29 1   
     8    3    4 2   
     9    3   10 1   
    10    4    5 1   
    11    4   16 1   
    12    5    6 1   
    13    5   30 1   
    14    5   41 1   
    15    6    7 2   
    16    6   23 1   
    17    7    8 1   
    18    7    9 1   
    19    8   15 2   
    20    8   31 1   
    21    9   21 2   
    22    9   32 1   
    23   10   11 2   
    24   10   33 1   
    25   11   12 1   
    26   11   34 1   
    27   12   13 1   
    28   12   14 2   
    29   13   35 1   
    30   13   36 1   
    31   13   42 1   
    32   16   17 1   
    33   16   18 1   
    34   21   22 1   
    35   21   23 1   
    36   22   24 2   
    37   22   37 1   
    38   23   25 1   
    39   24   26 1   
    40   24   38 1   
    41   25   26 2   
    42   25   39 1   
    43   26   40 1   
@<TRIPOS>SUBSTRUCTURE
     1 DVR         1 TEMP              0 ****  ****    0 ROOT
