@<TRIPOS>MOLECULE
DVR
   40    41     1     0     0
SMALL
bcc


@<TRIPOS>ATOM
      1 S1         -0.4220   -2.4290    2.7410 s6        1 DVR      1.299000
      2 C2         -0.9860   -2.3680    1.1410 c3        1 DVR     -0.225400
      3 C3         -2.0650   -1.3690    0.9490 ce        1 DVR     -0.289200
      4 C4         -3.3940   -1.6150    1.2440 cf        1 DVR      0.148800
      5 N5         -3.8100   -2.7990    1.8180 nh        1 DVR     -0.604800
      6 C6         -5.0940   -3.0340    2.3280 cc        1 DVR      0.135900
      7 C7         -5.4260   -3.4010    3.6700 cd        1 DVR     -0.239200
      8 C8         -4.5110   -3.4220    4.7950 c         1 DVR      0.595100
      9 C9         -6.8150   -3.7270    3.7060 cd        1 DVR     -0.145000
     10 C10        -1.7210   -0.1170    0.3100 ce        1 DVR      0.010000
     11 C11        -0.4880    0.4150    0.2610 cf        1 DVR     -0.305200
     12 C12        -0.1610    1.6820   -0.4240 c         1 DVR      0.677300
     13 N12        -1.1130    2.6710   -0.4910 n         1 DVR     -0.679000
     14 O12         0.9690    1.8910   -0.9270 o         1 DVR     -0.662100
     15 O8         -4.8430   -3.8030    5.9260 o         1 DVR     -0.574100
     16 C4A        -4.4450   -0.5160    0.8930 c         1 DVR      0.910800
     17 O4A        -4.7480    0.2850    1.8030 o         1 DVR     -0.782800
     18 O4B        -4.8660   -0.5190   -0.2940 o         1 DVR     -0.782800
     19 O1A         0.3000   -1.3060    3.1610 o         1 DVR     -0.655800
     20 O1B        -1.4120   -2.9610    3.5950 o         1 DVR     -0.655800
     21 CG         -7.3270   -3.5550    2.4090 cc        1 DVR     -0.078300
     22 CD1        -8.6330   -3.7240    1.8580 cc        1 DVR     -0.114000
     23 ND2        -6.2610   -3.1340    1.5550 na        1 DVR      0.045700
     24 CE1        -8.8440   -3.4870    0.5300 cd        1 DVR     -0.132000
     25 CE2        -6.5060   -2.8700    0.2190 cc        1 DVR     -0.039300
     26 CZ         -7.7640   -3.0520   -0.2980 cd        1 DVR     -0.190000
     27 HS1         0.3980   -3.3340    2.5420 hs        1 DVR     -0.066200
     28 HC21       -0.1520   -2.1240    0.4230 h1        1 DVR      0.113200
     29 HC22       -1.3530   -3.3770    0.8040 h1        1 DVR      0.113200
     30 HN5        -3.1210   -3.3430    2.3040 hn        1 DVR      0.436800
     31 HC8        -3.4700   -3.0740    4.5910 h4        1 DVR      0.036200
     32 HC9        -7.3650   -4.0460    4.5870 ha        1 DVR      0.160000
     33 H10        -2.5790    0.4010   -0.1680 ha        1 DVR      0.158000
     34 H11         0.3890   -0.0540    0.7340 ha        1 DVR      0.142000
     35 H121       -2.0070    2.5470   -0.0890 hn        1 DVR      0.309000
     36 H122       -0.9030    3.5240   -0.9430 hn        1 DVR      0.309000
     37 HD1        -9.4330   -4.0390    2.5410 ha        1 DVR      0.135000
     38 HE1        -9.8380   -3.6100    0.0790 ha        1 DVR      0.123000
     39 HE2        -5.6560   -2.4630   -0.3720 h4        1 DVR      0.222000
     40 HCZ        -7.9460   -2.8380   -1.3590 ha        1 DVR      0.144000
@<TRIPOS>BOND
     1    1    2 1   
     2    1   19 2   
     3    1   20 2   
     4    1   27 1   
     5    2    3 1   
     6    2   28 1   
     7    2   29 1   
     8    3    4 2   
     9    3   10 1   
    10    4    5 1   
    11    4   16 1   
    12    5    6 1   
    13    5   30 1   
    14    6    7 2   
    15    6   23 1   
    16    7    8 1   
    17    7    9 1   
    18    8   15 2   
    19    8   31 1   
    20    9   21 2   
    21    9   32 1   
    22   10   11 2   
    23   10   33 1   
    24   11   12 1   
    25   11   34 1   
    26   12   13 1   
    27   12   14 2   
    28   13   35 1   
    29   13   36 1   
    30   16   17 1   
    31   16   18 1   
    32   21   22 1   
    33   21   23 1   
    34   22   24 2   
    35   22   37 1   
    36   23   25 1   
    37   24   26 1   
    38   24   38 1   
    39   25   26 2   
    40   25   39 1   
    41   26   40 1   
@<TRIPOS>SUBSTRUCTURE
     1 DVR         1 TEMP              0 ****  ****    0 ROOT
