@<TRIPOS>MOLECULE
DVR
   41    42     1     0     0
SMALL
bcc


@<TRIPOS>ATOM
      1 S1          0.1530   -0.2720   -0.0250 s6        1 DVR      1.295000
      2 C2          1.7750   -0.3490   -0.5360 c3        1 DVR     -0.223400
      3 C3          2.6790   -0.4150    0.6400 ce        1 DVR     -0.403200
      4 C4          3.0310    0.6840    1.4060 cf        1 DVR      0.152800
      5 N5          2.4680    1.9130    1.2360 nu        1 DVR     -0.595800
      6 C6          2.5870    2.9870    2.1300 cc        1 DVR      0.055900
      7 C7          1.5300    3.5690    2.9010 cd        1 DVR     -0.200200
      8 C8          0.1500    3.1160    2.9180 c         1 DVR      0.586100
      9 C9          2.0630    4.6800    3.6070 cd        1 DVR     -0.143000
     10 C10         3.4520   -1.6450    0.7210 ce        1 DVR      0.078000
     11 C11         3.3570   -2.6680    1.5840 cf        1 DVR     -0.277200
     12 C12         2.4510   -2.8440    2.7130 c         1 DVR      0.581300
     13 N12         1.7660   -1.6470    3.2610 nz        1 DVR     -0.784400
     14 O12         2.2060   -3.9080    3.2810 o         1 DVR     -0.486100
     15 O8         -0.6810    3.4970    3.7490 o         1 DVR     -0.536100
     16 C4A         4.1630    0.5110    2.4600 c         1 DVR      0.921800
     17 O4A         3.8250    0.1280    3.6200 o         1 DVR     -0.759300
     18 O4B         5.3220    0.7500    2.0700 o         1 DVR     -0.759300
     19 O1A        -0.1070   -1.1680    1.0360 o         1 DVR     -0.667300
     20 O1B        -0.2050    1.0710    0.1910 o         1 DVR     -0.667300
     21 CG          3.4300    4.7850    3.2680 cc        1 DVR     -0.056300
     22 CD1         4.4490    5.7000    3.6650 cc        1 DVR     -0.105000
     23 ND2         3.7490    3.7420    2.3520 na        1 DVR      0.064700
     24 CE1         5.7120    5.5690    3.1580 cd        1 DVR     -0.123000
     25 CE2         5.0370    3.6160    1.8640 cc        1 DVR     -0.064300
     26 CZ          6.0080    4.5110    2.2470 cd        1 DVR     -0.156000
     27 HS1        -0.3730   -0.6900   -1.0450 hs        1 DVR     -0.016200
     28 HC21        2.0400    0.5420   -1.1730 h1        1 DVR      0.121700
     29 HC22        1.9770   -1.2320   -1.2030 h1        1 DVR      0.121700
     30 HN5         1.7690    2.0550    0.5320 hn        1 DVR      0.451800
     31 HC8        -0.1340    2.3970    2.1120 h4        1 DVR      0.013200
     32 HC9         1.5130    5.3300    4.2820 ha        1 DVR      0.173000
     33 H10         4.2030   -1.7430   -0.0930 ha        1 DVR      0.144000
     34 H11         4.0320   -3.5400    1.4720 ha        1 DVR      0.176000
     35 H121        1.2230   -1.1920    2.5180 hn        1 DVR      0.480800
     36 H122        1.1460   -1.9060    4.0280 hn        1 DVR      0.480800
     37 HD1         4.1740    6.4890    4.3800 ha        1 DVR      0.151000
     38 HE1         6.5160    6.2600    3.4450 ha        1 DVR      0.140000
     39 HE2         5.2390    2.7480    1.2060 h4        1 DVR      0.203000
     40 HCZ         7.0280    4.3990    1.8550 ha        1 DVR      0.154000
     41 H123        2.4990   -0.9490    3.6030 hn        1 DVR      0.480800
@<TRIPOS>BOND
     1    1    2 1   
     2    1   19 2   
     3    1   20 2   
     4    1   27 1   
     5    2    3 1   
     6    2   28 1   
     7    2   29 1   
     8    3    4 2   
     9    3   10 1   
    10    4    5 1   
    11    4   16 1   
    12    5    6 1   
    13    5   30 1   
    14    6    7 2   
    15    6   23 1   
    16    7    8 1   
    17    7    9 1   
    18    8   15 2   
    19    8   31 1   
    20    9   21 2   
    21    9   32 1   
    22   10   11 2   
    23   10   33 1   
    24   11   12 1   
    25   11   34 1   
    26   12   13 1   
    27   12   14 2   
    28   13   35 1   
    29   13   36 1   
    30   13   41 1   
    31   16   17 1   
    32   16   18 1   
    33   21   22 1   
    34   21   23 1   
    35   22   24 2   
    36   22   37 1   
    37   23   25 1   
    38   24   26 1   
    39   24   38 1   
    40   25   26 2   
    41   25   39 1   
    42   26   40 1   
@<TRIPOS>SUBSTRUCTURE
     1 DVR         1 TEMP              0 ****  ****    0 ROOT
