@<TRIPOS>MOLECULE
DW0
   49    48     1     0     0
SMALL
bcc


@<TRIPOS>ATOM
      1 N1         -0.0060   -1.2700   -0.3470 n         1 DW0     -0.195000
      2 C2          1.0730   -0.3090   -0.1300 c2        1 DW0      0.338000
      3 O2          1.9380   -0.1520   -0.9960 o         1 DW0     -0.232000
      4 N3          1.1270    0.4800    1.0980 n         1 DW0     -0.154000
      5 C4          0.4460   -0.0850    2.1960 c2        1 DW0      0.179000
      6 C5         -0.3770   -1.2170    2.0510 c2        1 DW0     -0.424000
      7 C6         -0.6480   -1.8890    0.8010 c2        1 DW0      0.423000
      8 O6         -1.3580   -2.8930    0.6910 o         1 DW0     -0.270000
      9 N7         -0.9170   -1.5550    3.3650 nx        1 DW0     -0.004000
     10 C8         -0.2740   -0.4280    4.2710 c1        1 DW0      0.019000
     11 N9          0.4800    0.3670    3.5390 n2        1 DW0     -0.286000
     12 N10        -1.9060   -2.3130   -3.9140 n         1 DW0     -0.301000
     13 CA0        -1.1030   -1.1000   -3.8710 c3        1 DW0     -0.003000
     14 CAA        -2.3850   -1.5210    3.4380 c3        1 DW0     -0.156000
     15 CAC         1.7800    1.6420    1.0820 c1        1 DW0     -0.008000
     16 CAJ        -4.5980   -5.6580   -2.0940 c1        1 DW0      0.176000
     17 CAK        -0.4460   -1.6070   -1.5530 c1        1 DW0     -0.029000
     18 CAL         0.0420   -1.1180   -2.8510 c3        1 DW0     -0.236000
     19 NAN        -3.7010   -6.0060   -3.0840 nu        1 DW0     -0.258000
     20 CAP        -3.0210   -2.4030   -3.0370 c2        1 DW0      0.414000
     21 CAR        -1.2970   -3.4450   -4.5080 c2        1 DW0      0.413000
     22 CAT        -3.0160   -4.8470   -3.5440 c2        1 DW0      0.013000
     23 CAV        -3.5210   -3.7600   -2.8310 c2        1 DW0     -0.224000
     24 NAX        -4.5100   -4.2430   -1.9020 nh        1 DW0     -0.129000
     25 NAZ        -2.0070   -4.7310   -4.5310 n         1 DW0     -0.137000
     26 H8         -0.5700   -2.4660    3.6650 hn        1 DW0      0.241000
     27 HA0        -0.6570   -0.9430   -4.8960 h1        1 DW0      0.126500
     28 HA0A       -1.8010   -0.2470   -3.6380 h1        1 DW0      0.126500
     29 HAA        -2.8190   -2.2610    2.7100 hx        1 DW0      0.126333
     30 HAAA       -2.6910   -1.7750    4.4870 hx        1 DW0      0.126333
     31 HAAB       -2.7480   -0.4910    3.1850 hx        1 DW0      0.126333
     32 HAB        -5.0210   -2.4720   -0.9680 ha        1 DW0      0.069000
     33 HABA       -3.7360   -3.8320    0.9720 ha        1 DW0      0.004250
     34 HABB       -3.7590   -3.1550    0.9330 ha        1 DW0      0.004250
     35 HAC         1.8160    2.2020    2.0410 ha        1 DW0      0.089000
     36 HACA        4.0690    1.1900    1.6750 ha        1 DW0      0.004250
     37 HACB        4.0930    1.2140    0.9960 ha        1 DW0      0.004250
     38 HAD        -2.2100   -6.5990   -5.3880 ha        1 DW0      0.045000
     39 HADA        0.7600   -5.6590   -5.0060 ha        1 DW0      0.004250
     40 HADB        0.6250   -6.2580   -4.7140 ha        1 DW0      0.004250
     41 HAJ        -3.5400   -6.9220   -3.4210 hn        1 DW0      0.272000
     42 HAK         0.5110   -0.0950   -2.8350 hc        1 DW0      0.140500
     43 HAKA        0.8420   -1.8420   -3.1930 hc        1 DW0      0.140500
     44 HAL         2.0610   -3.8860   -4.4430 ha        1 DW0      0.004250
     45 HALA        2.1960   -3.2360   -4.3060 ha        1 DW0      0.004250
     46 CAB        -5.2030   -3.5710   -0.9920 c1        1 DW0      0.005000
     47 CAD        -1.6700   -5.6280   -5.4430 c1        1 DW0     -0.019000
     48 OAF        -3.5300   -1.3890   -2.5390 o         1 DW0     -0.308000
     49 OAH        -0.1780   -3.3700   -5.0340 o         1 DW0     -0.270000
@<TRIPOS>BOND
     1    1    2 1   
     2    1    7 1   
     3    1   17 1   
     4    2    3 1   
     5    2    4 1   
     6    4    5 1   
     7    4   15 1   
     8    5    6 1   
     9    5   11 1   
    10    6    7 1   
    11    6    9 1   
    12    7    8 1   
    13    9   10 1   
    14    9   14 1   
    15    9   26 1   
    16   10   11 1   
    17   12   13 1   
    18   12   20 1   
    19   12   21 1   
    20   13   18 1   
    21   13   27 1   
    22   13   28 1   
    23   14   29 1   
    24   14   30 1   
    25   14   31 1   
    26   15   35 1   
    27   16   19 1   
    28   16   24 1   
    29   17   18 1   
    30   18   42 1   
    31   18   43 1   
    32   19   22 1   
    33   19   41 1   
    34   20   23 1   
    35   20   48 1   
    36   21   25 1   
    37   21   49 1   
    38   22   23 1   
    39   22   25 1   
    40   23   24 1   
    41   24   46 1   
    42   25   47 1   
    43   32   46 1   
    44   33   34 1   
    45   36   37 1   
    46   38   47 1   
    47   39   40 1   
    48   44   45 1   
@<TRIPOS>SUBSTRUCTURE
     1 DW0         1 TEMP              0 ****  ****    0 ROOT
