@<TRIPOS>MOLECULE
DW0
   49    52     1     0     0
SMALL
bcc


@<TRIPOS>ATOM
      1 N1          2.4870   -0.3920   -0.7400 n         1 DW0     -0.481900
      2 C2          2.8860   -1.4250    0.1490 c         1 DW0      0.816000
      3 O2          2.2050   -2.4700    0.2420 o         1 DW0     -0.634500
      4 N3          4.0630   -1.2930    0.9270 n         1 DW0     -0.418300
      5 C4          4.7980   -0.1230    0.8200 cc        1 DW0      0.485700
      6 C5          4.3850    0.9210   -0.0700 cd        1 DW0     -0.350200
      7 C6          3.1930    0.8210   -0.8930 c         1 DW0      0.764100
      8 O6          2.8050    1.7000   -1.6840 o         1 DW0     -0.628500
      9 N7          5.3320    1.9430    0.0590 na        1 DW0     -0.148900
     10 C8          6.2580    1.4920    0.9980 cd        1 DW0      0.442400
     11 N9          5.9770    0.2520    1.4840 nc        1 DW0     -0.685000
     12 N10        -2.5050   -0.4310   -0.9030 n         1 DW0     -0.481900
     13 CA0        -1.2220   -0.4920   -1.5850 c3        1 DW0      0.098500
     14 CAA         5.3420    3.1920   -0.6320 c3        1 DW0      0.009600
     15 CAC         4.4760   -2.3370    1.8280 c3        1 DW0      0.090300
     16 CAJ        -6.1250    1.1450    1.3780 cc        1 DW0      0.442400
     17 CAK         1.2530   -0.5980   -1.4800 c3        1 DW0      0.098500
     18 CAL        -0.0160   -0.4080   -0.6480 c3        1 DW0     -0.123400
     19 NAN        -6.1210   -0.2030    1.1970 nd        1 DW0     -0.685000
     20 CAP        -2.9700    0.8250   -0.4540 c         1 DW0      0.764100
     21 CAR        -3.1920   -1.6520   -0.6690 c         1 DW0      0.816000
     22 CAT        -4.9360   -0.4560    0.4870 cd        1 DW0      0.485700
     23 CAV        -4.2370    0.7720    0.2510 cc        1 DW0     -0.350200
     24 NAX        -5.0140    1.7820    0.8290 na        1 DW0     -0.148900
     25 NAZ        -4.4230   -1.6610    0.0330 n         1 DW0     -0.418300
     26 H8          7.1250    2.0900    1.3050 h5        1 DW0      0.070100
     27 HA0        -1.1740   -1.4540   -2.1720 h1        1 DW0      0.078950
     28 HA0A       -1.1850    0.3780   -2.3040 h1        1 DW0      0.078950
     29 HAA         5.3040    4.0350    0.1090 h1        1 DW0      0.071033
     30 HAAA        6.2820    3.2800   -1.2420 h1        1 DW0      0.071033
     31 HAAB        4.4480    3.2510   -1.3130 h1        1 DW0      0.071033
     32 HAB        -4.6610    3.5420    1.9060 h1        1 DW0      0.071033
     33 HABA       -3.7420    3.3650    0.3270 h1        1 DW0      0.071033
     34 HABB       -5.5380    3.7420    0.3120 h1        1 DW0      0.071033
     35 HAC         3.7690   -3.2060    1.7500 h1        1 DW0      0.063367
     36 HACA        5.5140   -2.6710    1.5600 h1        1 DW0      0.063367
     37 HACB        4.4770   -1.9470    2.8810 h1        1 DW0      0.063367
     38 HAD        -4.5470   -3.7530   -0.1550 h1        1 DW0      0.063367
     39 HADA       -5.2410   -3.0420    1.3880 h1        1 DW0      0.063367
     40 HADB       -6.1420   -2.8460   -0.1910 h1        1 DW0      0.063367
     41 HAJ        -6.9180    1.6920    1.9030 h5        1 DW0      0.070100
     42 HAK         1.2480    0.1280   -2.3440 h1        1 DW0      0.078950
     43 HAKA        1.2660   -1.6510   -1.8860 h1        1 DW0      0.078950
     44 HAL        -0.0100    0.5900   -0.1370 hc        1 DW0      0.069700
     45 HALA       -0.0680   -1.2070    0.1380 hc        1 DW0      0.069700
     46 CAB        -4.7240    3.1800    0.8450 c3        1 DW0      0.009600
     47 CAD        -5.1240   -2.8940    0.2810 c3        1 DW0      0.090300
     48 OAF        -2.3220    1.8650   -0.6740 o         1 DW0     -0.628500
     49 OAH        -2.7270   -2.7310   -1.0970 o         1 DW0     -0.634500
@<TRIPOS>BOND
     1    1    2 1   
     2    1    7 1   
     3    1   17 1   
     4    2    3 2   
     5    2    4 1   
     6    4    5 1   
     7    4   15 1   
     8    5    6 2   
     9    5   11 1   
    10    6    7 1   
    11    6    9 1   
    12    7    8 2   
    13    9   10 1   
    14    9   14 1   
    15   10   11 2   
    16   10   26 1   
    17   12   13 1   
    18   12   20 1   
    19   12   21 1   
    20   13   18 1   
    21   13   27 1   
    22   13   28 1   
    23   14   29 1   
    24   14   30 1   
    25   14   31 1   
    26   15   35 1   
    27   15   36 1   
    28   15   37 1   
    29   16   19 2   
    30   16   24 1   
    31   16   41 1   
    32   17   18 1   
    33   17   42 1   
    34   17   43 1   
    35   18   44 1   
    36   18   45 1   
    37   19   22 1   
    38   20   23 1   
    39   20   48 2   
    40   21   25 1   
    41   21   49 2   
    42   22   23 2   
    43   22   25 1   
    44   23   24 1   
    45   24   46 1   
    46   25   47 1   
    47   32   46 1   
    48   33   46 1   
    49   34   46 1   
    50   38   47 1   
    51   39   47 1   
    52   40   47 1   
@<TRIPOS>SUBSTRUCTURE
     1 DW0         1 TEMP              0 ****  ****    0 ROOT
