@<TRIPOS>MOLECULE
DW0
   49    47     1     0     0
SMALL
bcc


@<TRIPOS>ATOM
      1 N1          0.9760    1.6030    1.9170 n         1 DW0     -0.310000
      2 C2          2.1000    1.6480    2.8160 c2        1 DW0      0.408000
      3 O2          3.2370    1.7180    2.3700 o         1 DW0     -0.359000
      4 N3          1.8940    1.4730    4.2530 n         1 DW0     -0.234000
      5 C4          0.5480    1.1740    4.7740 c2        1 DW0      0.078000
      6 C5         -0.5160    1.0600    3.9110 c1        1 DW0     -0.240000
      7 C6         -0.3210    1.3410    2.4230 c1        1 DW0      0.400000
      8 O6         -1.2840    1.4420    1.6950 o         1 DW0     -0.353000
      9 N7         -1.6100    0.7880    4.6400 n2        1 DW0     -0.104000
     10 C8         -1.2440    0.7300    5.9420 c1        1 DW0     -0.046000
     11 N9          0.0940    0.9700    6.0150 n2        1 DW0     -0.159000
     12 N10         0.7410   -0.1290   -2.5770 n         1 DW0     -0.311000
     13 CA0         1.2730    1.0080   -1.8230 c3        1 DW0     -0.017000
     14 CAA        -3.0310    0.5580    4.5760 c2        1 DW0     -0.089000
     15 CAB        -3.7620   -1.1930   -4.1900 c3        1 DW0     -0.089000
     16 CAC         3.0300    1.6000    5.1750 c3        1 DW0     -0.065000
     17 CAD         2.0060   -3.0080   -4.6290 c3        1 DW0     -0.065000
     18 OAF        -1.3710    0.7210   -2.5350 o         1 DW0     -0.353000
     19 OAH         2.8180   -1.0340   -2.8740 o         1 DW0     -0.359000
     20 CAJ        -2.3360   -2.6750   -5.0480 c1        1 DW0     -0.046000
     21 CAK         1.1500    1.9370    0.5200 c3        1 DW0     -0.018000
     22 CAL         1.2850    0.6590   -0.2900 c3        1 DW0     -0.202000
     23 NAN        -1.0340   -3.0640   -5.0910 n2        1 DW0     -0.159000
     24 CAP        -0.6370   -0.1870   -2.8800 c2        1 DW0      0.402000
     25 CAR         1.6310   -1.0740   -3.1480 c2        1 DW0      0.405000
     26 CAT        -0.3130   -2.2070   -4.3180 c1        1 DW0      0.077000
     27 CAV        -1.1680   -1.2860   -3.7960 c2        1 DW0     -0.240000
     28 NAX        -2.4190   -1.5750   -4.2470 n3        1 DW0     -0.104000
     29 NAZ         1.1170   -2.1440   -4.0000 n2        1 DW0     -0.234000
     30 H8         -1.8220    0.4460    6.6940 DU        1 DW0      0.207000
     31 HA0         2.1880    1.1970   -2.1230 h1        1 DW0      0.118000
     32 HA0A        0.6820    1.8330   -1.9810 h1        1 DW0      0.118000
     33 HAA        -3.3620    0.7440    3.6450 ha        1 DW0      0.110333
     34 HAAA       -3.4980    1.1670    5.2270 ha        1 DW0      0.110333
     35 HAAB       -3.2160   -0.3580    4.8040 ha        1 DW0      0.110333
     36 HAB        -4.2560   -1.8520   -3.7470 h1        1 DW0      0.110333
     37 HABA       -4.0990   -1.0840   -5.0750 h1        1 DW0      0.110333
     38 HABB       -3.8400   -0.3480   -3.7060 h1        1 DW0      0.110333
     39 HAC         3.4740    2.4280    5.0200 h1        1 DW0      0.102667
     40 HACA        2.6970    1.5700    6.1260 h1        1 DW0      0.102667
     41 HACB        3.6490    0.8700    5.0280 h1        1 DW0      0.102667
     42 HAD         2.5120   -3.4810   -3.9680 h1        1 DW0      0.102667
     43 HADA        2.6210   -2.4860   -5.2050 h1        1 DW0      0.102667
     44 HADB        1.5000   -3.6540   -5.1850 h1        1 DW0      0.102667
     45 HAJ        -3.0680   -3.0440   -5.6050 DU        1 DW0      0.207000
     46 HAK         0.3670    2.4390    0.2050 h1        1 DW0      0.118500
     47 HAKA        1.9550    2.4840    0.4090 h1        1 DW0      0.118500
     48 HAL         0.5310    0.0630   -0.0830 hc        1 DW0      0.109000
     49 HALA        2.1290    0.2110   -0.0600 hc        1 DW0      0.109000
@<TRIPOS>BOND
     1    1    2 1   
     2    1    7 1   
     3    1   21 1   
     4    2    3 1   
     5    2    4 1   
     6    4    5 1   
     7    4   16 1   
     8    5    6 1   
     9    5   11 1   
    10    6    9 1   
    11    7    8 1   
    12    9   10 1   
    13   10   11 1   
    14   12   13 1   
    15   12   24 1   
    16   12   25 1   
    17   13   22 1   
    18   13   31 1   
    19   13   32 1   
    20   14   33 1   
    21   14   34 1   
    22   14   35 1   
    23   15   28 1   
    24   15   36 1   
    25   15   37 1   
    26   15   38 1   
    27   16   39 1   
    28   16   40 1   
    29   16   41 1   
    30   17   29 1   
    31   17   42 1   
    32   17   43 1   
    33   17   44 1   
    34   18   24 1   
    35   19   25 1   
    36   20   23 1   
    37   20   28 1   
    38   21   22 1   
    39   21   46 1   
    40   21   47 1   
    41   22   48 1   
    42   22   49 1   
    43   23   26 1   
    44   24   27 1   
    45   25   29 1   
    46   26   27 1   
    47   27   28 1   
@<TRIPOS>SUBSTRUCTURE
     1 DW0         1 TEMP              0 ****  ****    0 ROOT
