@<TRIPOS>MOLECULE
DW0
   49    49     1     0     0
SMALL
bcc


@<TRIPOS>ATOM
      1 N1         -0.1570   -0.1200    0.0220 n         1 DW0     -0.317000
      2 C2          1.1930    0.3000   -0.0570 c2        1 DW0      0.392000
      3 O2          1.7090    0.6260   -1.1490 o         1 DW0     -0.367000
      4 N3          1.9940    0.3810    1.1100 n         1 DW0     -0.308000
      5 C4          1.4480    0.0420    2.3060 c2        1 DW0      0.238000
      6 C5          0.0940   -0.3930    2.3940 c2        1 DW0     -0.482000
      7 C6         -0.7660   -0.4980    1.2480 c2        1 DW0      0.405000
      8 O6         -1.9540   -0.8770    1.2770 o         1 DW0     -0.377000
      9 N7         -0.1990   -0.6920    3.7860 n4        1 DW0      0.018000
     10 C8          1.1850   -0.3610    4.4790 c1        1 DW0     -0.027000
     11 N9          2.0650    0.0450    3.5960 n2        1 DW0     -0.300000
     12 N10        -2.1530   -2.8860   -3.6280 n         1 DW0     -0.322000
     13 CA0        -1.7980   -1.5830   -3.0780 c3        1 DW0     -0.022000
     14 CAA        -1.2860    0.1140    4.3560 c3        1 DW0     -0.148000
     15 CAC         4.5750    1.1590    1.0050 c1        1 DW0      0.006000
     16 CAJ        -4.5700   -6.7550   -4.5790 c1        1 DW0      0.180000
     17 CAK        -0.9280   -0.2160   -1.2020 c3        1 DW0     -0.015000
     18 CAL        -1.0860   -1.6450   -1.7270 c3        1 DW0     -0.204000
     19 NAN        -3.2480   -6.6940   -4.9730 nh        1 DW0     -0.261000
     20 CAP        -3.4780   -3.3560   -3.4770 c2        1 DW0      0.394000
     21 CAR        -1.1020   -3.6440   -4.1940 c2        1 DW0      0.412000
     22 CAT        -2.6920   -5.4340   -4.6120 c2        1 DW0      0.018000
     23 CAV        -3.7020   -4.7070   -3.9830 c2        1 DW0     -0.240000
     24 NAX        -4.8960   -5.5130   -3.9490 nh        1 DW0     -0.133000
     25 NAZ        -1.3830   -4.9390   -4.8300 n         1 DW0     -0.143000
     26 H8         -0.4020   -1.6840    3.8990 hn        1 DW0      0.230000
     27 HA0        -1.1250   -1.0680   -3.8240 h1        1 DW0      0.122500
     28 HA0A       -2.7520   -0.9890   -2.9750 h1        1 DW0      0.122500
     29 HAA        -2.2290   -0.0590    3.7720 hx        1 DW0      0.117667
     30 HAAA       -1.4250   -0.1840    5.4280 hx        1 DW0      0.117667
     31 HAAB       -1.0100    1.1990    4.3050 hx        1 DW0      0.117667
     32 HAB        -6.2010   -4.2150   -3.0030 ha        1 DW0      0.075000
     33 HABA       -6.0370   -5.7960   -1.0900 ha        1 DW0      0.005000
     34 HABB       -6.4300   -6.2820   -1.3560 ha        1 DW0      0.005000
     35 HAC         5.3990    0.4440    0.8950 ha        1 DW0      0.063500
     36 HACA        3.0210    0.7030    1.0150 hn        1 DW0      0.346000
     37 HACB        4.8870    2.2020    1.1310 ha        1 DW0      0.063500
     38 HAD        -0.7020   -6.4890   -6.0190 ha        1 DW0      0.043000
     39 HADA        1.2540   -6.4750   -4.1810 ha        1 DW0      0.005000
     40 HADB        0.8300   -6.9990   -4.1030 ha        1 DW0      0.005000
     41 HAJ        -2.7510   -7.4140   -5.4350 hn        1 DW0      0.273000
     42 HAK        -1.9530    0.2050   -0.9870 h1        1 DW0      0.116500
     43 HAKA       -0.4280    0.4190   -1.9900 h1        1 DW0      0.116500
     44 HAL        -0.0840   -2.1330   -1.8540 hc        1 DW0      0.110500
     45 HALA       -1.6810   -2.2450   -0.9900 hc        1 DW0      0.110500
     46 CAB        -6.0950   -5.2270   -3.4570 c1        1 DW0      0.008000
     47 CAD        -0.4350   -5.5110   -5.5590 c1        1 DW0     -0.013000
     48 OAF        -4.3590   -2.6500   -2.9650 o         1 DW0     -0.304000
     49 OAH         0.0620   -3.2260   -4.1760 o         1 DW0     -0.253000
@<TRIPOS>BOND
     1    1    2 1   
     2    1    7 1   
     3    1   17 1   
     4    2    3 1   
     5    2    4 1   
     6    4    5 1   
     7    4   36 1   
     8    5    6 1   
     9    5   11 1   
    10    6    7 1   
    11    6    9 1   
    12    7    8 1   
    13    9   10 1   
    14    9   14 1   
    15    9   26 1   
    16   10   11 1   
    17   12   13 1   
    18   12   20 1   
    19   12   21 1   
    20   13   18 1   
    21   13   27 1   
    22   13   28 1   
    23   14   29 1   
    24   14   30 1   
    25   14   31 1   
    26   15   35 1   
    27   15   37 1   
    28   16   19 1   
    29   16   24 1   
    30   17   18 1   
    31   17   42 1   
    32   17   43 1   
    33   18   44 1   
    34   18   45 1   
    35   19   22 1   
    36   19   41 1   
    37   20   23 1   
    38   20   48 1   
    39   21   25 1   
    40   21   49 1   
    41   22   23 1   
    42   22   25 1   
    43   23   24 1   
    44   24   46 1   
    45   25   47 1   
    46   32   46 1   
    47   33   34 1   
    48   38   47 1   
    49   39   40 1   
@<TRIPOS>SUBSTRUCTURE
     1 DW0         1 TEMP              0 ****  ****    0 ROOT
