@<TRIPOS>MOLECULE
DW0
   49    48     1     0     0
SMALL
bcc


@<TRIPOS>ATOM
      1 N1         -1.3660    1.2780    0.6050 n         1 DW0     -0.212000
      2 C2         -0.7400   -0.0110    0.3030 c2        1 DW0      0.335000
      3 O2         -1.0520   -0.5910   -0.7420 o         1 DW0     -0.247000
      4 N3          0.2420   -0.6100    1.1960 n         1 DW0     -0.148000
      5 C4          0.2780   -0.0730    2.5000 c2        1 DW0      0.175000
      6 C5         -0.4810    1.0540    2.8580 c2        1 DW0     -0.418000
      7 C6         -1.3430    1.7930    1.9620 c2        1 DW0      0.413000
      8 O6         -2.0090    2.7760    2.2970 o         1 DW0     -0.256000
      9 N7         -0.2310    1.3390    4.2690 n4        1 DW0     -0.005000
     10 C8          0.7990    0.1980    4.6440 c1        1 DW0      0.021000
     11 N9          1.0400   -0.5580    3.5930 n2        1 DW0     -0.286000
     12 N10        -1.5010   -3.8130   -3.4760 n         1 DW0     -0.319000
     13 CA0        -0.7890   -2.9980   -2.4930 c3        1 DW0     -0.020000
     14 CAA         0.3370    2.6710    4.5220 c3        1 DW0     -0.152000
     15 CAC         1.0200   -1.5880    0.7300 c1        1 DW0     -0.017000
     16 CAJ        -4.2150   -7.1190   -5.3290 c1        1 DW0      0.180000
     17 CAK        -1.9740    1.9820   -0.3370 c1        1 DW0     -0.013000
     18 CAL         0.6100   -3.4820   -2.1560 c3        1 DW0     -0.250000
     19 NAN        -3.4850   -6.3160   -6.1810 nh        1 DW0     -0.261000
     20 CAP        -2.4110   -4.7920   -3.0240 c2        1 DW0      0.393000
     21 CAR        -1.1350   -3.6360   -4.8280 c2        1 DW0      0.410000
     22 CAT        -2.7360   -5.3650   -5.4310 c2        1 DW0      0.014000
     23 CAV        -3.0170   -5.5930   -4.0850 c2        1 DW0     -0.240000
     24 NAX        -3.9460   -6.6920   -3.9890 nh        1 DW0     -0.128000
     25 NAZ        -1.8630   -4.3490   -5.8920 n         1 DW0     -0.136000
     26 H8         -1.0860    1.2120    4.8110 hn        1 DW0      0.243000
     27 HA0        -0.7300   -1.9460   -2.8960 h1        1 DW0      0.123500
     28 HA0A       -1.4150   -2.9770   -1.5530 h1        1 DW0      0.123500
     29 HAA        -0.3740    3.4610    4.1590 hx        1 DW0      0.125667
     30 HAAA        0.5110    2.7750    5.6250 hx        1 DW0      0.125667
     31 HAAB        1.3140    2.7690    3.9810 hx        1 DW0      0.125667
     32 HAB        -4.1840   -6.8090   -1.9360 ha        1 DW0      0.077000
     33 HABA       -3.3600   -6.1270    0.1960 ha        1 DW0      0.003167
     34 HABB       -3.8890   -5.7060    0.1530 ha        1 DW0      0.003167
     35 HAC         1.7440   -2.0310    1.4460 ha        1 DW0      0.094000
     36 HACA       -0.1920   -3.6290    1.1010 ha        1 DW0      0.003167
     37 HACB       -0.2400   -3.5830    0.4240 ha        1 DW0      0.003167
     38 HAD        -2.2560   -4.5490   -7.9130 ha        1 DW0      0.043000
     39 HADA        2.2360   -2.9710   -5.1730 ha        1 DW0      0.003167
     40 HADB        2.1430   -2.3180   -5.0200 ha        1 DW0      0.003167
     41 HAJ        -3.4730   -6.3850   -7.1680 hn        1 DW0      0.273000
     42 HAK        -1.9890    1.5610   -1.3640 ha        1 DW0      0.087000
     43 HAKA        1.0200   -2.8010   -1.3630 hc        1 DW0      0.097333
     44 HAL         1.2730   -3.4390   -3.0540 hc        1 DW0      0.097333
     45 HALA        0.5970   -4.5240   -1.7590 hc        1 DW0      0.097333
     46 CAB        -4.4860   -7.2470   -2.9150 c1        1 DW0      0.001000
     47 CAD        -1.6820   -3.9800   -7.1490 c1        1 DW0     -0.019000
     48 OAF        -2.6680   -4.9350   -1.8190 o         1 DW0     -0.313000
     49 OAH        -0.2100   -2.8770   -5.1460 o         1 DW0     -0.252000
@<TRIPOS>BOND
     1    1    2 1   
     2    1    7 1   
     3    1   17 1   
     4    2    3 1   
     5    2    4 1   
     6    4    5 1   
     7    4   15 1   
     8    5    6 1   
     9    5   11 1   
    10    6    7 1   
    11    6    9 1   
    12    7    8 1   
    13    9   10 1   
    14    9   14 1   
    15    9   26 1   
    16   10   11 1   
    17   12   13 1   
    18   12   20 1   
    19   12   21 1   
    20   13   18 1   
    21   13   27 1   
    22   13   28 1   
    23   14   29 1   
    24   14   30 1   
    25   14   31 1   
    26   15   35 1   
    27   16   19 1   
    28   16   24 1   
    29   17   42 1   
    30   18   43 1   
    31   18   44 1   
    32   18   45 1   
    33   19   22 1   
    34   19   41 1   
    35   20   23 1   
    36   20   48 1   
    37   21   25 1   
    38   21   49 1   
    39   22   23 1   
    40   22   25 1   
    41   23   24 1   
    42   24   46 1   
    43   25   47 1   
    44   32   46 1   
    45   33   34 1   
    46   36   37 1   
    47   38   47 1   
    48   39   40 1   
@<TRIPOS>SUBSTRUCTURE
     1 DW0         1 TEMP              0 ****  ****    0 ROOT
