@<TRIPOS>MOLECULE
DWA
   46    49     1     0     0
SMALL
bcc


@<TRIPOS>ATOM
      1 C15         0.1980   -0.1440   -0.4180 c3        1 DWA      0.108700
      2 O14         1.5650    0.2100   -0.2160 os        1 DWA     -0.313900
      3 C2          2.0340    0.1430    1.0730 ca        1 DWA      0.159100
      4 C3          3.4020    0.4490    1.2240 ca        1 DWA     -0.177500
      5 C4          3.9710    0.4220    2.4880 ca        1 DWA     -0.074500
      6 C1          1.2610   -0.2000    2.1890 ca        1 DWA     -0.177500
      7 C6          1.8510   -0.2240    3.4520 ca        1 DWA     -0.074500
      8 C5          3.2000    0.1050    3.6180 ca        1 DWA     -0.156300
      9 C7          3.8480    0.0540    4.9800 c3        1 DWA      0.236800
     10 C19         5.0040    1.1320    5.1210 c3        1 DWA      0.102400
     11 O18         4.6490    1.9410    6.2850 os        1 DWA     -0.437400
     12 C17         3.4090    1.4440    6.7080 c2        1 DWA      0.602500
     13 N16         2.8830    0.4440    6.0590 n2        1 DWA     -0.508900
     14 N20         2.8800    2.1530    7.8720 n4        1 DWA     -0.766600
     15 C8          4.4180   -1.3300    5.2210 ca        1 DWA     -0.106300
     16 C13         3.8110   -2.2400    6.0880 ca        1 DWA     -0.094000
     17 C9          5.5820   -1.7030    4.5340 ca        1 DWA     -0.114000
     18 C10         6.1460   -2.9580    4.7450 ca        1 DWA     -0.115000
     19 C11         5.5620   -3.8520    5.6420 ca        1 DWA     -0.095000
     20 C12         4.3890   -3.4970    6.3220 cp        1 DWA     -0.024000
     21 C21         3.7720   -4.4270    7.2600 cp        1 DWA     -0.184300
     22 C26         3.6740   -5.7940    6.9550 ca        1 DWA     -0.058000
     23 C25         3.0840   -6.6680    7.8630 ca        1 DWA     -0.249300
     24 C24         2.5950   -6.1480    9.0780 ca        1 DWA      0.434200
     25 N23         2.6650   -4.8510    9.4170 nb        1 DWA     -0.681000
     26 C22         3.2480   -4.0070    8.5170 ca        1 DWA      0.612500
     27 F27         3.3150   -2.7020    8.8880 f         1 DWA     -0.241200
     28 H1          0.0140   -1.2000   -0.1020 h1        1 DWA      0.055033
     29 H2          0.0670   -0.0320   -1.5250 h1        1 DWA      0.055033
     30 H3         -0.4730    0.5570    0.1330 h1        1 DWA      0.055033
     31 H4          4.0010    0.6980    0.3350 ha        1 DWA      0.159000
     32 H5          5.0480    0.6330    2.5820 ha        1 DWA      0.137500
     33 H6          0.1980   -0.4590    2.0830 ha        1 DWA      0.159000
     34 H7          1.2310   -0.5230    4.3110 ha        1 DWA      0.137500
     35 H8          5.0490    1.8440    4.2620 h1        1 DWA      0.107200
     36 H9          5.9970    0.6770    5.3560 h1        1 DWA      0.107200
     37 H10         1.8800    1.9400    7.9950 hn        1 DWA      0.490800
     38 H11         3.4080    1.8490    8.7030 hn        1 DWA      0.490800
     39 H12         2.8670   -2.0030    6.6040 ha        1 DWA      0.148000
     40 H13         6.0450   -1.0120    3.8120 ha        1 DWA      0.136000
     41 H14         7.0590   -3.2460    4.2000 ha        1 DWA      0.153000
     42 H15         6.0250   -4.8360    5.8180 ha        1 DWA      0.151000
     43 H16         4.0620   -6.1650    5.9930 ha        1 DWA      0.154000
     44 H17         2.9960   -7.7410    7.6450 ha        1 DWA      0.163000
     45 H18         2.1170   -6.8050    9.8290 h4        1 DWA      0.043100
     46 H203        3.0160    3.1630    7.7290 hn        1 DWA      0.490800
@<TRIPOS>BOND
     1    1    2 1   
     2    1   28 1   
     3    1   29 1   
     4    1   30 1   
     5    2    3 1   
     6    3    4 ar  
     7    3    6 ar  
     8    4    5 ar  
     9    4   31 1   
    10    5    8 ar  
    11    5   32 1   
    12    6    7 ar  
    13    6   33 1   
    14    7    8 ar  
    15    7   34 1   
    16    8    9 1   
    17    9   10 1   
    18    9   13 1   
    19    9   15 1   
    20   10   11 1   
    21   10   35 1   
    22   10   36 1   
    23   11   12 1   
    24   12   13 2   
    25   12   14 1   
    26   14   37 1   
    27   14   38 1   
    28   14   46 1   
    29   15   16 ar  
    30   15   17 ar  
    31   16   20 ar  
    32   16   39 1   
    33   17   18 ar  
    34   17   40 1   
    35   18   19 ar  
    36   18   41 1   
    37   19   20 ar  
    38   19   42 1   
    39   20   21 1   
    40   21   22 ar  
    41   21   26 ar  
    42   22   23 ar  
    43   22   43 1   
    44   23   24 ar  
    45   23   44 1   
    46   24   25 ar  
    47   24   45 1   
    48   25   26 ar  
    49   26   27 1   
@<TRIPOS>SUBSTRUCTURE
     1 DWA         1 TEMP              0 ****  ****    0 ROOT
