@<TRIPOS>MOLECULE
DWA
   46    49     1     0     0
SMALL
bcc


@<TRIPOS>ATOM
      1 C15         0.2040   -0.1510   -0.4240 c3        1 DWA      0.108700
      2 O14         1.5700    0.2040   -0.2210 os        1 DWA     -0.313900
      3 C2          2.0370    0.1390    1.0690 ca        1 DWA      0.159100
      4 C3          3.4060    0.4460    1.2220 ca        1 DWA     -0.177500
      5 C4          3.9730    0.4200    2.4860 ca        1 DWA     -0.074500
      6 C1          1.2630   -0.2030    2.1850 ca        1 DWA     -0.177500
      7 C6          1.8520   -0.2270    3.4480 ca        1 DWA     -0.074500
      8 C5          3.2000    0.1030    3.6160 ca        1 DWA     -0.156300
      9 C7          3.8470    0.0540    4.9790 c3        1 DWA      0.236800
     10 C19         5.0020    1.1330    5.1210 c3        1 DWA      0.102400
     11 O18         4.6450    1.9420    6.2830 os        1 DWA     -0.437400
     12 C17         3.4040    1.4450    6.7050 c2        1 DWA      0.602500
     13 N16         2.8800    0.4450    6.0560 n2        1 DWA     -0.508900
     14 N20         2.8730    2.1550    7.8680 nz        1 DWA     -0.766600
     15 C8          4.4170   -1.3300    5.2210 ca        1 DWA     -0.106300
     16 C13         3.8100   -2.2390    6.0900 ca        1 DWA     -0.094000
     17 C9          5.5820   -1.7020    4.5360 ca        1 DWA     -0.114000
     18 C10         6.1460   -2.9570    4.7490 ca        1 DWA     -0.115000
     19 C11         5.5630   -3.8500    5.6470 ca        1 DWA     -0.095000
     20 C12         4.3890   -3.4950    6.3250 cp        1 DWA     -0.024000
     21 C21         3.7710   -4.4240    7.2640 cp        1 DWA     -0.184300
     22 C26         3.6760   -5.7920    6.9610 ca        1 DWA     -0.058000
     23 C25         3.0850   -6.6650    7.8700 ca        1 DWA     -0.249300
     24 C24         2.5950   -6.1440    9.0830 ca        1 DWA      0.434200
     25 N23         2.6640   -4.8470    9.4210 nb        1 DWA     -0.681000
     26 C22         3.2460   -4.0030    8.5210 ca        1 DWA      0.612500
     27 F27         3.3120   -2.6970    8.8900 f         1 DWA     -0.241200
     28 H1          0.0740   -0.0400   -1.5310 h1        1 DWA      0.055033
     29 H2         -0.4690    0.5510    0.1260 h1        1 DWA      0.055033
     30 H3          0.0210   -1.2060   -0.1070 h1        1 DWA      0.055033
     31 H4          4.0050    0.6940    0.3330 ha        1 DWA      0.159000
     32 H5          5.0490    0.6310    2.5820 ha        1 DWA      0.137500
     33 H6          0.2000   -0.4640    2.0770 ha        1 DWA      0.159000
     34 H7          1.2310   -0.5250    4.3070 ha        1 DWA      0.137500
     35 H8          5.9950    0.6780    5.3570 h1        1 DWA      0.107200
     36 H9          5.0480    1.8440    4.2610 h1        1 DWA      0.107200
     37 H10         3.0160    3.1650    7.7270 hn        1 DWA      0.490800
     38 H11         1.8720    1.9470    7.9850 hn        1 DWA      0.490800
     39 H12         2.8660   -2.0010    6.6050 ha        1 DWA      0.148000
     40 H13         6.0450   -1.0120    3.8130 ha        1 DWA      0.136000
     41 H14         7.0600   -3.2450    4.2050 ha        1 DWA      0.153000
     42 H15         6.0260   -4.8330    5.8250 ha        1 DWA      0.151000
     43 H16         4.0640   -6.1640    6.0000 ha        1 DWA      0.154000
     44 H17         2.9990   -7.7380    7.6530 ha        1 DWA      0.163000
     45 H18         2.1170   -6.8000    9.8350 h4        1 DWA      0.043100
     46 H203        3.3960    1.8460    8.7010 hn        1 DWA      0.490800
@<TRIPOS>BOND
     1    1    2 1   
     2    1   28 1   
     3    1   29 1   
     4    1   30 1   
     5    2    3 1   
     6    3    4 ar  
     7    3    6 ar  
     8    4    5 ar  
     9    4   31 1   
    10    5    8 ar  
    11    5   32 1   
    12    6    7 ar  
    13    6   33 1   
    14    7    8 ar  
    15    7   34 1   
    16    8    9 1   
    17    9   10 1   
    18    9   13 1   
    19    9   15 1   
    20   10   11 1   
    21   10   35 1   
    22   10   36 1   
    23   11   12 1   
    24   12   13 2   
    25   12   14 1   
    26   14   37 1   
    27   14   38 1   
    28   14   46 1   
    29   15   16 ar  
    30   15   17 ar  
    31   16   20 ar  
    32   16   39 1   
    33   17   18 ar  
    34   17   40 1   
    35   18   19 ar  
    36   18   41 1   
    37   19   20 ar  
    38   19   42 1   
    39   20   21 1   
    40   21   22 ar  
    41   21   26 ar  
    42   22   23 ar  
    43   22   43 1   
    44   23   24 ar  
    45   23   44 1   
    46   24   25 ar  
    47   24   45 1   
    48   25   26 ar  
    49   26   27 1   
@<TRIPOS>SUBSTRUCTURE
     1 DWA         1 TEMP              0 ****  ****    0 ROOT
