@<TRIPOS>MOLECULE
DWA
   46    49     1     0     0
SMALL
bcc


@<TRIPOS>ATOM
      1 C15         0.1990   -0.1410   -0.4190 c3        1 DWA      0.108700
      2 O14         1.5660    0.2120   -0.2170 os        1 DWA     -0.313900
      3 C2          2.0350    0.1440    1.0720 ca        1 DWA      0.159100
      4 C3          3.4040    0.4490    1.2230 ca        1 DWA     -0.177500
      5 C4          3.9720    0.4210    2.4870 ca        1 DWA     -0.074500
      6 C1          1.2620   -0.1970    2.1880 ca        1 DWA     -0.177500
      7 C6          1.8520   -0.2230    3.4510 ca        1 DWA     -0.074500
      8 C5          3.2010    0.1050    3.6170 ca        1 DWA     -0.156300
      9 C7          3.8490    0.0530    4.9790 c3        1 DWA      0.236800
     10 C19         5.0070    1.1290    5.1200 c3        1 DWA      0.102400
     11 O18         4.6530    1.9380    6.2840 os        1 DWA     -0.437400
     12 C17         3.4120    1.4440    6.7070 c2        1 DWA      0.603500
     13 N16         2.8850    0.4450    6.0570 n2        1 DWA     -0.508900
     14 N20         2.8840    2.1520    7.8710 n4        1 DWA     -0.766600
     15 C8          4.4180   -1.3320    5.2200 ca        1 DWA     -0.106300
     16 C13         3.8100   -2.2410    6.0880 ca        1 DWA     -0.094000
     17 C9          5.5800   -1.7060    4.5320 ca        1 DWA     -0.114000
     18 C10         6.1420   -2.9630    4.7430 ca        1 DWA     -0.115000
     19 C11         5.5590   -3.8550    5.6410 ca        1 DWA     -0.095000
     20 C12         4.3870   -3.4980    6.3220 cp        1 DWA     -0.024000
     21 C21         3.7690   -4.4260    7.2620 cp        1 DWA     -0.184300
     22 C26         3.6700   -5.7940    6.9580 ca        1 DWA     -0.058000
     23 C25         3.0800   -6.6660    7.8680 ca        1 DWA     -0.249300
     24 C24         2.5930   -6.1440    9.0820 ca        1 DWA      0.434200
     25 N23         2.6650   -4.8480    9.4200 nb        1 DWA     -0.681000
     26 C22         3.2470   -4.0050    8.5190 ca        1 DWA      0.612500
     27 F27         3.3160   -2.6990    8.8890 f         1 DWA     -0.241200
     28 H1          0.0140   -1.1960   -0.1030 h1        1 DWA      0.055033
     29 H2         -0.4720    0.5610    0.1320 h1        1 DWA      0.055033
     30 H3          0.0680   -0.0290   -1.5260 h1        1 DWA      0.055033
     31 H4          4.0020    0.6980    0.3330 ha        1 DWA      0.159000
     32 H5          5.0500    0.6310    2.5810 ha        1 DWA      0.137500
     33 H6          0.1980   -0.4560    2.0820 ha        1 DWA      0.159000
     34 H7          1.2320   -0.5220    4.3100 ha        1 DWA      0.137500
     35 H8          5.0530    1.8420    4.2610 h1        1 DWA      0.107200
     36 H9          5.9990    0.6720    5.3540 h1        1 DWA      0.107200
     37 H10         3.0480    3.1610    7.7410 hn        1 DWA      0.490800
     38 H11         1.8780    1.9630    7.9780 hn        1 DWA      0.490800
     39 H12         2.8670   -2.0020    6.6050 ha        1 DWA      0.148000
     40 H13         6.0440   -1.0170    3.8090 ha        1 DWA      0.136000
     41 H14         7.0540   -3.2520    4.1970 ha        1 DWA      0.153000
     42 H15         6.0200   -4.8390    5.8170 ha        1 DWA      0.151000
     43 H16         4.0560   -6.1670    5.9960 ha        1 DWA      0.154000
     44 H17         2.9910   -7.7390    7.6500 ha        1 DWA      0.163000
     45 H18         2.1150   -6.8010    9.8350 h4        1 DWA      0.043100
     46 H203        3.3930    1.8270    8.7060 hn        1 DWA      0.490800
@<TRIPOS>BOND
     1    1    2 1   
     2    1   28 1   
     3    1   29 1   
     4    1   30 1   
     5    2    3 1   
     6    3    4 ar  
     7    3    6 ar  
     8    4    5 ar  
     9    4   31 1   
    10    5    8 ar  
    11    5   32 1   
    12    6    7 ar  
    13    6   33 1   
    14    7    8 ar  
    15    7   34 1   
    16    8    9 1   
    17    9   10 1   
    18    9   13 1   
    19    9   15 1   
    20   10   11 1   
    21   10   35 1   
    22   10   36 1   
    23   11   12 1   
    24   12   13 2   
    25   12   14 1   
    26   14   37 1   
    27   14   38 1   
    28   14   46 1   
    29   15   16 ar  
    30   15   17 ar  
    31   16   20 ar  
    32   16   39 1   
    33   17   18 ar  
    34   17   40 1   
    35   18   19 ar  
    36   18   41 1   
    37   19   20 ar  
    38   19   42 1   
    39   20   21 1   
    40   21   22 ar  
    41   21   26 ar  
    42   22   23 ar  
    43   22   43 1   
    44   23   24 ar  
    45   23   44 1   
    46   24   25 ar  
    47   24   45 1   
    48   25   26 ar  
    49   26   27 1   
@<TRIPOS>SUBSTRUCTURE
     1 DWA         1 TEMP              0 ****  ****    0 ROOT
