@<TRIPOS>MOLECULE
DWA
   45    48     1     0     0
SMALL
bcc


@<TRIPOS>ATOM
      1 C15         5.3460    3.4250    1.4860 c3        1 DWA      0.113700
      2 O14         5.1570    2.7720    0.2370 os        1 DWA     -0.327900
      3 C2          4.1630    1.8130    0.1970 ca        1 DWA      0.127100
      4 C3          4.0030    1.1760   -1.0470 ca        1 DWA     -0.183000
      5 C4          3.0310    0.1940   -1.1870 ca        1 DWA     -0.080000
      6 C1          3.3460    1.4670    1.2780 ca        1 DWA     -0.183000
      7 C6          2.3740    0.4790    1.1170 ca        1 DWA     -0.080000
      8 C5          2.2130   -0.1740   -0.1090 ca        1 DWA     -0.108300
      9 C7          1.1490   -1.2390   -0.2950 c3        1 DWA      0.226800
     10 C19         1.6900   -2.4150   -1.2020 c3        1 DWA      0.098400
     11 O18         1.5580   -3.6090   -0.4060 os        1 DWA     -0.463400
     12 C17         1.0520   -3.1990    0.8560 c2        1 DWA      0.768500
     13 N16         0.7940   -1.9090    0.9760 n2        1 DWA     -0.691900
     14 N20         0.9790   -4.2180    1.7950 nh        1 DWA     -0.869800
     15 C8         -0.0520   -0.5800   -0.9550 ca        1 DWA     -0.069300
     16 C13        -1.1820   -0.2230   -0.2140 ca        1 DWA     -0.076000
     17 C9         -0.0170   -0.2950   -2.3260 ca        1 DWA     -0.121000
     18 C10        -1.1010    0.3200   -2.9470 ca        1 DWA     -0.132000
     19 C11        -2.2300    0.6670   -2.2100 ca        1 DWA     -0.114000
     20 C12        -2.2750    0.3980   -0.8350 cp        1 DWA     -0.049000
     21 C21        -3.4480    0.7890   -0.0610 cp        1 DWA     -0.166300
     22 C26        -4.0200    2.0590   -0.2350 ca        1 DWA     -0.066000
     23 C25        -5.1380    2.4270    0.5070 ca        1 DWA     -0.263300
     24 C24        -5.6700    1.5000    1.4220 ca        1 DWA      0.421200
     25 N23        -5.1650    0.2740    1.6240 nb        1 DWA     -0.689000
     26 C22        -4.0680   -0.0740    0.8900 ca        1 DWA      0.619500
     27 F27        -3.5810   -1.3210    1.1060 f         1 DWA     -0.217200
     28 H1          6.1880    4.1350    1.2840 h1        1 DWA      0.044700
     29 H2          4.4250    3.9820    1.7850 h1        1 DWA      0.044700
     30 H3          5.6330    2.6900    2.2770 h1        1 DWA      0.044700
     31 H4          4.6470    1.4640   -1.8900 ha        1 DWA      0.143000
     32 H5          2.9060   -0.2880   -2.1690 ha        1 DWA      0.141000
     33 H6          3.4570    1.9610    2.2530 ha        1 DWA      0.143000
     34 H7          1.7350    0.2260    1.9770 ha        1 DWA      0.141000
     35 H8          1.0750   -2.5770   -2.1200 h1        1 DWA      0.071700
     36 H9          2.7750   -2.3110   -1.4440 h1        1 DWA      0.071700
     37 H10         0.3360   -4.0560    2.5380 hn        1 DWA      0.424300
     38 H11         0.9560   -5.1320    1.4000 hn        1 DWA      0.424300
     39 H12        -1.2350   -0.4220    0.8690 ha        1 DWA      0.162000
     40 H13         0.8740   -0.5450   -2.9210 ha        1 DWA      0.130000
     41 H14        -1.0630    0.5350   -4.0260 ha        1 DWA      0.134000
     42 H15        -3.0870    1.1480   -2.7050 ha        1 DWA      0.133000
     43 H16        -3.5710    2.7590   -0.9580 ha        1 DWA      0.148000
     44 H17        -5.5980    3.4170    0.3880 ha        1 DWA      0.150000
     45 H18        -6.5570    1.7500    2.0340 h4        1 DWA      0.029100
@<TRIPOS>BOND
     1    1    2 1   
     2    1   28 1   
     3    1   29 1   
     4    1   30 1   
     5    2    3 1   
     6    3    4 ar  
     7    3    6 ar  
     8    4    5 ar  
     9    4   31 1   
    10    5    8 ar  
    11    5   32 1   
    12    6    7 ar  
    13    6   33 1   
    14    7    8 ar  
    15    7   34 1   
    16    8    9 1   
    17    9   10 1   
    18    9   13 1   
    19    9   15 1   
    20   10   11 1   
    21   10   35 1   
    22   10   36 1   
    23   11   12 1   
    24   12   13 2   
    25   12   14 1   
    26   14   37 1   
    27   14   38 1   
    28   15   16 ar  
    29   15   17 ar  
    30   16   20 ar  
    31   16   39 1   
    32   17   18 ar  
    33   17   40 1   
    34   18   19 ar  
    35   18   41 1   
    36   19   20 ar  
    37   19   42 1   
    38   20   21 1   
    39   21   22 ar  
    40   21   26 ar  
    41   22   23 ar  
    42   22   43 1   
    43   23   24 ar  
    44   23   44 1   
    45   24   25 ar  
    46   24   45 1   
    47   25   26 ar  
    48   26   27 1   
@<TRIPOS>SUBSTRUCTURE
     1 DWA         1 TEMP              0 ****  ****    0 ROOT
