@<TRIPOS>MOLECULE
DWA
   45    36     1     0     0
SMALL
bcc


@<TRIPOS>ATOM
      1 C15         4.3870   -0.8570   -1.4670 c3        1 DWA     -0.077000
      2 O14         4.2420   -1.6540   -0.2830 os        1 DWA     -0.211000
      3 C2          2.9470   -1.6690    0.2330 c1        1 DWA      0.081000
      4 C3          2.5440   -0.6760    1.1090 c1        1 DWA     -0.127000
      5 C4          1.2210   -0.6040    1.5120 c1        1 DWA     -0.127000
      6 C1          2.0260   -2.5910   -0.2420 c1        1 DWA     -0.210000
      7 C6          0.6990   -2.5190    0.1620 c1        1 DWA     -0.076500
      8 C5          0.2960   -1.5290    1.0370 c1        1 DWA     -0.076500
      9 C7         -1.1600   -1.3410    1.3290 c2        1 DWA      0.085000
     10 C19        -1.4060   -1.2120    2.9180 c3        1 DWA     -0.053000
     11 O18        -2.4320   -2.3120    3.2190 os        1 DWA     -0.262000
     12 C17        -2.7400   -2.7680    2.0320 c1        1 DWA      0.184000
     13 N16        -1.8030   -2.3600    1.0140 n2        1 DWA     -0.265000
     14 N20        -3.4270   -4.0020    1.9060 n2        1 DWA     -0.310000
     15 C8         -1.6900   -0.1360    0.6100 c1        1 DWA     -0.067000
     16 C13        -0.8560    0.5830   -0.2480 c1        1 DWA     -0.076500
     17 C9         -2.9520    0.3250    0.8840 c1        1 DWA     -0.115000
     18 C10        -3.3990    1.5060    0.3100 c1        1 DWA     -0.127000
     19 C11        -2.5690    2.2220   -0.5440 c1        1 DWA     -0.127000
     20 C12        -1.3010    1.7590   -0.8200 c1        1 DWA     -0.076500
     21 C21        -0.3280    2.6250   -1.6700 c1        1 DWA     -0.101000
     22 C26         0.4620    3.5700   -1.0530 c1        1 DWA     -0.127000
     23 C25         1.4560    4.1960   -1.7550 c1        1 DWA     -0.127000
     24 C24         1.6690    3.8810   -3.0840 c1        1 DWA     -0.044000
     25 N23         0.8790    2.9340   -3.7040 n1        1 DWA     -0.163000
     26 C22        -0.1120    2.3090   -3.0070 c1        1 DWA      0.150000
     27 F27        -0.8500    1.3400   -3.6000 f         1 DWA     -0.078000
     28 H1          4.4200   -1.4530   -2.2650 h1        1 DWA      0.084667
     29 H2          3.6360   -0.2550   -1.5450 h1        1 DWA      0.084667
     30 H3          5.2350   -0.3260   -1.4110 h1        1 DWA      0.084667
     31 H4          3.2010   -0.0170    1.4490 ha        1 DWA      0.143833
     32 H5          0.9410    0.0830    2.1200 ha        1 DWA      0.143833
     33 H6          2.3040   -3.2750   -0.8460 ha        1 DWA      0.140000
     34 H7          0.0510   -3.1670   -0.1710 ha        1 DWA      0.153500
     35 H8         -0.5600   -1.3770    3.4170 h1        1 DWA      0.112500
     36 H9         -1.7640   -0.3520    3.1340 h1        1 DWA      0.112500
     37 H10        -3.0240   -4.7190    1.4530 hn        1 DWA      0.219000
     38 H11        -4.2930   -4.0850    2.2290 hn        1 DWA      0.219000
     39 H12         0.0390    0.2560   -0.4430 ha        1 DWA      0.153500
     40 H13        -3.5440   -0.1850    1.4910 ha        1 DWA      0.134000
     41 H14        -4.2840    1.8290    0.5040 ha        1 DWA      0.143833
     42 H15        -2.8870    3.0600   -0.9520 ha        1 DWA      0.143833
     43 H16         0.3060    3.8020   -0.0810 ha        1 DWA      0.143833
     44 H17         2.0190    4.8710   -1.3150 ha        1 DWA      0.143833
     45 H18         2.3980    4.2910   -3.5660 ha        1 DWA      0.166000
@<TRIPOS>BOND
     1    1    2 1   
     2    1   28 1   
     3    1   29 1   
     4    1   30 1   
     5    2    3 1   
     6    3    6 1   
     7    4    5 1   
     8    4   31 1   
     9    5   32 1   
    10    6   33 1   
    11    7    8 1   
    12    7   34 1   
    13    9   10 1   
    14    9   13 1   
    15    9   15 1   
    16   10   11 1   
    17   10   35 1   
    18   10   36 1   
    19   11   12 1   
    20   12   13 1   
    21   14   37 1   
    22   14   38 1   
    23   15   17 1   
    24   16   20 1   
    25   16   39 1   
    26   17   40 1   
    27   18   19 1   
    28   18   41 1   
    29   19   42 1   
    30   21   26 1   
    31   22   23 1   
    32   22   43 1   
    33   23   44 1   
    34   24   25 1   
    35   24   45 1   
    36   26   27 1   
@<TRIPOS>SUBSTRUCTURE
     1 DWA         1 TEMP              0 ****  ****    0 ROOT
