@<TRIPOS>MOLECULE
DWB
   45    38     1     0     0
SMALL
bcc


@<TRIPOS>ATOM
      1 F26         3.3370   -2.4050    2.4190 f         1 DWB     -0.101000
      2 C20         2.8180   -1.8450    3.5180 c2        1 DWB      0.096000
      3 C21         3.5370   -1.8470    4.7030 c2        1 DWB     -0.158000
      4 C22         2.9850   -1.3010    5.8510 c1        1 DWB     -0.101000
      5 C23         1.7130   -0.7530    5.8140 c1        1 DWB     -0.076000
      6 CL2         1.0220   -0.0550    7.2550 cl        1 DWB     -0.007000
      7 C24         0.9930   -0.7500    4.6290 c1        1 DWB     -0.097000
      8 C14         1.5460   -1.2960    3.4810 c1        1 DWB     -0.048000
      9 C12         0.7780   -1.2540    2.1790 c1        1 DWB     -0.077000
     10 C13         0.7840   -0.2670    1.1760 c1        1 DWB     -0.059000
     11 C8         -0.0800   -0.3760    0.0830 c1        1 DWB     -0.009500
     12 C11        -0.1140   -2.3750    2.0820 c1        1 DWB     -0.129500
     13 C10        -0.9900   -2.4900    0.9780 c1        1 DWB     -0.129500
     14 C9         -0.9890   -1.5180   -0.0160 c1        1 DWB     -0.009500
     15 O25        -2.0040   -1.5240   -0.9890 o         1 DWB     -0.137000
     16 C4         -2.0680   -0.5680   -1.8400 c1        1 DWB      0.048000
     17 C3         -3.1010   -0.5400   -2.8260 c1        1 DWB     -0.129500
     18 C2         -3.1550    0.4830   -3.7300 c1        1 DWB     -0.129500
     19 C1         -2.2300    1.4700   -3.6900 c1        1 DWB      0.056000
     20 O28        -2.3760    2.6710   -4.4040 os        1 DWB     -0.208000
     21 C29        -2.6510    2.4900   -5.7750 c3        1 DWB     -0.076000
     22 C6         -1.2380    1.4410   -2.7410 c1        1 DWB     -0.113000
     23 C5         -1.1830    0.3760   -1.8020 c1        1 DWB     -0.081000
     24 C7         -0.0070    0.3150   -0.7150 c2        1 DWB      0.090000
     25 C18         1.1190    0.1020   -1.3600 c3        1 DWB     -0.052000
     26 O17         1.6970    1.2040   -1.3230 os        1 DWB     -0.261000
     27 C16         1.1300    1.6880   -1.0050 c2        1 DWB      0.180000
     28 N19         1.4950    2.9500   -0.4650 n3        1 DWB     -0.312000
     29 N15         0.0720    0.9710   -0.4460 n2        1 DWB     -0.256000
     30 H1          4.4330   -2.2340    4.7290 ha        1 DWB      0.154000
     31 H2          3.4910   -1.3030    6.6850 ha        1 DWB      0.153000
     32 H3          0.0970   -0.3640    4.6030 ha        1 DWB      0.157000
     33 H4          1.3740    0.5050    1.2550 ha        1 DWB      0.145000
     34 H5         -0.1180   -3.0560    2.7810 ha        1 DWB      0.148000
     35 H6         -1.5950   -3.2520    0.9130 ha        1 DWB      0.148000
     36 H7         -3.7670   -1.2520   -2.8540 ha        1 DWB      0.148000
     37 H8         -3.8570    0.4990   -4.4080 ha        1 DWB      0.148000
     38 H9         -2.7540    3.3660   -6.2070 h1        1 DWB      0.083667
     39 H10        -1.9110    2.0030   -6.1960 h1        1 DWB      0.083667
     40 H11        -3.4810    1.9760   -5.8770 h1        1 DWB      0.083667
     41 H12        -0.5710    2.1520   -2.7120 ha        1 DWB      0.161000
     42 H13         0.9390   -0.1620   -2.2880 h1        1 DWB      0.116500
     43 H14         1.6530   -0.5830   -0.9030 h1        1 DWB      0.116500
     44 H15         0.8480    3.5300   -0.1810 hn        1 DWB      0.221000
     45 H16         2.3770    3.1730   -0.3810 hn        1 DWB      0.221000
@<TRIPOS>BOND
     1    1    2 1   
     2    2    3 1   
     3    2    8 1   
     4    3    4 1   
     5    3   30 1   
     6    4   31 1   
     7    5    6 1   
     8    5    7 1   
     9    7   32 1   
    10    9   10 1   
    11   10   33 1   
    12   11   14 1   
    13   12   13 1   
    14   12   34 1   
    15   13   35 1   
    16   15   16 1   
    17   16   23 1   
    18   17   18 1   
    19   17   36 1   
    20   18   37 1   
    21   19   20 1   
    22   19   22 1   
    23   20   21 1   
    24   21   38 1   
    25   21   39 1   
    26   21   40 1   
    27   22   41 1   
    28   23   24 1   
    29   24   25 1   
    30   24   29 1   
    31   25   26 1   
    32   25   42 1   
    33   25   43 1   
    34   26   27 1   
    35   27   28 1   
    36   27   29 1   
    37   28   44 1   
    38   28   45 1   
@<TRIPOS>SUBSTRUCTURE
     1 DWB         1 TEMP              0 ****  ****    0 ROOT
