@<TRIPOS>MOLECULE
DWB
   46    50     1     0     0
SMALL
bcc


@<TRIPOS>ATOM
      1 F26         0.3820   -0.2040    0.3850 f         1 DWB     -0.128900
      2 C20         1.6930   -0.3480    0.0840 ca        1 DWB      0.141900
      3 C21         2.6090   -0.5750    1.1310 ca        1 DWB     -0.151000
      4 C22         3.9620   -0.7190    0.8550 ca        1 DWB     -0.086000
      5 C23         4.4130   -0.6360   -0.4680 ca        1 DWB      0.000400
      6 Cl2         6.0660   -0.8090   -0.8100 cl        1 DWB     -0.070400
      7 C24         3.5130   -0.4160   -1.5110 ca        1 DWB     -0.102000
      8 C14         2.1440   -0.2660   -1.2540 cp        1 DWB     -0.079000
      9 C12         1.2270   -0.0350   -2.3690 cp        1 DWB     -0.046000
     10 C13         1.5460    0.9050   -3.3490 ca        1 DWB     -0.086000
     11 C8          0.6920    1.1340   -4.4380 ca        1 DWB     -0.173300
     12 C11         0.0250   -0.7610   -2.4750 ca        1 DWB     -0.052000
     13 C10        -0.8310   -0.5590   -3.5440 ca        1 DWB     -0.135000
     14 C9         -0.4930    0.3950   -4.5250 ca        1 DWB      0.161100
     15 O25        -1.4160    0.5210   -5.5460 os        1 DWB     -0.208200
     16 C4         -1.0710    1.3570   -6.5980 ca        1 DWB      0.113100
     17 C3         -1.9800    1.3460   -7.6740 ca        1 DWB     -0.095000
     18 C2         -1.7400    2.1500   -8.7780 ca        1 DWB     -0.145000
     19 C1         -0.5910    2.9610   -8.8110 ca        1 DWB      0.121100
     20 O28        -0.2560    3.8020   -9.8500 os        1 DWB     -0.326900
     21 C29        -1.1240    3.7860  -10.9820 c3        1 DWB      0.108700
     22 C6          0.3120    2.9660   -7.7400 ca        1 DWB     -0.140000
     23 C5          0.0760    2.1570   -6.6220 ca        1 DWB     -0.130300
     24 C7          1.0340    2.1730   -5.4650 c3        1 DWB      0.244800
     25 C18         2.5180    1.9800   -5.9790 c3        1 DWB      0.106400
     26 O17         3.2180    3.2070   -5.6050 os        1 DWB     -0.443400
     27 C16         2.2540    4.0030   -4.9630 c2        1 DWB      0.583500
     28 N19         2.7890    5.2910   -4.5260 nz        1 DWB     -0.766600
     29 N15         1.0430    3.5380   -4.8320 n2        1 DWB     -0.487900
     30 H1          2.2380   -0.6400    2.1650 ha        1 DWB      0.167000
     31 H2          4.6750   -0.9020    1.6760 ha        1 DWB      0.165000
     32 H3          3.8730   -0.3740   -2.5510 ha        1 DWB      0.147000
     33 H4          2.4820    1.4790   -3.2630 ha        1 DWB      0.125000
     34 H5         -0.2350   -1.4950   -1.6920 ha        1 DWB      0.166000
     35 H6         -1.7720   -1.1240   -3.6420 ha        1 DWB      0.173000
     36 H7         -2.8700    0.7010   -7.6210 ha        1 DWB      0.173000
     37 H8         -2.4500    2.1450   -9.6190 ha        1 DWB      0.162000
     38 H9         -1.1640    2.7660  -11.4330 h1        1 DWB      0.056033
     39 H10        -0.6390    4.5110  -11.6850 h1        1 DWB      0.056033
     40 H11        -2.1460    4.1360  -10.6970 h1        1 DWB      0.056033
     41 H12         1.2020    3.6090   -7.7950 ha        1 DWB      0.139000
     42 H13         2.5860    1.9020   -7.0910 h1        1 DWB      0.110200
     43 H14         3.0500    1.1430   -5.4640 h1        1 DWB      0.110200
     44 H15         3.6130    5.1180   -3.9330 hn        1 DWB      0.489467
     45 H16         2.0740    5.8120   -3.9980 hn        1 DWB      0.489467
     46 H193        3.0740    5.8250   -5.3590 hn        1 DWB      0.489467
@<TRIPOS>BOND
     1    1    2 1   
     2    2    3 ar  
     3    2    8 ar  
     4    3    4 ar  
     5    3   30 1   
     6    4    5 ar  
     7    4   31 1   
     8    5    6 1   
     9    5    7 ar  
    10    7    8 ar  
    11    7   32 1   
    12    8    9 1   
    13    9   10 ar  
    14    9   12 ar  
    15   10   11 ar  
    16   10   33 1   
    17   11   14 ar  
    18   11   24 1   
    19   12   13 ar  
    20   12   34 1   
    21   13   14 ar  
    22   13   35 1   
    23   14   15 1   
    24   15   16 1   
    25   16   17 ar  
    26   16   23 ar  
    27   17   18 ar  
    28   17   36 1   
    29   18   19 ar  
    30   18   37 1   
    31   19   20 1   
    32   19   22 ar  
    33   20   21 1   
    34   21   38 1   
    35   21   39 1   
    36   21   40 1   
    37   22   23 ar  
    38   22   41 1   
    39   23   24 1   
    40   24   25 1   
    41   24   29 1   
    42   25   26 1   
    43   25   42 1   
    44   25   43 1   
    45   26   27 1   
    46   27   28 1   
    47   27   29 2   
    48   28   44 1   
    49   28   45 1   
    50   28   46 1   
@<TRIPOS>SUBSTRUCTURE
     1 DWB         1 TEMP              0 ****  ****    0 ROOT
