@<TRIPOS>MOLECULE
DWB
   46    50     1     0     0
SMALL
bcc


@<TRIPOS>ATOM
      1 F26         0.3300   -0.2030    0.3780 f         1 DWB     -0.128900
      2 C20         1.6430   -0.3550    0.0870 ca        1 DWB      0.141900
      3 C21         2.5490   -0.5880    1.1410 ca        1 DWB     -0.151000
      4 C22         3.9040   -0.7400    0.8760 ca        1 DWB     -0.086000
      5 C23         4.3650   -0.6590   -0.4430 ca        1 DWB      0.000400
      6 CL2         6.0200   -0.8420   -0.7720 cl        1 DWB     -0.070400
      7 C24         3.4750   -0.4320   -1.4930 ca        1 DWB     -0.102000
      8 C14         2.1050   -0.2750   -1.2470 cp        1 DWB     -0.079000
      9 C12         1.1990   -0.0370   -2.3690 cp        1 DWB     -0.046000
     10 C13         1.5310    0.9020   -3.3460 ca        1 DWB     -0.086000
     11 C8          0.6870    1.1360   -4.4420 ca        1 DWB     -0.173300
     12 C11        -0.0070   -0.7570   -2.4850 ca        1 DWB     -0.052000
     13 C10        -0.8530   -0.5490   -3.5610 ca        1 DWB     -0.135000
     14 C9         -0.5010    0.4040   -4.5390 ca        1 DWB      0.161100
     15 O25        -1.4160    0.5370   -5.5670 os        1 DWB     -0.208200
     16 C4         -1.0570    1.3710   -6.6150 ca        1 DWB      0.113100
     17 C3         -1.9570    1.3660   -7.6990 ca        1 DWB     -0.095000
     18 C2         -1.7040    2.1690   -8.8000 ca        1 DWB     -0.145000
     19 C1         -0.5500    2.9730   -8.8230 ca        1 DWB      0.121100
     20 O28        -0.2020    3.8130   -9.8590 os        1 DWB     -0.326900
     21 C29        -1.0610    3.8030  -10.9980 c3        1 DWB      0.108700
     22 C6          0.3450    2.9730   -7.7450 ca        1 DWB     -0.140000
     23 C5          0.0940    2.1640   -6.6290 ca        1 DWB     -0.130300
     24 C7          1.0440    2.1730   -5.4650 c3        1 DWB      0.244800
     25 C18         2.5310    1.9720   -5.9670 c3        1 DWB      0.106400
     26 O17         3.2350    3.1950   -5.5870 os        1 DWB     -0.443400
     27 C16         2.2700    3.9960   -4.9520 c2        1 DWB      0.583500
     28 N19         2.8090    5.2810   -4.5100 n4        1 DWB     -0.766600
     29 N15         1.0560    3.5380   -4.8310 n2        1 DWB     -0.487900
     30 H1          2.1690   -0.6510    2.1730 ha        1 DWB      0.167000
     31 H2          4.6080   -0.9280    1.7030 ha        1 DWB      0.165000
     32 H3          3.8440   -0.3930   -2.5300 ha        1 DWB      0.147000
     33 H4          2.4700    1.4700   -3.2520 ha        1 DWB      0.125000
     34 H5         -0.2770   -1.4890   -1.7050 ha        1 DWB      0.166000
     35 H6         -1.7960   -1.1070   -3.6670 ha        1 DWB      0.173000
     36 H7         -2.8520    0.7260   -7.6530 ha        1 DWB      0.173000
     37 H8         -2.4070    2.1680   -9.6470 ha        1 DWB      0.162000
     38 H9         -0.5660    4.5260  -11.6960 h1        1 DWB      0.056033
     39 H10        -2.0830    4.1590  -10.7210 h1        1 DWB      0.056033
     40 H11        -1.1040    2.7830  -11.4500 h1        1 DWB      0.056033
     41 H12         1.2390    3.6100   -7.7920 ha        1 DWB      0.139000
     42 H13         3.0530    1.1320   -5.4490 h1        1 DWB      0.110200
     43 H14         2.6070    1.8940   -7.0790 h1        1 DWB      0.110200
     44 H15         3.6310    5.1030   -3.9160 hn        1 DWB      0.489133
     45 H16         2.0940    5.8030   -3.9830 hn        1 DWB      0.489133
     46 H193        3.0980    5.8160   -5.3410 hn        1 DWB      0.489133
@<TRIPOS>BOND
     1    1    2 1   
     2    2    3 ar  
     3    2    8 ar  
     4    3    4 ar  
     5    3   30 1   
     6    4    5 ar  
     7    4   31 1   
     8    5    6 1   
     9    5    7 ar  
    10    7    8 ar  
    11    7   32 1   
    12    8    9 1   
    13    9   10 ar  
    14    9   12 ar  
    15   10   11 ar  
    16   10   33 1   
    17   11   14 ar  
    18   11   24 1   
    19   12   13 ar  
    20   12   34 1   
    21   13   14 ar  
    22   13   35 1   
    23   14   15 1   
    24   15   16 1   
    25   16   17 ar  
    26   16   23 ar  
    27   17   18 ar  
    28   17   36 1   
    29   18   19 ar  
    30   18   37 1   
    31   19   20 1   
    32   19   22 ar  
    33   20   21 1   
    34   21   38 1   
    35   21   39 1   
    36   21   40 1   
    37   22   23 ar  
    38   22   41 1   
    39   23   24 1   
    40   24   25 1   
    41   24   29 1   
    42   25   26 1   
    43   25   42 1   
    44   25   43 1   
    45   26   27 1   
    46   27   28 1   
    47   27   29 2   
    48   28   44 1   
    49   28   45 1   
    50   28   46 1   
@<TRIPOS>SUBSTRUCTURE
     1 DWB         1 TEMP              0 ****  ****    0 ROOT
