@<TRIPOS>MOLECULE
DWB
   46    50     1     0     0
SMALL
bcc


@<TRIPOS>ATOM
      1 F26         0.3850   -0.1910    0.3900 f         1 DWB     -0.128900
      2 C20         1.6950   -0.3440    0.0860 ca        1 DWB      0.141900
      3 C21         2.6130   -0.5740    1.1300 ca        1 DWB     -0.151000
      4 C22         3.9640   -0.7270    0.8510 ca        1 DWB     -0.086000
      5 C23         4.4110   -0.6490   -0.4730 ca        1 DWB      0.000400
      6 CL2         6.0620   -0.8330   -0.8200 cl        1 DWB     -0.070400
      7 C24         3.5100   -0.4250   -1.5140 ca        1 DWB     -0.102000
      8 C14         2.1420   -0.2660   -1.2540 cp        1 DWB     -0.079000
      9 C12         1.2240   -0.0310   -2.3660 cp        1 DWB     -0.046000
     10 C13         1.5460    0.9050   -3.3490 ca        1 DWB     -0.086000
     11 C8          0.6900    1.1370   -4.4360 ca        1 DWB     -0.173300
     12 C11         0.0170   -0.7510   -2.4680 ca        1 DWB     -0.052000
     13 C10        -0.8410   -0.5450   -3.5350 ca        1 DWB     -0.135000
     14 C9         -0.4990    0.4050   -4.5190 ca        1 DWB      0.161100
     15 O25        -1.4250    0.5350   -5.5370 os        1 DWB     -0.208200
     16 C4         -1.0770    1.3670   -6.5920 ca        1 DWB      0.113100
     17 C3         -1.9890    1.3590   -7.6650 ca        1 DWB     -0.095000
     18 C2         -1.7480    2.1590   -8.7710 ca        1 DWB     -0.145000
     19 C1         -0.5940    2.9630   -8.8090 ca        1 DWB      0.121100
     20 O28        -0.2570    3.8010   -9.8510 os        1 DWB     -0.326900
     21 C29        -1.1280    3.7880  -10.9800 c3        1 DWB      0.108700
     22 C6          0.3120    2.9650   -7.7400 ca        1 DWB     -0.140000
     23 C5          0.0740    2.1590   -6.6200 ca        1 DWB     -0.130300
     24 C7          1.0360    2.1710   -5.4660 c3        1 DWB      0.244800
     25 C18         2.5170    1.9690   -5.9830 c3        1 DWB      0.106400
     26 O17         3.2260    3.1920   -5.6140 os        1 DWB     -0.443400
     27 C16         2.2680    3.9950   -4.9710 c2        1 DWB      0.583500
     28 N19         2.8120    5.2810   -4.5380 n4        1 DWB     -0.766600
     29 N15         1.0550    3.5380   -4.8350 n2        1 DWB     -0.487900
     30 H1          2.2440   -0.6340    2.1660 ha        1 DWB      0.167000
     31 H2          4.6780   -0.9120    1.6700 ha        1 DWB      0.165000
     32 H3          3.8670   -0.3880   -2.5560 ha        1 DWB      0.147000
     33 H4          2.4860    1.4730   -3.2670 ha        1 DWB      0.125000
     34 H5         -0.2450   -1.4810   -1.6830 ha        1 DWB      0.166000
     35 H6         -1.7850   -1.1040   -3.6290 ha        1 DWB      0.173000
     36 H7         -2.8840    0.7200   -7.6080 ha        1 DWB      0.173000
     37 H8         -2.4600    2.1570   -9.6100 ha        1 DWB      0.162000
     38 H9         -2.1470    4.1440  -10.6930 h1        1 DWB      0.056033
     39 H10        -0.6400    4.5090  -11.6850 h1        1 DWB      0.056033
     40 H11        -1.1750    2.7670  -11.4290 h1        1 DWB      0.056033
     41 H12         1.2060    3.6030   -7.7990 ha        1 DWB      0.139000
     42 H13         3.0450    1.1300   -5.4690 h1        1 DWB      0.110200
     43 H14         2.5810    1.8880   -7.0960 h1        1 DWB      0.110200
     44 H15         2.1030    5.8050   -4.0050 hn        1 DWB      0.489133
     45 H16         3.6400    5.1040   -3.9520 hn        1 DWB      0.489133
     46 H193        3.0930    5.8140   -5.3730 hn        1 DWB      0.489133
@<TRIPOS>BOND
     1    1    2 1   
     2    2    3 ar  
     3    2    8 ar  
     4    3    4 ar  
     5    3   30 1   
     6    4    5 ar  
     7    4   31 1   
     8    5    6 1   
     9    5    7 ar  
    10    7    8 ar  
    11    7   32 1   
    12    8    9 1   
    13    9   10 ar  
    14    9   12 ar  
    15   10   11 ar  
    16   10   33 1   
    17   11   14 ar  
    18   11   24 1   
    19   12   13 ar  
    20   12   34 1   
    21   13   14 ar  
    22   13   35 1   
    23   14   15 1   
    24   15   16 1   
    25   16   17 ar  
    26   16   23 ar  
    27   17   18 ar  
    28   17   36 1   
    29   18   19 ar  
    30   18   37 1   
    31   19   20 1   
    32   19   22 ar  
    33   20   21 1   
    34   21   38 1   
    35   21   39 1   
    36   21   40 1   
    37   22   23 ar  
    38   22   41 1   
    39   23   24 1   
    40   24   25 1   
    41   24   29 1   
    42   25   26 1   
    43   25   42 1   
    44   25   43 1   
    45   26   27 1   
    46   27   28 1   
    47   27   29 2   
    48   28   44 1   
    49   28   45 1   
    50   28   46 1   
@<TRIPOS>SUBSTRUCTURE
     1 DWB         1 TEMP              0 ****  ****    0 ROOT
