@<TRIPOS>MOLECULE
DWB
   45    49     1     0     0
SMALL
bcc


@<TRIPOS>ATOM
      1 F26        -3.8700   -2.7270   -1.4120 f         1 DWB     -0.132900
      2 C20        -4.2330   -1.6220   -0.7190 ca        1 DWB      0.134900
      3 C21        -5.5840   -1.2230   -0.7490 ca        1 DWB     -0.159000
      4 C22        -5.9960   -0.0930   -0.0540 ca        1 DWB     -0.100000
      5 C23        -5.0590    0.6470    0.6740 ca        1 DWB      0.002400
      6 CL2        -5.5580    2.0300    1.5270 cl        1 DWB     -0.087400
      7 C24        -3.7180    0.2630    0.7080 ca        1 DWB     -0.097000
      8 C14        -3.2820   -0.8750    0.0150 cp        1 DWB     -0.049000
      9 C12        -1.8700   -1.2480    0.0710 cp        1 DWB     -0.075000
     10 C13        -0.8850   -0.2640   -0.0640 ca        1 DWB     -0.065000
     11 C8          0.4760   -0.5870    0.0080 ca        1 DWB     -0.130300
     12 C11        -1.4860   -2.5840    0.2740 ca        1 DWB     -0.073000
     13 C10        -0.1460   -2.9290    0.3470 ca        1 DWB     -0.152000
     14 C9          0.8320   -1.9250    0.2100 ca        1 DWB      0.144100
     15 O25         2.1350   -2.3830    0.3020 os        1 DWB     -0.227200
     16 C4          3.1380   -1.4280    0.1920 ca        1 DWB      0.096100
     17 C3          4.4390   -1.9440    0.3110 ca        1 DWB     -0.113000
     18 C2          5.5280   -1.0850    0.2270 ca        1 DWB     -0.169000
     19 C1          5.3080    0.2840    0.0240 ca        1 DWB      0.100100
     20 O28         6.3110    1.2330   -0.0660 os        1 DWB     -0.326900
     21 C29         7.6440    0.7390   -0.0120 c3        1 DWB      0.113700
     22 C6          4.0070    0.7960   -0.0980 ca        1 DWB     -0.116000
     23 C5          2.9070   -0.0620   -0.0130 ca        1 DWB     -0.088300
     24 C7          1.5130    0.4950   -0.1520 c3        1 DWB      0.230800
     25 C18         1.2830    1.6070    0.9490 c3        1 DWB      0.098400
     26 O17         1.0230    2.8170    0.2110 os        1 DWB     -0.468400
     27 C16         1.0600    2.4720   -1.1690 c2        1 DWB      0.751500
     28 N19         0.7090    3.5130   -2.0170 nh        1 DWB     -0.871800
     29 N15         1.3480    1.2100   -1.4400 n2        1 DWB     -0.664900
     30 H1         -6.3060   -1.8160   -1.3300 ha        1 DWB      0.154000
     31 H2         -7.0520    0.2140   -0.0800 ha        1 DWB      0.153000
     32 H3         -2.9880    0.8510    1.2870 ha        1 DWB      0.155000
     33 H4         -1.1800    0.7830   -0.2420 ha        1 DWB      0.147000
     34 H5         -2.2590   -3.3640    0.3670 ha        1 DWB      0.147000
     35 H6          0.1690   -3.9710    0.5030 ha        1 DWB      0.155000
     36 H7          4.5800   -3.0230    0.4680 ha        1 DWB      0.154000
     37 H8          6.5450   -1.4900    0.3180 ha        1 DWB      0.143000
     38 H9          8.2680    1.6610   -0.1340 h1        1 DWB      0.044700
     39 H10         7.8460    0.2570    0.9750 h1        1 DWB      0.044700
     40 H11         7.8360    0.0210   -0.8460 h1        1 DWB      0.044700
     41 H12         3.8640    1.8740   -0.2650 ha        1 DWB      0.154000
     42 H13         0.3860    1.4030    1.5800 h1        1 DWB      0.074700
     43 H14         2.1920    1.7900    1.5700 h1        1 DWB      0.074700
     44 H15         0.8220    4.4190   -1.6190 hn        1 DWB      0.425300
     45 H16         1.0210    3.4120   -2.9570 hn        1 DWB      0.425300
@<TRIPOS>BOND
     1    1    2 1   
     2    2    3 ar  
     3    2    8 ar  
     4    3    4 ar  
     5    3   30 1   
     6    4    5 ar  
     7    4   31 1   
     8    5    6 1   
     9    5    7 ar  
    10    7    8 ar  
    11    7   32 1   
    12    8    9 1   
    13    9   10 ar  
    14    9   12 ar  
    15   10   11 ar  
    16   10   33 1   
    17   11   14 ar  
    18   11   24 1   
    19   12   13 ar  
    20   12   34 1   
    21   13   14 ar  
    22   13   35 1   
    23   14   15 1   
    24   15   16 1   
    25   16   17 ar  
    26   16   23 ar  
    27   17   18 ar  
    28   17   36 1   
    29   18   19 ar  
    30   18   37 1   
    31   19   20 1   
    32   19   22 ar  
    33   20   21 1   
    34   21   38 1   
    35   21   39 1   
    36   21   40 1   
    37   22   23 ar  
    38   22   41 1   
    39   23   24 1   
    40   24   25 1   
    41   24   29 1   
    42   25   26 1   
    43   25   42 1   
    44   25   43 1   
    45   26   27 1   
    46   27   28 1   
    47   27   29 2   
    48   28   44 1   
    49   28   45 1   
@<TRIPOS>SUBSTRUCTURE
     1 DWB         1 TEMP              0 ****  ****    0 ROOT
