@<TRIPOS>MOLECULE
DWD
   53    57     1     0     0
SMALL
bcc


@<TRIPOS>ATOM
      1 C26         0.1100   -0.3190    0.1940 ca        1 DWD      0.438200
      2 N27         1.4360   -0.1000    0.1010 nb        1 DWD     -0.680000
      3 C28         1.9740    0.7200    1.0460 ca        1 DWD      0.642900
      4 N29         1.3060    1.3350    2.0610 nb        1 DWD     -0.680000
      5 C30        -0.0180    1.1040    2.1280 ca        1 DWD      0.438200
      6 C15        -0.6910    0.2700    1.2000 cp        1 DWD     -0.288600
      7 C1         -2.1230    0.0360    1.2770 cp        1 DWD     -0.037000
      8 C6         -2.8890   -0.0390    0.1130 ca        1 DWD     -0.089000
      9 C5         -4.2730   -0.2600    0.1690 ca        1 DWD     -0.168300
     10 C2         -2.7540   -0.1130    2.5290 ca        1 DWD     -0.064000
     11 C3         -4.1180   -0.3340    2.6100 ca        1 DWD     -0.133000
     12 C4         -4.8770   -0.4040    1.4230 ca        1 DWD      0.161100
     13 O7         -6.2280   -0.6210    1.6170 os        1 DWD     -0.207200
     14 C8         -6.9960   -0.8210    0.4780 ca        1 DWD      0.109100
     15 C11        -8.3360   -1.1710    0.7330 ca        1 DWD     -0.093000
     16 C12        -9.1980   -1.3890   -0.3300 ca        1 DWD     -0.148000
     17 C13        -8.7240   -1.2630   -1.6490 ca        1 DWD      0.130100
     18 O16        -9.4860   -1.4480   -2.7800 os        1 DWD     -0.330900
     19 C22       -10.8460   -1.8630   -2.5650 c3        1 DWD      0.126400
     20 C23       -11.4570   -2.0400   -3.9530 c3        1 DWD     -0.069700
     21 C25       -12.7150   -2.8740   -3.8410 c3        1 DWD     -0.094100
     22 C24       -11.7520   -0.6970   -4.5840 c3        1 DWD     -0.094100
     23 C14        -7.3870   -0.9170   -1.8970 ca        1 DWD     -0.144000
     24 C9         -6.5120   -0.6950   -0.8270 ca        1 DWD     -0.128300
     25 C10        -5.0840   -0.3110   -1.0920 c3        1 DWD      0.243800
     26 C17        -4.4320   -1.3100   -2.1320 c3        1 DWD      0.106400
     27 O18        -4.0860   -0.4900   -3.2900 os        1 DWD     -0.443400
     28 C19        -4.4920    0.8140   -2.9560 c2        1 DWD      0.584500
     29 N21        -4.2280    1.7760   -4.0250 n4        1 DWD     -0.766600
     30 N20        -5.0370    1.0210   -1.7900 n2        1 DWD     -0.488900
     31 H1         -0.3260   -1.0010   -0.5570 h4        1 DWD      0.030100
     32 H2          3.0680    0.9030    0.9840 h5        1 DWD      0.070100
     33 H3         -0.5640    1.6060    2.9480 h4        1 DWD      0.030100
     34 H4         -2.3990    0.0820   -0.8650 ha        1 DWD      0.124000
     35 H5         -2.1530   -0.0620    3.4510 ha        1 DWD      0.160000
     36 H6         -4.6250   -0.4570    3.5800 ha        1 DWD      0.174000
     37 H7         -8.6800   -1.2630    1.7750 ha        1 DWD      0.172000
     38 H8        -10.2460   -1.6590   -0.1310 ha        1 DWD      0.162000
     39 H9        -11.3870   -1.0730   -1.9820 h1        1 DWD      0.048700
     40 H10       -10.8500   -2.8320   -1.9990 h1        1 DWD      0.048700
     41 H11       -10.7100   -2.5850   -4.5970 hc        1 DWD      0.065700
     42 H12       -12.4810   -3.8890   -3.4370 hc        1 DWD      0.042367
     43 H13       -13.4560   -2.3830   -3.1650 hc        1 DWD      0.042367
     44 H14       -13.1820   -2.9930   -4.8490 hc        1 DWD      0.042367
     45 H15       -12.5290   -0.1470   -4.0000 hc        1 DWD      0.042367
     46 H16       -10.8250   -0.0760   -4.6160 hc        1 DWD      0.042367
     47 H17       -12.1280   -0.8360   -5.6260 hc        1 DWD      0.042367
     48 H18        -7.0430   -0.8280   -2.9370 ha        1 DWD      0.138000
     49 H19        -5.1490   -2.0860   -2.4950 h1        1 DWD      0.110700
     50 H20        -3.4770   -1.7570   -1.7630 h1        1 DWD      0.110700
     51 H21        -4.8170    1.5330   -4.8340 hn        1 DWD      0.489800
     52 H22        -3.2360    1.7040   -4.2920 hn        1 DWD      0.489800
     53 H213       -4.4430    2.7310   -3.7040 hn        1 DWD      0.489800
@<TRIPOS>BOND
     1    1    2 ar  
     2    1    6 ar  
     3    1   31 1   
     4    2    3 ar  
     5    3    4 ar  
     6    3   32 1   
     7    4    5 ar  
     8    5    6 ar  
     9    5   33 1   
    10    6    7 1   
    11    7    8 ar  
    12    7   10 ar  
    13    8    9 ar  
    14    8   34 1   
    15    9   12 ar  
    16    9   25 1   
    17   10   11 ar  
    18   10   35 1   
    19   11   12 ar  
    20   11   36 1   
    21   12   13 1   
    22   13   14 1   
    23   14   15 ar  
    24   14   24 ar  
    25   15   16 ar  
    26   15   37 1   
    27   16   17 ar  
    28   16   38 1   
    29   17   18 1   
    30   17   23 ar  
    31   18   19 1   
    32   19   20 1   
    33   19   39 1   
    34   19   40 1   
    35   20   21 1   
    36   20   22 1   
    37   20   41 1   
    38   21   42 1   
    39   21   43 1   
    40   21   44 1   
    41   22   45 1   
    42   22   46 1   
    43   22   47 1   
    44   23   24 ar  
    45   23   48 1   
    46   24   25 1   
    47   25   26 1   
    48   25   30 1   
    49   26   27 1   
    50   26   49 1   
    51   26   50 1   
    52   27   28 1   
    53   28   29 1   
    54   28   30 2   
    55   29   51 1   
    56   29   52 1   
    57   29   53 1   
@<TRIPOS>SUBSTRUCTURE
     1 DWD         1 TEMP              0 ****  ****    0 ROOT
