@<TRIPOS>MOLECULE
DWD
   53    57     1     0     0
SMALL
bcc


@<TRIPOS>ATOM
      1 C26         0.1140   -0.3460    0.1830 ca        1 DWD      0.438200
      2 N27         1.4400   -0.1350    0.0880 nb        1 DWD     -0.680000
      3 C28         1.9850    0.6850    1.0280 ca        1 DWD      0.642900
      4 N29         1.3220    1.3080    2.0420 nb        1 DWD     -0.680000
      5 C30        -0.0030    1.0850    2.1110 ca        1 DWD      0.438200
      6 C15        -0.6830    0.2520    1.1890 cp        1 DWD     -0.288600
      7 C1         -2.1160    0.0260    1.2690 cp        1 DWD     -0.037000
      8 C6         -2.8840   -0.0500    0.1060 ca        1 DWD     -0.089000
      9 C5         -4.2700   -0.2620    0.1650 ca        1 DWD     -0.168300
     10 C2         -2.7460   -0.1150    2.5220 ca        1 DWD     -0.064000
     11 C3         -4.1110   -0.3280    2.6060 ca        1 DWD     -0.133000
     12 C4         -4.8720   -0.3980    1.4210 ca        1 DWD      0.161100
     13 O7         -6.2240   -0.6060    1.6180 os        1 DWD     -0.207200
     14 C8         -6.9950   -0.8070    0.4810 ca        1 DWD      0.109100
     15 C11        -8.3360   -1.1490    0.7390 ca        1 DWD     -0.093000
     16 C12        -9.2010   -1.3670   -0.3220 ca        1 DWD     -0.148000
     17 C13        -8.7280   -1.2490   -1.6420 ca        1 DWD      0.130100
     18 O16        -9.4930   -1.4350   -2.7710 os        1 DWD     -0.330900
     19 C22       -10.8550   -1.8430   -2.5510 c3        1 DWD      0.126400
     20 C23       -11.4690   -2.0230   -3.9380 c3        1 DWD     -0.069700
     21 C25       -12.7310   -2.8510   -3.8210 c3        1 DWD     -0.094100
     22 C24       -11.7590   -0.6810   -4.5750 c3        1 DWD     -0.094100
     23 C14        -7.3910   -0.9120   -1.8930 ca        1 DWD     -0.144000
     24 C9         -6.5120   -0.6900   -0.8260 ca        1 DWD     -0.128300
     25 C10        -5.0820   -0.3150   -1.0950 c3        1 DWD      0.243800
     26 C17        -4.4380   -1.3210   -2.1310 c3        1 DWD      0.106400
     27 O18        -4.0890   -0.5070   -3.2940 os        1 DWD     -0.443400
     28 C19        -4.4870    0.8000   -2.9640 c2        1 DWD      0.584500
     29 N21        -4.2210    1.7560   -4.0370 nz        1 DWD     -0.766600
     30 N20        -5.0290    1.0150   -1.7980 n2        1 DWD     -0.488900
     31 H1         -0.3280   -1.0290   -0.5640 h4        1 DWD      0.030100
     32 H2          3.0800    0.8620    0.9640 h5        1 DWD      0.070100
     33 H3         -0.5450    1.5930    2.9300 h4        1 DWD      0.030100
     34 H4         -2.3950    0.0640   -0.8740 ha        1 DWD      0.124000
     35 H5         -2.1430   -0.0630    3.4430 ha        1 DWD      0.160000
     36 H6         -4.6170   -0.4440    3.5780 ha        1 DWD      0.174000
     37 H7         -8.6790   -1.2350    1.7820 ha        1 DWD      0.172000
     38 H8        -10.2500   -1.6310   -0.1190 ha        1 DWD      0.162000
     39 H9        -10.8630   -2.8090   -1.9820 h1        1 DWD      0.048700
     40 H10       -11.3910   -1.0480   -1.9710 h1        1 DWD      0.048700
     41 H11       -10.7260   -2.5740   -4.5810 hc        1 DWD      0.065700
     42 H12       -12.5010   -3.8650   -3.4130 hc        1 DWD      0.042367
     43 H13       -13.2000   -2.9720   -4.8270 hc        1 DWD      0.042367
     44 H14       -13.4680   -2.3530   -3.1460 hc        1 DWD      0.042367
     45 H15       -12.5320   -0.1250   -3.9920 hc        1 DWD      0.042367
     46 H16       -12.1370   -0.8240   -5.6160 hc        1 DWD      0.042367
     47 H17       -10.8280   -0.0650   -4.6110 hc        1 DWD      0.042367
     48 H18        -7.0480   -0.8290   -2.9340 ha        1 DWD      0.138000
     49 H19        -3.4850   -1.7720   -1.7630 h1        1 DWD      0.110700
     50 H20        -5.1590   -2.0950   -2.4900 h1        1 DWD      0.110700
     51 H21        -3.2320    1.6710   -4.3130 hn        1 DWD      0.489800
     52 H22        -4.8200    1.5200   -4.8400 hn        1 DWD      0.489800
     53 H213       -4.4200    2.7140   -3.7170 hn        1 DWD      0.489800
@<TRIPOS>BOND
     1    1    2 ar  
     2    1    6 ar  
     3    1   31 1   
     4    2    3 ar  
     5    3    4 ar  
     6    3   32 1   
     7    4    5 ar  
     8    5    6 ar  
     9    5   33 1   
    10    6    7 1   
    11    7    8 ar  
    12    7   10 ar  
    13    8    9 ar  
    14    8   34 1   
    15    9   12 ar  
    16    9   25 1   
    17   10   11 ar  
    18   10   35 1   
    19   11   12 ar  
    20   11   36 1   
    21   12   13 1   
    22   13   14 1   
    23   14   15 ar  
    24   14   24 ar  
    25   15   16 ar  
    26   15   37 1   
    27   16   17 ar  
    28   16   38 1   
    29   17   18 1   
    30   17   23 ar  
    31   18   19 1   
    32   19   20 1   
    33   19   39 1   
    34   19   40 1   
    35   20   21 1   
    36   20   22 1   
    37   20   41 1   
    38   21   42 1   
    39   21   43 1   
    40   21   44 1   
    41   22   45 1   
    42   22   46 1   
    43   22   47 1   
    44   23   24 ar  
    45   23   48 1   
    46   24   25 1   
    47   25   26 1   
    48   25   30 1   
    49   26   27 1   
    50   26   49 1   
    51   26   50 1   
    52   27   28 1   
    53   28   29 1   
    54   28   30 2   
    55   29   51 1   
    56   29   52 1   
    57   29   53 1   
@<TRIPOS>SUBSTRUCTURE
     1 DWD         1 TEMP              0 ****  ****    0 ROOT
