@<TRIPOS>MOLECULE
DWD
   53    57     1     0     0
SMALL
bcc


@<TRIPOS>ATOM
      1 C26        -0.1110    1.1640    0.2180 ca        1 DWD      0.439700
      2 N27         1.2190    1.3480    0.1250 nb        1 DWD     -0.680500
      3 C28         1.9780    0.6990    1.0500 ca        1 DWD      0.644900
      4 N29         1.5240   -0.1090    2.0480 nb        1 DWD     -0.680500
      5 C30         0.1910   -0.2800    2.1160 ca        1 DWD      0.439700
      6 C15        -0.7010    0.3420    1.2070 cp        1 DWD     -0.285600
      7 C1         -2.1390    0.1480    1.2820 cp        1 DWD     -0.038000
      8 C6         -2.8930    0.0130    0.1160 ca        1 DWD     -0.088000
      9 C5         -4.2820   -0.1760    0.1680 ca        1 DWD     -0.168300
     10 C2         -2.7870    0.0980    2.5320 ca        1 DWD     -0.064000
     11 C3         -4.1580   -0.0830    2.6100 ca        1 DWD     -0.133000
     12 C4         -4.9040   -0.2170    1.4210 ca        1 DWD      0.161100
     13 O7         -6.2610   -0.3870    1.6120 os        1 DWD     -0.207200
     14 C8         -7.0210   -0.6510    0.4810 ca        1 DWD      0.109100
     15 C11        -8.3730   -0.9460    0.7410 ca        1 DWD     -0.093000
     16 C12        -9.2270   -1.2230   -0.3140 ca        1 DWD     -0.148000
     17 C13        -8.7330   -1.2120   -1.6320 ca        1 DWD      0.130100
     18 O16        -9.4850   -1.4650   -2.7560 os        1 DWD     -0.330900
     19 C22       -10.8590   -1.8280   -2.5290 c3        1 DWD      0.126400
     20 C23       -11.4560   -2.0970   -3.9090 c3        1 DWD     -0.069700
     21 C25       -12.7360   -2.8880   -3.7510 c3        1 DWD     -0.094100
     22 C24       -11.7080   -0.8000   -4.6470 c3        1 DWD     -0.094100
     23 C14        -7.3850   -0.9220   -1.8850 ca        1 DWD     -0.145000
     24 C9         -6.5170   -0.6390   -0.8230 ca        1 DWD     -0.129300
     25 C10        -5.0770   -0.3120   -1.0970 c3        1 DWD      0.242800
     26 C17        -4.4370   -1.4110   -2.0390 c3        1 DWD      0.105400
     27 O18        -4.0720   -0.7030   -3.2640 os        1 DWD     -0.442400
     28 C19        -4.4460    0.6340   -3.0450 c2        1 DWD      0.584500
     29 N21        -4.1570    1.4920   -4.1940 n4        1 DWD     -0.766600
     30 N20        -4.9890    0.9550   -1.9040 n2        1 DWD     -0.490900
     31 H1         -0.7330    1.7040   -0.5160 h4        1 DWD      0.026600
     32 H2          3.0780    0.8440    0.9870 h5        1 DWD      0.070100
     33 H3         -0.1800   -0.9400    2.9220 h4        1 DWD      0.026600
     34 H4         -2.3870    0.0450   -0.8620 ha        1 DWD      0.124000
     35 H5         -2.1970    0.2110    3.4570 ha        1 DWD      0.160000
     36 H6         -4.6790   -0.1200    3.5800 ha        1 DWD      0.174000
     37 H7         -8.7330   -0.9490    1.7820 ha        1 DWD      0.172000
     38 H8        -10.2850   -1.4500   -0.1100 ha        1 DWD      0.162000
     39 H9        -10.8950   -2.7490   -1.8910 h1        1 DWD      0.048700
     40 H10       -11.3860   -0.9810   -2.0180 h1        1 DWD      0.048700
     41 H11       -10.7150   -2.7090   -4.4970 hc        1 DWD      0.065700
     42 H12       -12.5340   -3.8740   -3.2670 hc        1 DWD      0.042367
     43 H13       -13.1930   -3.0730   -4.7540 hc        1 DWD      0.042367
     44 H14       -13.4730   -2.3280   -3.1260 hc        1 DWD      0.042367
     45 H15       -12.0730   -1.0110   -5.6810 hc        1 DWD      0.042367
     46 H16       -10.7640   -0.2070   -4.7120 hc        1 DWD      0.042367
     47 H17       -12.4780   -0.1880   -4.1180 hc        1 DWD      0.042367
     48 H18        -7.0250   -0.9240   -2.9240 ha        1 DWD      0.138000
     49 H19        -5.1670   -2.2030   -2.3370 h1        1 DWD      0.111700
     50 H20        -3.4930   -1.8400   -1.6270 h1        1 DWD      0.111700
     51 H21        -4.7760    1.2170   -4.9690 hn        1 DWD      0.489467
     52 H22        -4.3170    2.4800   -3.9480 hn        1 DWD      0.489467
     53 H213       -3.1770    1.3480   -4.4720 hn        1 DWD      0.489467
@<TRIPOS>BOND
     1    1    2 ar  
     2    1    6 ar  
     3    1   31 1   
     4    2    3 ar  
     5    3    4 ar  
     6    3   32 1   
     7    4    5 ar  
     8    5    6 ar  
     9    5   33 1   
    10    6    7 1   
    11    7    8 ar  
    12    7   10 ar  
    13    8    9 ar  
    14    8   34 1   
    15    9   12 ar  
    16    9   25 1   
    17   10   11 ar  
    18   10   35 1   
    19   11   12 ar  
    20   11   36 1   
    21   12   13 1   
    22   13   14 1   
    23   14   15 ar  
    24   14   24 ar  
    25   15   16 ar  
    26   15   37 1   
    27   16   17 ar  
    28   16   38 1   
    29   17   18 1   
    30   17   23 ar  
    31   18   19 1   
    32   19   20 1   
    33   19   39 1   
    34   19   40 1   
    35   20   21 1   
    36   20   22 1   
    37   20   41 1   
    38   21   42 1   
    39   21   43 1   
    40   21   44 1   
    41   22   45 1   
    42   22   46 1   
    43   22   47 1   
    44   23   24 ar  
    45   23   48 1   
    46   24   25 1   
    47   25   26 1   
    48   25   30 1   
    49   26   27 1   
    50   26   49 1   
    51   26   50 1   
    52   27   28 1   
    53   28   29 1   
    54   28   30 2   
    55   29   51 1   
    56   29   52 1   
    57   29   53 1   
@<TRIPOS>SUBSTRUCTURE
     1 DWD         1 TEMP              0 ****  ****    0 ROOT
