@<TRIPOS>MOLECULE
DWD
   52    56     1     0     0
SMALL
bcc


@<TRIPOS>ATOM
      1 C26         5.2990    0.9840   -0.7390 ca        1 DWD      0.431200
      2 N27         6.5170    1.5580   -0.7500 nb        1 DWD     -0.689000
      3 C28         7.4470    1.0010    0.0730 ca        1 DWD      0.623900
      4 N29         7.2680   -0.0660    0.8980 nb        1 DWD     -0.689000
      5 C30         6.0400   -0.6200    0.8910 ca        1 DWD      0.431200
      6 C15         4.9890   -0.1330    0.0760 cp        1 DWD     -0.255600
      7 C1          3.6720   -0.7440    0.0770 cp        1 DWD     -0.065000
      8 C6          2.5240    0.0460   -0.0440 ca        1 DWD     -0.068000
      9 C5          1.2460   -0.5270   -0.0440 ca        1 DWD     -0.126300
     10 C2          3.5370   -2.1380    0.2030 ca        1 DWD     -0.085000
     11 C3          2.2830   -2.7280    0.2090 ca        1 DWD     -0.150000
     12 C4          1.1400   -1.9160    0.0880 ca        1 DWD      0.144100
     13 O7         -0.0570   -2.6110    0.1050 os        1 DWD     -0.226200
     14 C8         -1.2160   -1.8560   -0.0310 ca        1 DWD      0.093100
     15 C11        -2.3990   -2.6130   -0.0290 ca        1 DWD     -0.111000
     16 C12        -3.6240   -1.9710   -0.1660 ca        1 DWD     -0.171000
     17 C13        -3.6580   -0.5760   -0.3040 ca        1 DWD      0.107100
     18 O16        -4.8110    0.1700   -0.4620 os        1 DWD     -0.330900
     19 C22        -6.0420   -0.5570   -0.3590 c3        1 DWD      0.129400
     20 C23        -7.1570    0.4800   -0.4760 c3        1 DWD     -0.070700
     21 C25        -8.4610   -0.2190   -0.7980 c3        1 DWD     -0.092100
     22 C24        -7.2740    1.2860    0.7990 c3        1 DWD     -0.092100
     23 C14        -2.4730    0.1760   -0.3030 ca        1 DWD     -0.118000
     24 C9         -1.2370   -0.4620   -0.1680 ca        1 DWD     -0.087300
     25 C10         0.0300    0.3560   -0.1640 c3        1 DWD      0.229800
     26 C17         0.1180    1.1890   -1.5040 c3        1 DWD      0.098400
     27 O18         0.1320    2.5690   -1.0870 os        1 DWD     -0.467400
     28 C19         0.0840    2.5680    0.3350 c2        1 DWD      0.752500
     29 N21         0.2090    3.8280    0.9000 nh        1 DWD     -0.872800
     30 N20         0.0040    1.3790    0.9090 n2        1 DWD     -0.666900
     31 H1          4.5400    1.4280   -1.4080 h4        1 DWD      0.031600
     32 H2          8.4550    1.4660    0.0720 h5        1 DWD      0.056100
     33 H3          5.8850   -1.4810    1.5660 h4        1 DWD      0.031600
     34 H4          2.6200    1.1410   -0.1270 ha        1 DWD      0.146000
     35 H5          4.4360   -2.7680    0.2930 ha        1 DWD      0.140000
     36 H6          2.1630   -3.8170    0.3080 ha        1 DWD      0.155000
     37 H7         -2.3420   -3.7050    0.0840 ha        1 DWD      0.154000
     38 H8         -4.5470   -2.5660   -0.1630 ha        1 DWD      0.144000
     39 H9         -6.1010   -1.3000   -1.1980 h1        1 DWD      0.040700
     40 H10        -6.0880   -1.0890    0.6260 h1        1 DWD      0.040700
     41 H11        -6.8960    1.1790   -1.3200 hc        1 DWD      0.066700
     42 H12        -8.7190   -0.9580   -0.0020 hc        1 DWD      0.038533
     43 H13        -9.2870    0.5300   -0.8670 hc        1 DWD      0.038533
     44 H14        -8.3880   -0.7580   -1.7740 hc        1 DWD      0.038533
     45 H15        -8.0360    2.0930    0.6770 hc        1 DWD      0.038533
     46 H16        -7.5830    0.6340    1.6520 hc        1 DWD      0.038533
     47 H17        -6.2900    1.7530    1.0450 hc        1 DWD      0.038533
     48 H18        -2.5290    1.2700   -0.4060 ha        1 DWD      0.154000
     49 H19         1.0650    1.0010   -2.0630 h1        1 DWD      0.075200
     50 H20        -0.7790    1.0510   -2.1540 h1        1 DWD      0.075200
     51 H21        -0.1270    3.9060    1.8350 hn        1 DWD      0.426800
     52 H22        -0.0330    4.5760    0.2890 hn        1 DWD      0.426800
@<TRIPOS>BOND
     1    1    2 ar  
     2    1    6 ar  
     3    1   31 1   
     4    2    3 ar  
     5    3    4 ar  
     6    3   32 1   
     7    4    5 ar  
     8    5    6 ar  
     9    5   33 1   
    10    6    7 1   
    11    7    8 ar  
    12    7   10 ar  
    13    8    9 ar  
    14    8   34 1   
    15    9   12 ar  
    16    9   25 1   
    17   10   11 ar  
    18   10   35 1   
    19   11   12 ar  
    20   11   36 1   
    21   12   13 1   
    22   13   14 1   
    23   14   15 ar  
    24   14   24 ar  
    25   15   16 ar  
    26   15   37 1   
    27   16   17 ar  
    28   16   38 1   
    29   17   18 1   
    30   17   23 ar  
    31   18   19 1   
    32   19   20 1   
    33   19   39 1   
    34   19   40 1   
    35   20   21 1   
    36   20   22 1   
    37   20   41 1   
    38   21   42 1   
    39   21   43 1   
    40   21   44 1   
    41   22   45 1   
    42   22   46 1   
    43   22   47 1   
    44   23   24 ar  
    45   23   48 1   
    46   24   25 1   
    47   25   26 1   
    48   25   30 1   
    49   26   27 1   
    50   26   49 1   
    51   26   50 1   
    52   27   28 1   
    53   28   29 1   
    54   28   30 2   
    55   29   51 1   
    56   29   52 1   
@<TRIPOS>SUBSTRUCTURE
     1 DWD         1 TEMP              0 ****  ****    0 ROOT
