@<TRIPOS>MOLECULE
DWF
   67    67     1     0     0
SMALL
bcc


@<TRIPOS>ATOM
      1 C4          0.9250   -1.8040   -0.2890 c2        1 DWF      0.177000
      2 C5          2.2190   -2.1760   -0.6730 c2        1 DWF     -0.296000
      3 C6          3.3100   -1.6940    0.0940 c1        1 DWF     -0.078000
      4 N1          3.0440   -0.8870    1.1450 n3        1 DWF     -0.173000
      5 N3          0.6490   -0.9900    0.7890 n2        1 DWF     -0.267000
      6 CAA         0.0210    4.5980    7.8530 c3        1 DWF     -0.953000
      7 SBP        -0.2380    3.1950    6.9520 s6        1 DWF      2.819000
      8 OAD        -0.7720    2.2000    7.7790 o         1 DWF     -0.924000
      9 OAE        -0.9170    3.5150    5.7740 o         1 DWF     -0.924000
     10 CBG         1.5890    1.6140    5.7700 c2        1 DWF      0.047000
     11 CAS         2.0360    1.6880    4.4970 c2        1 DWF     -0.190000
     12 CAJ         1.2830    0.3380    6.3870 c2        1 DWF     -0.478000
     13 CAH         1.7170   -0.8490    5.9790 c1        1 DWF      0.185000
     14 CAK         3.0310   -0.5270    4.1750 c2        1 DWF     -0.285000
     15 CBJ         2.2200    0.4600    3.7000 c2        1 DWF      0.085000
     16 C2          1.7200   -0.5220    1.4870 c2        1 DWF      0.175000
     17 OBC        -0.1100   -2.3050   -1.0600 os        1 DWF     -0.135000
     18 CBN        -1.4210   -1.9780   -0.7100 c2        1 DWF      0.040000
     19 CBK        -2.1110   -1.1040   -1.5060 c2        1 DWF      0.099000
     20 FAG        -1.4960   -0.4280   -2.5020 f         1 DWF     -0.082000
     21 CAT        -3.5240   -0.8050   -1.2860 c2        1 DWF     -0.217000
     22 CAR        -1.9950   -2.6590    0.4270 c2        1 DWF     -0.407000
     23 CAQ        -3.2840   -2.7950    0.6870 c1        1 DWF      0.151000
     24 CBI        -4.4590   -1.7810   -1.1890 c2        1 DWF      0.012000
     25 NBA        -5.8120   -1.6210   -0.9190 n         1 DWF     -0.306000
     26 CBE        -6.4770   -0.4200   -0.7000 c2        1 DWF      0.354000
     27 OAC        -5.9200    0.6870   -0.8270 o         1 DWF     -0.350000
     28 CBO        -7.9200   -0.5420   -0.3420 c2        1 DWF     -0.227000
     29 CAU        -7.5270   -1.7300    1.8330 c3        1 DWF     -0.222000
     30 CAV        -8.3650   -1.1250    0.7830 c2        1 DWF     -0.032000
     31 CBD        -8.9100    0.0300   -1.3100 c2        1 DWF      0.344000
     32 OAB        -9.9890   -0.5540   -1.5210 o         1 DWF     -0.333000
     33 NAZ        -8.5700    1.2290   -1.9150 n         1 DWF     -0.315000
     34 CBH        -9.3460    1.9110   -2.8510 c2        1 DWF      0.034000
     35 CAO        -9.7850   -0.4100   -6.5700 c2        1 DWF     -0.119000
     36 CAM       -10.7910    0.0410   -5.8930 c1        1 DWF     -0.206000
     37 CBF       -11.7990    0.5080   -5.1770 c2        1 DWF      0.135000
     38 FAF       -13.0900    0.3320   -5.5750 f         1 DWF     -0.109000
     39 CAN       -11.6360    1.2420   -3.9160 c2        1 DWF     -0.044000
     40 CAP       -10.4870    1.5370   -3.3790 c1        1 DWF     -0.200000
     41 H1          2.4020   -2.8190   -1.5410 ha        1 DWF      0.180000
     42 H2          3.8040   -0.5370    1.6880 hn        1 DWF      0.266000
     43 H3          0.4720    5.4310    7.2590 h1        1 DWF      0.160000
     44 H4          0.6790    4.4450    8.7430 h1        1 DWF      0.160000
     45 H5         -0.9450    5.0010    8.2560 h1        1 DWF      0.160000
     46 H6          1.9880    2.6680    7.5580 h1        1 DWF      0.159000
     47 H7          1.9090    3.7000    6.0960 h1        1 DWF      0.159000
     48 H8          2.2510    2.6440    3.9990 ha        1 DWF      0.161000
     49 H9          0.6140    0.3630    7.2770 ha        1 DWF      0.212000
     50 H10         3.7340   -0.3260    5.0000 ha        1 DWF      0.151500
     51 H11         3.1270   -1.5200    3.7200 ha        1 DWF      0.151500
     52 H12         0.5530    0.7970    2.5580 hn        1 DWF      0.265000
     53 H13        -3.7660    0.2700   -1.2030 ha        1 DWF      0.191000
     54 H14        -1.2640   -3.0870    1.1470 ha        1 DWF      0.207000
     55 H15        -4.1970   -2.8440   -1.3990 h4        1 DWF      0.158000
     56 H16        -6.3290   -2.4600   -0.7680 hn        1 DWF      0.248000
     57 H17        -7.5880   -2.8470    1.7620 hc        1 DWF      0.105000
     58 H18        -6.4540   -1.4290    1.7580 hc        1 DWF      0.105000
     59 H19        -9.4580   -1.1640    0.9630 ha        1 DWF      0.157000
     60 H20        -7.9050   -1.4270    2.8420 hc        1 DWF      0.105000
     61 H21        -7.6970    1.6490   -1.6710 hn        1 DWF      0.262000
     62 H22        -9.3670   -1.4150   -6.4010 ha        1 DWF      0.132000
     63 H23        -9.2870    0.1830   -7.3520 ha        1 DWF      0.132000
     64 H24       -12.5840    1.5410   -3.4290 ha        1 DWF      0.153000
     65 H25        -8.8960    2.8840   -3.1500 h4        1 DWF      0.155000
     66 NBB         1.4800    0.4200    2.5120 n3        1 DWF     -0.262000
     67 CAW         1.4130    2.8290    6.6040 c3        1 DWF     -0.815000
@<TRIPOS>BOND
     1    1    2 1   
     2    1    5 1   
     3    1   17 1   
     4    2    3 1   
     5    2   41 1   
     6    3    4 1   
     7    4   16 1   
     8    4   42 1   
     9    5   16 1   
    10    6    7 1   
    11    6   43 1   
    12    6   44 1   
    13    6   45 1   
    14    7    8 1   
    15    7    9 1   
    16    7   67 1   
    17   10   11 1   
    18   10   12 1   
    19   10   67 1   
    20   11   15 1   
    21   11   48 1   
    22   12   13 1   
    23   12   49 1   
    24   14   15 1   
    25   14   50 1   
    26   14   51 1   
    27   15   66 1   
    28   16   66 1   
    29   17   18 1   
    30   18   19 1   
    31   18   22 1   
    32   19   20 1   
    33   19   21 1   
    34   21   24 1   
    35   21   53 1   
    36   22   23 1   
    37   22   54 1   
    38   24   25 1   
    39   24   55 1   
    40   25   26 1   
    41   25   56 1   
    42   26   27 1   
    43   26   28 1   
    44   28   30 1   
    45   28   31 1   
    46   29   30 1   
    47   29   57 1   
    48   29   58 1   
    49   29   60 1   
    50   30   59 1   
    51   31   32 1   
    52   31   33 1   
    53   33   34 1   
    54   33   61 1   
    55   34   40 1   
    56   34   65 1   
    57   35   36 1   
    58   35   62 1   
    59   35   63 1   
    60   36   37 1   
    61   37   38 1   
    62   37   39 1   
    63   39   40 1   
    64   39   64 1   
    65   46   67 1   
    66   47   67 1   
    67   52   66 1   
@<TRIPOS>SUBSTRUCTURE
     1 DWF         1 TEMP              0 ****  ****    0 ROOT
