@<TRIPOS>MOLECULE
DWF
   67    67     1     0     0
SMALL
bcc


@<TRIPOS>ATOM
      1 C4          0.3690   -0.0160    0.0300 c2        1 DWF      0.180000
      2 C5          1.6920    0.4080   -0.1550 c2        1 DWF     -0.300000
      3 C6          2.5070    0.5760    0.9920 c1        1 DWF     -0.088000
      4 N1          1.9710    0.2990    2.2010 n3        1 DWF     -0.176000
      5 N3         -0.1810   -0.2980    1.2610 n2        1 DWF     -0.266000
      6 CAA         4.0540    4.7330    7.0240 c3        1 DWF     -0.954000
      7 SBP         2.5980    3.8850    7.1030 s6        1 DWF      2.816000
      8 OAD         2.3920    3.4340    8.4120 o         1 DWF     -0.922000
      9 OAE         1.5890    4.6260    6.4870 o         1 DWF     -0.922000
     10 CBG         2.0130    1.4960    5.9920 c2        1 DWF     -0.043000
     11 CAS         1.2520    1.3700    4.8740 c2        1 DWF     -0.163000
     12 CAJ         1.8950    0.5640    7.1810 c3        1 DWF     -0.142000
     13 CAH         0.5090   -0.0160    7.2150 c2        1 DWF     -0.062000
     14 CAK         0.0240   -0.2550    6.0090 c1        1 DWF     -0.260000
     15 CBJ         0.4080    0.1530    4.7820 c2        1 DWF      0.111000
     16 C2          0.6340   -0.1440    2.3410 c2        1 DWF      0.177000
     17 OBC        -0.3990   -0.1330   -1.1150 os        1 DWF     -0.135000
     18 CBN        -1.7210   -0.5670   -0.9890 c2        1 DWF      0.035000
     19 CBK        -2.7290    0.3460   -1.1470 c2        1 DWF      0.104000
     20 FAG        -2.4630    1.6690   -1.2420 f         1 DWF     -0.084000
     21 CAT        -4.1370   -0.0380   -1.1600 c2        1 DWF     -0.229000
     22 CAR        -1.9340   -1.9800   -0.7850 c2        1 DWF     -0.415000
     23 CAQ        -3.0520   -2.6460   -1.0240 c1        1 DWF      0.167000
     24 CBI        -4.6140   -1.0120   -1.9740 c2        1 DWF      0.020000
     25 NBA        -5.9130   -1.4950   -2.0320 n         1 DWF     -0.305000
     26 CBE        -6.9780   -1.0660   -1.2620 c2        1 DWF      0.311000
     27 OAC        -6.9070   -0.1120   -0.4610 o         1 DWF     -0.369000
     28 CBO        -8.3040   -1.8150   -1.4480 c3        1 DWF     -0.125000
     29 CAU        -9.4170   -3.3560    0.1490 c2        1 DWF     -0.180000
     30 CAV        -8.8640   -2.1750   -0.1150 c2        1 DWF     -0.177000
     31 CBD        -9.2810   -0.9230   -2.2260 c2        1 DWF      0.311000
     32 OAB        -9.7790   -1.3350   -3.2890 o         1 DWF     -0.348000
     33 NAZ        -9.5600    0.3160   -1.6760 n         1 DWF     -0.302000
     34 CBH       -10.4110    1.2740   -2.2120 c2        1 DWF      0.044000
     35 CAO        -8.1360   -3.2570   -5.1910 c2        1 DWF     -0.503000
     36 CAM        -7.2480   -3.0960   -4.2600 c1        1 DWF      0.085000
     37 CBF       -12.6360    1.1790   -5.4030 c2        1 DWF      0.050000
     38 FAF       -12.7420    0.1570   -6.2780 f         1 DWF     -0.104000
     39 CAN       -11.8630    1.1520   -4.3350 c1        1 DWF     -0.128000
     40 CAP       -11.1420    1.1760   -3.3070 c1        1 DWF     -0.127000
     41 H1          2.0970    0.6170   -1.1500 ha        1 DWF      0.178000
     42 H2          2.5400    0.4040    3.0150 hn        1 DWF      0.264000
     43 H3          4.3770    4.9760    5.9820 h1        1 DWF      0.160333
     44 H4          4.9080    4.1970    7.5070 h1        1 DWF      0.160333
     45 H5          3.9750    5.7190    7.5530 h1        1 DWF      0.160333
     46 H6          3.9830    2.0620    6.5020 h1        1 DWF      0.157500
     47 H7          3.3160    2.9140    5.0740 h1        1 DWF      0.157500
     48 H8          1.2650    2.1040    4.0570 ha        1 DWF      0.157000
     49 H9          2.0520    1.1450    8.1320 hc        1 DWF      0.132500
     50 H10         2.7010   -0.2130    7.1150 hc        1 DWF      0.132500
     51 H11        -0.0250   -0.0980    8.1660 ha        1 DWF      0.160000
     52 H12        -0.7000   -1.0790    3.6050 hn        1 DWF      0.270000
     53 H13        -4.7800    0.5240   -0.4590 ha        1 DWF      0.189000
     54 H14        -1.0660   -2.5380   -0.3740 ha        1 DWF      0.203000
     55 H15        -3.9630   -1.4800   -2.7490 h4        1 DWF      0.159000
     56 H16        -6.0820   -2.2430   -2.6900 hn        1 DWF      0.284000
     57 H17        -9.5070   -4.1570   -0.5960 ha        1 DWF      0.122500
     58 H18        -8.1640   -2.7480   -2.0720 hc        1 DWF      0.150000
     59 H19        -8.7760   -1.3850    0.6520 ha        1 DWF      0.146000
     60 H20        -9.8220   -3.5950    1.1420 ha        1 DWF      0.122500
     61 H21        -9.0460    0.5790   -0.8570 hn        1 DWF      0.264000
     62 H22        -9.1060   -2.7130   -5.1260 ha        1 DWF      0.216000
     63 H23        -8.0550   -3.8900   -6.0860 ha        1 DWF      0.216000
     64 H24       -13.2610    2.0520   -5.6620 h4        1 DWF      0.154000
     65 H25       -10.4500    2.2090   -1.6110 h4        1 DWF      0.160000
     66 NBB         0.1410   -0.5340    3.6030 n3        1 DWF     -0.242000
     67 CAW         3.0490    2.5470    6.1040 c3        1 DWF     -0.813000
@<TRIPOS>BOND
     1    1    2 1   
     2    1    5 1   
     3    1   17 1   
     4    2    3 1   
     5    2   41 1   
     6    3    4 1   
     7    4   16 1   
     8    4   42 1   
     9    5   16 1   
    10    6    7 1   
    11    6   43 1   
    12    6   44 1   
    13    6   45 1   
    14    7    8 1   
    15    7    9 1   
    16    7   67 1   
    17   10   11 1   
    18   10   12 1   
    19   10   67 1   
    20   11   15 1   
    21   11   48 1   
    22   12   13 1   
    23   12   49 1   
    24   12   50 1   
    25   13   14 1   
    26   13   51 1   
    27   14   15 1   
    28   15   66 1   
    29   16   66 1   
    30   17   18 1   
    31   18   19 1   
    32   18   22 1   
    33   19   20 1   
    34   19   21 1   
    35   21   24 1   
    36   21   53 1   
    37   22   23 1   
    38   22   54 1   
    39   24   25 1   
    40   24   55 1   
    41   25   26 1   
    42   25   56 1   
    43   26   27 1   
    44   26   28 1   
    45   28   30 1   
    46   28   31 1   
    47   28   58 1   
    48   29   30 1   
    49   29   57 1   
    50   29   60 1   
    51   30   59 1   
    52   31   32 1   
    53   31   33 1   
    54   33   34 1   
    55   33   61 1   
    56   34   40 1   
    57   34   65 1   
    58   35   36 1   
    59   35   62 1   
    60   35   63 1   
    61   37   38 1   
    62   37   39 1   
    63   37   64 1   
    64   39   40 1   
    65   46   67 1   
    66   47   67 1   
    67   52   66 1   
@<TRIPOS>SUBSTRUCTURE
     1 DWF         1 TEMP              0 ****  ****    0 ROOT
