@<TRIPOS>MOLECULE
DWF
   67    67     1     0     0
SMALL
bcc


@<TRIPOS>ATOM
      1 C4          0.2280   -0.3130    0.7480 c2        1 DWF      0.178000
      2 C5          1.5790   -0.0020    0.5510 c2        1 DWF     -0.300000
      3 C6          2.3650    0.3090    1.6890 c1        1 DWF     -0.087000
      4 N1          1.7750    0.2710    2.9040 n7        1 DWF     -0.171000
      5 N3         -0.3790   -0.3490    1.9840 n2        1 DWF     -0.273000
      6 CAA         4.4520    5.0790    6.5450 c3        1 DWF     -0.954000
      7 SBP         3.6180    3.7750    7.2200 s6        1 DWF      2.822000
      8 OAD         4.5180    2.9500    7.9020 o         1 DWF     -0.924000
      9 OAE         2.4950    4.2460    7.9030 o         1 DWF     -0.924000
     10 CBG         2.2250    1.8630    5.9150 c2        1 DWF      0.057000
     11 CAS         1.0550    1.7880    5.2400 c2        1 DWF     -0.217000
     12 CAJ         2.6290    0.8040    6.8180 c2        1 DWF     -0.495000
     13 CAH         1.8270   -0.1220    7.3390 c1        1 DWF      0.201000
     14 CAK        -0.2790    0.3320    6.6850 c2        1 DWF     -0.257000
     15 CBJ         0.1670    0.6300    5.4300 c2        1 DWF      0.079000
     16 C2          0.4090   -0.0600    3.0580 c2        1 DWF      0.183000
     17 OBC        -0.5100   -0.5790   -0.3930 os        1 DWF     -0.135000
     18 CBN        -1.8530   -0.9310   -0.2480 c2        1 DWF      0.038000
     19 CBK        -2.8160   -0.0190   -0.5850 c2        1 DWF      0.100000
     20 FAG        -2.4970    1.2610   -0.8810 f         1 DWF     -0.083000
     21 CAT        -4.2370   -0.3560   -0.5850 c2        1 DWF     -0.226000
     22 CAR        -2.1410   -2.2850    0.1670 c2        1 DWF     -0.414000
     23 CAQ        -3.2900   -2.9200    0.0070 c1        1 DWF      0.162000
     24 CBI        -4.7270   -1.4150   -1.2750 c2        1 DWF      0.021000
     25 NBA        -6.0390   -1.8680   -1.2960 ns        1 DWF     -0.296000
     26 CBE        -7.1110   -1.3010   -0.6340 c2        1 DWF      0.298000
     27 OAC        -7.0190   -0.2690    0.0570 o         1 DWF     -0.352000
     28 CBO        -8.4750   -2.0190   -0.7320 c3        1 DWF     -0.177000
     29 CAU        -8.3700   -3.3930   -0.0510 c3        1 DWF     -0.200000
     30 CAV        -9.5330   -1.2970   -0.0050 c1        1 DWF     -0.011000
     31 CBD        -8.8550   -2.2600   -2.2080 c2        1 DWF      0.328000
     32 OAB        -8.0690   -2.8690   -2.9660 o         1 DWF     -0.396000
     33 NAZ       -10.0950   -1.8530   -2.6250 ns        1 DWF     -0.347000
     34 CBH       -10.5100   -1.9380   -4.0020 c3        1 DWF      0.076000
     35 CAO       -10.0680    1.3520   -8.4990 c1        1 DWF     -0.146000
     36 CAM       -10.4060    1.4810   -7.3600 c1        1 DWF     -0.216000
     37 CBF       -10.7900    1.6490   -5.9650 c3        1 DWF      0.304000
     38 FAF       -12.0550    2.2220   -5.8420 f         1 DWF     -0.148000
     39 CAN       -10.7030    0.3770   -5.2590 c1        1 DWF     -0.177000
     40 CAP       -10.6120   -0.6630   -4.6780 c1        1 DWF     -0.145000
     41 H1          2.0300    0.0130   -0.4460 ha        1 DWF      0.178000
     42 H2          2.3240    0.4830    3.7120 hn        1 DWF      0.270000
     43 H3          3.7760    5.8380    6.0790 h1        1 DWF      0.160333
     44 H4          5.1940    4.7880    5.7620 h1        1 DWF      0.160333
     45 H5          5.0370    5.6300    7.3270 h1        1 DWF      0.160333
     46 H6          4.0640    2.6150    5.2120 h1        1 DWF      0.162000
     47 H7          2.6920    3.7540    5.0400 h1        1 DWF      0.162000
     48 H8          0.7190    2.5690    4.5430 ha        1 DWF      0.162000
     49 H9          3.7010    0.7790    7.1140 ha        1 DWF      0.210000
     50 H10        -0.1580    1.0500    7.5120 ha        1 DWF      0.152500
     51 H11        -0.8950   -0.5470    6.9120 ha        1 DWF      0.152500
     52 H12        -1.0710   -0.6140    4.3750 hn        1 DWF      0.259000
     53 H13        -4.8760    0.3170    0.0150 ha        1 DWF      0.190000
     54 H14        -1.3070   -2.8150    0.6750 ha        1 DWF      0.204000
     55 H15        -4.0730   -2.0040   -1.9600 h4        1 DWF      0.160000
     56 H16        -6.2310   -2.6500   -1.8950 hn        1 DWF      0.273000
     57 H17        -9.3870   -3.8340    0.0870 hc        1 DWF      0.110000
     58 H18        -7.8730   -3.2890    0.9430 hc        1 DWF      0.110000
     59 H19        -7.7670   -4.0790   -0.6950 hc        1 DWF      0.110000
     60 H20        -9.2180   -0.7560    0.9000 ha        1 DWF      0.087000
     61 H21       -10.6810   -1.3570   -1.9860 hn        1 DWF      0.263000
     62 H22        -9.7800   -2.5930   -4.5690 h1        1 DWF      0.128500
     63 H23        -9.7660    1.2400   -9.5110 ha        1 DWF      0.229000
     64 H24       -10.0500    2.3690   -5.4790 h1        1 DWF      0.125000
     65 H25       -11.5280   -2.4350   -4.0270 h1        1 DWF      0.128500
     66 NBB        -0.1720   -0.1770    4.3370 n7        1 DWF     -0.266000
     67 CAW         3.1510    3.0080    5.7450 c3        1 DWF     -0.820000
@<TRIPOS>BOND
     1    1    2 1   
     2    1    5 1   
     3    1   17 1   
     4    2    3 1   
     5    2   41 1   
     6    3    4 1   
     7    4   16 1   
     8    4   42 1   
     9    5   16 1   
    10    6    7 1   
    11    6   43 1   
    12    6   44 1   
    13    6   45 1   
    14    7    8 1   
    15    7    9 1   
    16    7   67 1   
    17   10   11 1   
    18   10   12 1   
    19   10   67 1   
    20   11   15 1   
    21   11   48 1   
    22   12   13 1   
    23   12   49 1   
    24   14   15 1   
    25   14   50 1   
    26   14   51 1   
    27   15   66 1   
    28   16   66 1   
    29   17   18 1   
    30   18   19 1   
    31   18   22 1   
    32   19   20 1   
    33   19   21 1   
    34   21   24 1   
    35   21   53 1   
    36   22   23 1   
    37   22   54 1   
    38   24   25 1   
    39   24   55 1   
    40   25   26 1   
    41   25   56 1   
    42   26   27 1   
    43   26   28 1   
    44   28   29 1   
    45   28   30 1   
    46   28   31 1   
    47   29   57 1   
    48   29   58 1   
    49   29   59 1   
    50   30   60 1   
    51   31   32 1   
    52   31   33 1   
    53   33   34 1   
    54   33   61 1   
    55   34   40 1   
    56   34   62 1   
    57   34   65 1   
    58   35   36 1   
    59   35   63 1   
    60   36   37 1   
    61   37   38 1   
    62   37   39 1   
    63   37   64 1   
    64   39   40 1   
    65   46   67 1   
    66   47   67 1   
    67   52   66 1   
@<TRIPOS>SUBSTRUCTURE
     1 DWF         1 TEMP              0 ****  ****    0 ROOT
