@<TRIPOS>MOLECULE
DWH
   37    33     1     0     0
SMALL
bcc


@<TRIPOS>ATOM
      1 C1          0.5500   -4.8590   -0.9060 c1        1 DWH     -0.847000
      2 N1          2.4380   -6.9260   -1.0600 n3        1 DWH     -0.953000
      3 O1          0.4320   -6.8830   -2.6240 o         1 DWH     -0.938000
      4 S1          0.8520   -6.5650   -1.2880 s6        1 DWH      2.869000
      5 C2          0.1900   -4.3880    0.3470 c1        1 DWH     -0.001000
      6 O2          0.0050   -7.4310   -0.5160 o         1 DWH     -0.938000
      7 C3         -0.3910   -3.1350    0.4760 c1        1 DWH     -0.147000
      8 C4         -0.6120   -2.3550   -0.6480 c1        1 DWH      0.128000
      9 C5         -0.2520   -2.8270   -1.9020 c2        1 DWH     -0.197000
     10 C6          0.3290   -4.0790   -2.0300 c1        1 DWH      0.001000
     11 N7         -1.2990   -1.1170   -0.5280 n2        1 DWH     -0.247000
     12 C8         -0.6220    0.0250   -0.0240 c2        1 DWH      0.219000
     13 N9         -1.1010    1.2520   -0.2740 n2        1 DWH     -0.276500
     14 C10        -0.5070    2.3270    0.2650 c1        1 DWH      0.157500
     15 N11        -1.0200    3.6250    0.0080 n2        1 DWH     -0.246000
     16 N12         0.5660    2.1750    1.0560 n2        1 DWH     -0.263000
     17 C13         1.0450    0.9470    1.3060 c1        1 DWH      0.157500
     18 CL13        2.4210    0.7470    2.3580 cl        1 DWH      0.069000
     19 N14         0.4510   -0.1280    0.7670 n2        1 DWH     -0.276500
     20 C15        -1.2360    4.5300    1.0840 c3        1 DWH     -0.035000
     21 C16        -0.6160    5.8690    0.7480 c2        1 DWH      0.265000
     22 C17        -0.0430    8.0440    1.4610 c3        1 DWH     -0.064000
     23 O17        -0.0760    6.6680    1.7700 os        1 DWH     -0.270000
     24 O18        -0.6040    6.2620   -0.4010 o         1 DWH     -0.350000
     25 HN11       -1.2310    3.8710   -0.8440 hn        1 DWH      0.239000
     26 HN1         2.7120   -7.3080   -0.2760 hn        1 DWH      0.243000
     27 H2          0.3460   -4.9380    1.1380 ha        1 DWH      0.156000
     28 H3         -0.6440   -2.8030    1.3580 ha        1 DWH      0.165000
     29 H5         -0.4070   -2.2770   -2.6930 ha        1 DWH      0.142000
     30 H15        -0.8240    4.1740    1.8980 h1        1 DWH      0.149000
     31 H15A       -2.1990    4.6430    1.2270 h1        1 DWH      0.149000
     32 H6          0.5820   -4.4110   -2.9120 ha        1 DWH      0.157000
     33 HN7        -2.1720   -1.0530   -0.7840 hn        1 DWH      0.258000
     34 H17         0.7270    8.2310    0.8820 h1        1 DWH      0.093667
     35 H17A       -0.8700    8.2950    0.9970 h1        1 DWH      0.093667
     36 H17B        0.0380    8.5630    2.2900 h1        1 DWH      0.093667
     37 HN1A        3.0440   -6.7650   -1.7250 hn        1 DWH      0.243000
@<TRIPOS>BOND
     1    1    4 1   
     2    1    5 1   
     3    2    4 1   
     4    2   26 1   
     5    2   37 1   
     6    3    4 1   
     7    4    6 1   
     8    5   27 1   
     9    7    8 1   
    10    7   28 1   
    11    8    9 1   
    12    9   10 1   
    13    9   29 1   
    14   10   32 1   
    15   11   12 1   
    16   11   33 1   
    17   12   13 1   
    18   12   19 1   
    19   13   14 1   
    20   14   16 1   
    21   15   20 1   
    22   15   25 1   
    23   16   17 1   
    24   17   19 1   
    25   20   21 1   
    26   20   30 1   
    27   20   31 1   
    28   21   23 1   
    29   21   24 1   
    30   22   23 1   
    31   22   34 1   
    32   22   35 1   
    33   22   36 1   
@<TRIPOS>SUBSTRUCTURE
     1 DWH         1 TEMP              0 ****  ****    0 ROOT
