@<TRIPOS>MOLECULE
DWH
   40    41     1     0     0
SMALL
bcc


@<TRIPOS>ATOM
      1 C1          0.0460   -0.2800    0.4410 ca        1 DWH     -0.427500
      2 N1         -0.3340   -1.8150   -1.7790 n4        1 DWH     -0.808500
      3 O1         -2.0770   -0.2070   -0.9050 o         1 DWH     -0.519300
      4 S1         -0.7120   -0.1430   -1.0380 sy        1 DWH      1.448200
      5 C2          1.3610    0.1840    0.6170 ca        1 DWH      0.024000
      6 O2         -0.0150    0.6900   -1.8780 o         1 DWH     -0.519300
      7 C3          1.9550    0.2300    1.8780 ca        1 DWH     -0.105000
      8 C4          1.2180   -0.2040    2.9950 ca        1 DWH      0.045600
      9 C5         -0.0960   -0.6780    2.8480 ca        1 DWH     -0.105000
     10 C6         -0.6650   -0.7110    1.5730 ca        1 DWH      0.024000
     11 N7          1.8550   -0.2040    4.3250 n4        1 DWH     -0.633100
     12 C8          1.4710    0.9710    5.1840 ca        1 DWH      0.812900
     13 N9          2.5020    1.5920    5.8540 nb        1 DWH     -0.696000
     14 C10         2.0670    2.5870    6.7090 ca        1 DWH      0.844900
     15 N11         3.1060    3.2660    7.5500 n4        1 DWH     -0.742700
     16 N12         0.7760    3.0110    6.8620 nb        1 DWH     -0.649000
     17 C13        -0.1600    2.3320    6.1070 ca        1 DWH      0.821000
     18 CL13       -1.7720    2.7960    6.2430 cl        1 DWH      0.113000
     19 N14         0.1450    1.2850    5.2550 nb        1 DWH     -0.672000
     20 C15         2.7990    3.1650    9.0170 c3        1 DWH      0.038800
     21 C16         2.3740    1.7650    9.4250 c         1 DWH      0.639100
     22 C17         2.0580    0.2870   11.2680 c3        1 DWH      0.123700
     23 O17         2.4900    1.5640   10.7410 os        1 DWH     -0.364900
     24 O18         1.9500    0.9090    8.6380 o         1 DWH     -0.584000
     25 HN11        4.0290    2.8370    7.3630 hn        1 DWH      0.503800
     26 HN1         0.2160   -2.4350   -1.1880 hn        1 DWH      0.479467
     27 H2          1.9430    0.5530   -0.2560 ha        1 DWH      0.209000
     28 H3          2.9910    0.6070    1.9650 ha        1 DWH      0.197500
     29 H5         -0.7000   -1.0140    3.7130 ha        1 DWH      0.197500
     30 H15         1.9600    3.8830    9.2780 hx        1 DWH      0.174700
     31 H15A        3.7320    3.4740    9.5850 hx        1 DWH      0.174700
     32 H6         -1.7150   -1.0600    1.4730 ha        1 DWH      0.209000
     33 HN7         1.5630   -1.0580    4.8400 hn        1 DWH      0.506300
     34 H17         2.2680    0.4030   12.3640 h1        1 DWH      0.090033
     35 H17A        2.6640   -0.5280   10.8080 h1        1 DWH      0.090033
     36 H17B        0.9700    0.1510   11.0620 h1        1 DWH      0.090033
     37 HN1A        0.1820   -1.7100   -2.6620 hn        1 DWH      0.479467
     38 H13        -1.2030   -2.3130   -2.0090 hn        1 DWH      0.479467
     39 H72         2.8860   -0.2210    4.2120 hn        1 DWH      0.506300
     40 H112        3.1380    4.2680    7.2860 hn        1 DWH      0.503800
@<TRIPOS>BOND
     1    1    4 1   
     2    1    5 ar  
     3    1   10 ar  
     4    2    4 1   
     5    2   26 1   
     6    2   37 1   
     7    2   38 1   
     8    3    4 2   
     9    4    6 2   
    10    5    7 ar  
    11    5   27 1   
    12    7    8 ar  
    13    7   28 1   
    14    8    9 ar  
    15    8   11 1   
    16    9   10 ar  
    17    9   29 1   
    18   10   32 1   
    19   11   12 1   
    20   11   33 1   
    21   11   39 1   
    22   12   13 ar  
    23   12   19 ar  
    24   13   14 ar  
    25   14   15 1   
    26   14   16 ar  
    27   15   20 1   
    28   15   25 1   
    29   15   40 1   
    30   16   17 ar  
    31   17   18 1   
    32   17   19 ar  
    33   20   21 1   
    34   20   30 1   
    35   20   31 1   
    36   21   23 1   
    37   21   24 2   
    38   22   23 1   
    39   22   34 1   
    40   22   35 1   
    41   22   36 1   
@<TRIPOS>SUBSTRUCTURE
     1 DWH         1 TEMP              0 ****  ****    0 ROOT
