@<TRIPOS>MOLECULE
DWH
   38    39     1     0     0
SMALL
bcc


@<TRIPOS>ATOM
      1 C1          0.2810    0.1230   -0.3610 ca        1 DWH     -0.653500
      2 N1         -1.3570   -1.4550   -1.7610 nz        1 DWH     -0.780500
      3 O1         -1.1990    1.0680   -2.1500 o         1 DWH     -0.579800
      4 S1         -0.2230    0.1420   -1.8460 sy        1 DWH      1.517200
      5 C2          1.4990   -0.5070    0.0110 ca        1 DWH      0.049000
      6 O2          0.6750   -0.2920   -2.7990 o         1 DWH     -0.579800
      7 C3          1.9750   -0.4800    1.2950 ca        1 DWH     -0.214000
      8 C4          1.2490    0.1920    2.3400 ca        1 DWH      0.331600
      9 C5          0.0380    0.8520    1.9690 ca        1 DWH     -0.214000
     10 C6         -0.4110    0.8120    0.6730 ca        1 DWH      0.049000
     11 N7          1.7830    0.1660    3.5980 nu        1 DWH     -0.699300
     12 C8          1.2040    0.6320    4.8130 ca        1 DWH      0.922900
     13 N9          2.0890    0.7560    5.8570 nb        1 DWH     -0.812000
     14 C10         1.5180    1.1750    7.0640 ca        1 DWH      0.952900
     15 N11         2.3590    1.3160    8.1390 nu        1 DWH     -0.828900
     16 N12         0.1520    1.4530    7.2250 nb        1 DWH     -0.767000
     17 C13        -0.5940    1.2860    6.1070 ca        1 DWH      0.808000
     18 Cl13       -2.2750    1.6100    6.2370 cl        1 DWH     -0.066000
     19 N14        -0.1520    0.8810    4.8700 nb        1 DWH     -0.807000
     20 C15         1.8860    1.7470    9.4310 c3        1 DWH      0.166800
     21 C16         3.0160    1.8200   10.4370 c         1 DWH      0.616100
     22 C17         3.5650    2.3310   12.6920 c3        1 DWH      0.124700
     23 O17         2.5770    2.2250   11.6590 os        1 DWH     -0.421900
     24 O18         4.2090    1.5660   10.2660 o         1 DWH     -0.531000
     25 HN11        3.3360    1.1240    8.0340 hn        1 DWH      0.488800
     26 HN1        -1.3510   -1.8750   -0.8390 hn        1 DWH      0.447133
     27 H2          2.0870   -1.0240   -0.7730 ha        1 DWH      0.166000
     28 H3          2.9320   -0.9800    1.5240 ha        1 DWH      0.186500
     29 H5         -0.5520    1.4170    2.7120 ha        1 DWH      0.186500
     30 H15         1.1060    1.0300    9.8250 h1        1 DWH      0.105200
     31 H15A        1.4110    2.7700    9.3560 h1        1 DWH      0.105200
     32 H6         -1.3410    1.3550    0.4120 ha        1 DWH      0.166000
     33 HN7         2.7120   -0.2080    3.6910 hn        1 DWH      0.483800
     34 H17         4.3390    3.0790   12.3980 h1        1 DWH      0.062700
     35 H17A        4.0350    1.3340   12.8680 h1        1 DWH      0.062700
     36 H17B        2.9730    2.6730   13.5770 h1        1 DWH      0.062700
     37 HN1A       -2.3160   -1.2150   -1.9950 hn        1 DWH      0.447133
     38 H13        -1.0350   -2.1480   -2.4300 hn        1 DWH      0.447133
@<TRIPOS>BOND
     1    1    4 1   
     2    1    5 ar  
     3    1   10 ar  
     4    2    4 1   
     5    2   26 1   
     6    2   37 1   
     7    2   38 1   
     8    3    4 2   
     9    4    6 2   
    10    5    7 ar  
    11    5   27 1   
    12    7    8 ar  
    13    7   28 1   
    14    8    9 ar  
    15    8   11 1   
    16    9   10 ar  
    17    9   29 1   
    18   10   32 1   
    19   11   12 1   
    20   11   33 1   
    21   12   13 ar  
    22   12   19 ar  
    23   13   14 ar  
    24   14   15 1   
    25   14   16 ar  
    26   15   20 1   
    27   15   25 1   
    28   16   17 ar  
    29   17   18 1   
    30   17   19 ar  
    31   20   21 1   
    32   20   30 1   
    33   20   31 1   
    34   21   23 1   
    35   21   24 2   
    36   22   23 1   
    37   22   34 1   
    38   22   35 1   
    39   22   36 1   
@<TRIPOS>SUBSTRUCTURE
     1 DWH         1 TEMP              0 ****  ****    0 ROOT
