@<TRIPOS>MOLECULE
DWH
   38    39     1     0     0
SMALL
bcc


@<TRIPOS>ATOM
      1 C1          0.2890    0.1200   -0.3630 ca        1 DWH     -0.653500
      2 N1         -1.3600   -1.4460   -1.7630 n4        1 DWH     -0.780500
      3 O1         -1.1760    1.0750   -2.1590 o         1 DWH     -0.579800
      4 S1         -0.2100    0.1400   -1.8490 sy        1 DWH      1.517200
      5 C2          1.5000   -0.5210    0.0150 ca        1 DWH      0.049000
      6 O2          0.6860   -0.3060   -2.7980 o         1 DWH     -0.579800
      7 C3          1.9720   -0.4950    1.3000 ca        1 DWH     -0.214000
      8 C4          1.2500    0.1870    2.3410 ca        1 DWH      0.331600
      9 C5          0.0470    0.8580    1.9640 ca        1 DWH     -0.214000
     10 C6         -0.3990    0.8190    0.6670 ca        1 DWH      0.049000
     11 N7          1.7810    0.1600    3.6000 nh        1 DWH     -0.699300
     12 C8          1.2030    0.6350    4.8120 ca        1 DWH      0.922900
     13 N9          2.0860    0.7510    5.8600 nb        1 DWH     -0.812000
     14 C10         1.5160    1.1790    7.0630 ca        1 DWH      0.952900
     15 N11         2.3550    1.3120    8.1420 nh        1 DWH     -0.828900
     16 N12         0.1530    1.4740    7.2190 nb        1 DWH     -0.767000
     17 C13        -0.5920    1.3130    6.0990 ca        1 DWH      0.809000
     18 CL13       -2.2690    1.6580    6.2230 cl        1 DWH     -0.066000
     19 N14        -0.1500    0.9000    4.8650 nb        1 DWH     -0.807000
     20 C15         1.8830    1.7510    9.4300 c3        1 DWH      0.166800
     21 C16         3.0100    1.8110   10.4410 c         1 DWH      0.616100
     22 C17         3.5560    2.3170   12.6970 c3        1 DWH      0.124700
     23 O17         2.5710    2.2220   11.6610 os        1 DWH     -0.421900
     24 O18         4.2010    1.5420   10.2750 o         1 DWH     -0.531000
     25 HN11        3.3300    1.1080    8.0400 hn        1 DWH      0.488800
     26 HN1        -1.3600   -1.8640   -0.8400 hn        1 DWH      0.447133
     27 H2          2.0840   -1.0460   -0.7660 ha        1 DWH      0.166000
     28 H3          2.9240   -1.0030    1.5330 ha        1 DWH      0.186500
     29 H5         -0.5390    1.4320    2.7040 ha        1 DWH      0.186500
     30 H15         1.4210    2.7800    9.3530 h1        1 DWH      0.105200
     31 H15A        1.0920    1.0440    9.8220 h1        1 DWH      0.105200
     32 H6         -1.3220    1.3710    0.4030 ha        1 DWH      0.166000
     33 HN7         2.7060   -0.2240    3.6980 hn        1 DWH      0.483800
     34 H17         4.0140    1.3150   12.8760 h1        1 DWH      0.062700
     35 H17A        4.3410    3.0560   12.4060 h1        1 DWH      0.062700
     36 H17B        2.9650    2.6670   13.5800 h1        1 DWH      0.062700
     37 HN1A       -2.3160   -1.1970   -2.0000 hn        1 DWH      0.447133
     38 H13        -1.0430   -2.1440   -2.4290 hn        1 DWH      0.447133
@<TRIPOS>BOND
     1    1    4 1   
     2    1    5 ar  
     3    1   10 ar  
     4    2    4 1   
     5    2   26 1   
     6    2   37 1   
     7    2   38 1   
     8    3    4 2   
     9    4    6 2   
    10    5    7 ar  
    11    5   27 1   
    12    7    8 ar  
    13    7   28 1   
    14    8    9 ar  
    15    8   11 1   
    16    9   10 ar  
    17    9   29 1   
    18   10   32 1   
    19   11   12 1   
    20   11   33 1   
    21   12   13 ar  
    22   12   19 ar  
    23   13   14 ar  
    24   14   15 1   
    25   14   16 ar  
    26   15   20 1   
    27   15   25 1   
    28   16   17 ar  
    29   17   18 1   
    30   17   19 ar  
    31   20   21 1   
    32   20   30 1   
    33   20   31 1   
    34   21   23 1   
    35   21   24 2   
    36   22   23 1   
    37   22   34 1   
    38   22   35 1   
    39   22   36 1   
@<TRIPOS>SUBSTRUCTURE
     1 DWH         1 TEMP              0 ****  ****    0 ROOT
