@<TRIPOS>MOLECULE
DWH
   37    38     1     0     0
SMALL
bcc


@<TRIPOS>ATOM
      1 C1         -4.5570    0.4890    0.0460 ca        1 DWH     -0.404500
      2 N1         -6.8430    0.8980   -1.0770 n3        1 DWH     -1.027700
      3 O1         -6.4010   -1.2280    0.0710 o         1 DWH     -0.658800
      4 S1         -6.2050    0.1630    0.1980 sy        1 DWH      1.531200
      5 C2         -3.9870    1.6100    0.6610 ca        1 DWH      0.000500
      6 O2         -6.6750    0.7900    1.3720 o         1 DWH     -0.658800
      7 C3         -2.6300    1.8760    0.5640 ca        1 DWH     -0.174500
      8 C4         -1.7830    1.0060   -0.1680 ca        1 DWH      0.210600
      9 C5         -2.3520   -0.1240   -0.7930 ca        1 DWH     -0.174500
     10 C6         -3.7150   -0.3680   -0.6700 ca        1 DWH      0.000500
     11 N7         -0.4280    1.3530   -0.3080 nh        1 DWH     -0.725300
     12 C8          0.6480    0.4660   -0.1750 ca        1 DWH      0.938900
     13 N9          1.9050    1.0500   -0.1510 nb        1 DWH     -0.835000
     14 C10         2.9670    0.1590   -0.0640 ca        1 DWH      0.946900
     15 N11         4.2380    0.7040   -0.0110 nh        1 DWH     -0.856900
     16 N12         2.8300   -1.2310   -0.0020 nb        1 DWH     -0.802000
     17 C13         1.5400   -1.6640   -0.0210 ca        1 DWH      0.806000
     18 CL13        1.3040   -3.3680    0.0650 cl        1 DWH     -0.097000
     19 N14         0.4110   -0.9030   -0.1010 nb        1 DWH     -0.791000
     20 C15         5.4110   -0.1250   -0.0040 c3        1 DWH      0.179800
     21 C16         6.6800    0.6980   -0.0540 c         1 DWH      0.616100
     22 C17         9.0540    0.5930    0.0170 c3        1 DWH      0.125700
     23 O17         7.7930   -0.0820    0.0600 os        1 DWH     -0.429900
     24 O18         6.8120    1.9160   -0.1860 o         1 DWH     -0.536000
     25 HN11        4.3510    1.6900   -0.1210 hn        1 DWH      0.477800
     26 HN1        -7.1670    1.8310   -1.0650 hn        1 DWH      0.446800
     27 H2         -4.6310    2.2830    1.2560 ha        1 DWH      0.156000
     28 H3         -2.2190    2.7650    1.0660 ha        1 DWH      0.154500
     29 H5         -1.7370   -0.8230   -1.3790 ha        1 DWH      0.154500
     30 H15         5.4340   -0.7560    0.9340 h1        1 DWH      0.096700
     31 H15A        5.4200   -0.8260   -0.8910 h1        1 DWH      0.096700
     32 H6         -4.1430   -1.2730   -1.1410 ha        1 DWH      0.156000
     33 HN7        -0.2130    2.3190   -0.1520 hn        1 DWH      0.458800
     34 H17         9.1690    1.1200   -0.9600 h1        1 DWH      0.056700
     35 H17A        9.1220    1.3230    0.8590 h1        1 DWH      0.056700
     36 H17B        9.7960   -0.2360    0.1290 h1        1 DWH      0.056700
     37 HN1A       -6.9810    0.4560   -1.9500 hn        1 DWH      0.446800
@<TRIPOS>BOND
     1    1    4 1   
     2    1    5 ar  
     3    1   10 ar  
     4    2    4 1   
     5    2   26 1   
     6    2   37 1   
     7    3    4 2   
     8    4    6 2   
     9    5    7 ar  
    10    5   27 1   
    11    7    8 ar  
    12    7   28 1   
    13    8    9 ar  
    14    8   11 1   
    15    9   10 ar  
    16    9   29 1   
    17   10   32 1   
    18   11   12 1   
    19   11   33 1   
    20   12   13 ar  
    21   12   19 ar  
    22   13   14 ar  
    23   14   15 1   
    24   14   16 ar  
    25   15   20 1   
    26   15   25 1   
    27   16   17 ar  
    28   17   18 1   
    29   17   19 ar  
    30   20   21 1   
    31   20   30 1   
    32   20   31 1   
    33   21   23 1   
    34   21   24 2   
    35   22   23 1   
    36   22   34 1   
    37   22   35 1   
    38   22   36 1   
@<TRIPOS>SUBSTRUCTURE
     1 DWH         1 TEMP              0 ****  ****    0 ROOT
