@<TRIPOS>MOLECULE
DWN
   58    60     1     0     0
SMALL
bcc


@<TRIPOS>ATOM
      1 O4          1.4070    1.1010   -0.2540 o         1 DWN     -0.547100
      2 C4          2.5790    1.0810    0.1330 c         1 DWN      0.506100
      3 C5          2.9770    0.7360    1.5550 c3        1 DWN      0.057100
      4 C6          1.8590    0.0600    2.3260 c3        1 DWN     -0.082100
      5 O5          4.0820   -0.1630    1.5730 os        1 DWN     -0.428600
      6 C3          3.7240    1.4950   -0.8000 c3        1 DWN      0.088500
      7 N3          4.1100    2.8830   -0.6440 n3        1 DWN     -0.913800
      8 C2          4.8960    0.5280   -0.6050 c3        1 DWN     -0.117400
      9 C1          5.2330    0.3050    0.8740 c3        1 DWN      0.365900
     10 O1          5.6160    1.4770    1.5010 os        1 DWN     -0.608200
     11 P2          7.1340    1.5780    2.1560 p5        1 DWN      1.577800
     12 O3P         7.0840    2.5150    3.2750 o         1 DWN     -0.817500
     13 O4P         7.7310    0.2460    2.0460 o         1 DWN     -0.817500
     14 OPP         7.7690    2.4960    0.8710 os        1 DWN     -0.808800
     15 P           8.3520    3.4250   -0.2280 p5        1 DWN      1.799500
     16 O1P         7.5430    2.9940   -1.5280 oh        1 DWN     -0.778400
     17 O2P         9.7910    3.6110   -0.3760 o         1 DWN     -0.871300
     18 O5X         7.6470    4.8560    0.0510 os        1 DWN     -0.607200
     19 C5X         8.0980    5.6120    1.1440 c3        1 DWN      0.178400
     20 C4X         9.0740    6.7040    0.6780 c3        1 DWN      0.072100
     21 O4X         8.7800    7.9160    1.3940 os        1 DWN     -0.430600
     22 C3X        10.5630    6.3610    0.9150 c3        1 DWN      0.139100
     23 O3X        11.2500    6.2130   -0.3090 oh        1 DWN     -0.623800
     24 C2X        11.1410    7.5800    1.6450 c3        1 DWN     -0.107400
     25 C1X         9.9150    8.3620    2.1450 c3        1 DWN      0.308500
     26 N11         9.6310    8.3030    3.5850 n         1 DWN     -0.379000
     27 C21         9.8700    7.1350    4.3650 c         1 DWN      0.808500
     28 O21        10.5430    6.1720    3.9440 o         1 DWN     -0.628500
     29 N31         9.3870    7.1010    5.6860 n         1 DWN     -0.582500
     30 C61         8.7890    9.2830    4.1000 cc        1 DWN      0.046600
     31 C51         8.3050    9.2640    5.3720 cd        1 DWN     -0.266400
     32 C5A         7.4550   10.3350    5.9250 c3        1 DWN     -0.024900
     33 C41         8.6080    8.1200    6.2510 c         1 DWN      0.719700
     34 O41         8.2330    8.0120    7.4320 o         1 DWN     -0.626500
     35 H1          3.2820    1.7000    2.0570 h1        1 DWN      0.082700
     36 H2          1.6180   -0.9300    1.8710 hc        1 DWN      0.044700
     37 H3          2.1740   -0.0980    3.3840 hc        1 DWN      0.044700
     38 H4          0.9490    0.7050    2.2940 hc        1 DWN      0.044700
     39 H5          3.3470    1.3860   -1.8630 h1        1 DWN      0.065700
     40 H6          4.6120    3.0180    0.2150 hn        1 DWN      0.366800
     41 H7          6.5910    3.0100   -1.4620 ho        1 DWN      0.487000
     42 H9          5.8050    0.9070   -1.1390 hc        1 DWN      0.063200
     43 H10         4.6140   -0.4610   -1.0470 hc        1 DWN      0.063200
     44 H11         5.9990   -0.5180    1.0140 h2        1 DWN      0.123700
     45 H14         7.1920    6.1030    1.5980 h1        1 DWN      0.062700
     46 H15         8.5730    4.9320    1.9030 h1        1 DWN      0.062700
     47 H16         8.8920    6.9430   -0.4060 h1        1 DWN      0.088700
     48 H17        10.6690    5.4360    1.5470 h1        1 DWN      0.090700
     49 H18        11.1210    5.2920   -0.5940 ho        1 DWN      0.461000
     50 H19        11.7060    8.2240    0.9240 hc        1 DWN      0.080700
     51 H20        11.8340    7.2680    2.4610 hc        1 DWN      0.080700
     52 H21        10.0150    9.4640    1.9010 h2        1 DWN      0.069700
     53 H22         9.5430    6.2560    6.1960 hn        1 DWN      0.356500
     54 H23         8.5440   10.1100    3.4050 h4        1 DWN      0.160000
     55 H24         6.4140    9.9530    6.0820 hc        1 DWN      0.045367
     56 H25         7.4140   11.2160    5.2400 hc        1 DWN      0.045367
     57 H26         7.8520   10.6640    6.9180 hc        1 DWN      0.045367
     58 H33         3.3010    3.4710   -0.6550 hn        1 DWN      0.366800
@<TRIPOS>BOND
     1    1    2 2   
     2    2    3 1   
     3    2    6 1   
     4    3    4 1   
     5    3    5 1   
     6    3   35 1   
     7    4   36 1   
     8    4   37 1   
     9    4   38 1   
    10    5    9 1   
    11    6    7 1   
    12    6    8 1   
    13    6   39 1   
    14    7   40 1   
    15    7   58 1   
    16    8    9 1   
    17    8   42 1   
    18    8   43 1   
    19    9   10 1   
    20    9   44 1   
    21   10   11 1   
    22   11   12 1   
    23   11   13 1   
    24   11   14 1   
    25   14   15 1   
    26   15   16 1   
    27   15   17 2   
    28   15   18 1   
    29   16   41 1   
    30   18   19 1   
    31   19   20 1   
    32   19   45 1   
    33   19   46 1   
    34   20   21 1   
    35   20   22 1   
    36   20   47 1   
    37   21   25 1   
    38   22   23 1   
    39   22   24 1   
    40   22   48 1   
    41   23   49 1   
    42   24   25 1   
    43   24   50 1   
    44   24   51 1   
    45   25   26 1   
    46   25   52 1   
    47   26   27 1   
    48   26   30 1   
    49   27   28 2   
    50   27   29 1   
    51   29   33 1   
    52   29   53 1   
    53   30   31 2   
    54   30   54 1   
    55   31   32 1   
    56   31   33 1   
    57   32   55 1   
    58   32   56 1   
    59   32   57 1   
    60   33   34 2   
@<TRIPOS>SUBSTRUCTURE
     1 DWN         1 TEMP              0 ****  ****    0 ROOT
