@<TRIPOS>MOLECULE
DWN
   57    59     1     0     0
SMALL
bcc


@<TRIPOS>ATOM
      1 O4          6.3210   -2.4470   -1.6260 o         1 DWN     -0.566100
      2 C4          5.5020   -1.8170   -0.9490 c         1 DWN      0.551100
      3 C5          4.9400   -2.4130    0.3390 c3        1 DWN      0.060100
      4 C6          5.6330   -1.8030    1.5460 c3        1 DWN     -0.122100
      5 O5          3.5320   -2.3140    0.4250 os        1 DWN     -0.424600
      6 C3          4.9660   -0.4360   -1.2870 c3        1 DWN      0.074500
      7 N3          5.4970    0.1340   -2.5110 n3        1 DWN     -0.899800
      8 C2          3.4360   -0.5180   -1.2150 c3        1 DWN     -0.189400
      9 C1          3.0220   -0.9810    0.1850 c3        1 DWN      0.393900
     10 O1          1.6660   -1.1770    0.2990 os        1 DWN     -0.556200
     11 P2          0.8290   -0.0180    1.1650 p5        1 DWN      1.602800
     12 O3P        -0.5980   -0.4130    1.1600 o         1 DWN     -0.873000
     13 O4P         1.6310    0.2510    2.3690 o         1 DWN     -0.873000
     14 OPP         1.0060    1.1690    0.0670 os        1 DWN     -0.832800
     15 P           1.0040    2.3660   -1.0380 p5        1 DWN      1.605800
     16 O1P         2.3200    2.4260   -1.7010 o         1 DWN     -0.876500
     17 O2P         0.2720    3.5110   -0.4530 o         1 DWN     -0.876500
     18 O5X        -0.0650    1.7550   -2.1500 os        1 DWN     -0.593200
     19 C5X        -1.1760    1.0480   -1.7090 c3        1 DWN      0.171400
     20 C4X        -2.4170    1.9500   -1.5810 c3        1 DWN      0.070100
     21 O4X        -3.5830    1.1830   -1.9460 os        1 DWN     -0.428600
     22 C3X        -2.6410    2.5100   -0.1600 c3        1 DWN      0.139100
     23 O3X        -2.5920    3.9220   -0.1520 oh        1 DWN     -0.649800
     24 C2X        -4.0560    2.0770    0.2360 c3        1 DWN     -0.120400
     25 C1X        -4.5120    1.1010   -0.8660 c3        1 DWN      0.301500
     26 N11        -4.6550   -0.2880   -0.4040 n         1 DWN     -0.375000
     27 C21        -5.8670   -0.9570   -0.6840 c         1 DWN      0.801500
     28 O21        -6.8600   -0.3810   -1.1980 o         1 DWN     -0.698500
     29 N31        -5.9840   -2.3120   -0.3350 n         1 DWN     -0.596500
     30 C61        -3.5940   -0.9900    0.1540 cc        1 DWN      0.065600
     31 C51        -3.6950   -2.3090    0.5040 cd        1 DWN     -0.273400
     32 C5A        -2.5720   -3.0370    1.1280 c3        1 DWN     -0.043900
     33 C41        -4.9370   -3.0450    0.2580 c         1 DWN      0.715700
     34 O41        -5.1590   -4.2440    0.5230 o         1 DWN     -0.668500
     35 H1          5.1230   -3.5290    0.3280 h1        1 DWN      0.065700
     36 H2          5.1760   -2.2140    2.4780 hc        1 DWN      0.042700
     37 H3          6.7200   -2.0490    1.5260 hc        1 DWN      0.042700
     38 H4          5.5100   -0.6930    1.5620 hc        1 DWN      0.042700
     39 H5          5.3140    0.2500   -0.4520 h1        1 DWN      0.080700
     40 H6          5.3490   -0.5000   -3.2730 hn        1 DWN      0.354800
     41 H7          4.9990    0.9870   -2.7040 hn        1 DWN      0.354800
     42 H9          2.9820    0.5000   -1.4160 hc        1 DWN      0.099700
     43 H10         3.0380   -1.2330   -1.9770 hc        1 DWN      0.099700
     44 H11         3.4060   -0.2820    0.9870 h2        1 DWN      0.057700
     45 H14        -1.4030    0.2630   -2.4850 h1        1 DWN      0.051200
     46 H15        -0.9560    0.5410   -0.7250 h1        1 DWN      0.051200
     47 H16        -2.3620    2.7880   -2.3290 h1        1 DWN      0.078700
     48 H17        -1.8900    2.0910    0.5640 h1        1 DWN      0.091700
     49 H18        -1.6470    4.1640   -0.2030 ho        1 DWN      0.478000
     50 H19        -4.0550    1.6150    1.2510 hc        1 DWN      0.064700
     51 H20        -4.7440    2.9590    0.2490 hc        1 DWN      0.064700
     52 H21        -5.5100    1.4050   -1.3050 h2        1 DWN      0.095700
     53 H22        -6.8470   -2.7590   -0.5450 hn        1 DWN      0.326500
     54 H23        -2.6370   -0.4220    0.3220 h4        1 DWN      0.260000
     55 H24        -1.7060   -2.3430    1.3070 hc        1 DWN      0.060033
     56 H25        -2.8970   -3.4810    2.1010 hc        1 DWN      0.060033
     57 H26        -2.2390   -3.8710    0.4610 hc        1 DWN      0.060033
@<TRIPOS>BOND
     1    1    2 2   
     2    2    3 1   
     3    2    6 1   
     4    3    4 1   
     5    3    5 1   
     6    3   35 1   
     7    4   36 1   
     8    4   37 1   
     9    4   38 1   
    10    5    9 1   
    11    6    7 1   
    12    6    8 1   
    13    6   39 1   
    14    7   40 1   
    15    7   41 1   
    16    8    9 1   
    17    8   42 1   
    18    8   43 1   
    19    9   10 1   
    20    9   44 1   
    21   10   11 1   
    22   11   12 1   
    23   11   13 1   
    24   11   14 1   
    25   14   15 1   
    26   15   16 1   
    27   15   17 1   
    28   15   18 1   
    29   18   19 1   
    30   19   20 1   
    31   19   45 1   
    32   19   46 1   
    33   20   21 1   
    34   20   22 1   
    35   20   47 1   
    36   21   25 1   
    37   22   23 1   
    38   22   24 1   
    39   22   48 1   
    40   23   49 1   
    41   24   25 1   
    42   24   50 1   
    43   24   51 1   
    44   25   26 1   
    45   25   52 1   
    46   26   27 1   
    47   26   30 1   
    48   27   28 2   
    49   27   29 1   
    50   29   33 1   
    51   29   53 1   
    52   30   31 2   
    53   30   54 1   
    54   31   32 1   
    55   31   33 1   
    56   32   55 1   
    57   32   56 1   
    58   32   57 1   
    59   33   34 2   
@<TRIPOS>SUBSTRUCTURE
     1 DWN         1 TEMP              0 ****  ****    0 ROOT
