@<TRIPOS>MOLECULE
DWN
   57    54     1     0     0
SMALL
bcc


@<TRIPOS>ATOM
      1 O4         -7.1340   -4.0400   -2.3360 o         1 DWN     -0.346000
      2 C4         -6.0690   -3.9970   -1.7420 c1        1 DWN      0.224000
      3 C5         -6.0140   -3.4930   -0.2980 c2        1 DWN     -0.009000
      4 C6         -7.3210   -3.7670    0.4330 c3        1 DWN     -0.196000
      5 O5         -4.8430   -4.0840    0.3870 os        1 DWN     -0.300000
      6 C3         -4.7700   -3.8010   -2.5150 c3        1 DWN     -0.049000
      7 N3         -4.5300   -2.3640   -2.8670 n3        1 DWN     -0.350000
      8 C2         -3.6450   -4.3890   -1.7370 c3        1 DWN     -0.241000
      9 C1         -3.5870   -3.9200   -0.3250 c3        1 DWN      0.195000
     10 O1         -3.2270   -2.5300   -0.3150 os        1 DWN     -0.759000
     11 P2         -2.3990   -1.9680    0.9270 p3        1 DWN      2.703000
     12 O3P        -3.2160   -0.8960    1.6420 o         1 DWN     -1.176500
     13 O4P        -2.1000   -3.1010    1.8890 o         1 DWN     -1.176500
     14 OPP        -1.0310   -1.3350    0.4110 o         1 DWN     -1.252500
     15 P          -0.1070   -0.4110    1.3000 p3        1 DWN      2.728000
     16 O1P        -0.8050    0.8850    1.5650 os        1 DWN     -1.208000
     17 O2P         0.1780   -1.0910    2.5860 o         1 DWN     -1.252500
     18 O5X         1.2840   -0.1260    0.5220 os        1 DWN     -0.734000
     19 C5X         2.1870    0.8790    1.0660 c3        1 DWN      0.059000
     20 C4X         3.5440    0.2510    1.3300 c3        1 DWN     -0.054000
     21 O4X         4.5780    0.6240    0.1330 os        1 DWN     -0.283000
     22 C3X         4.0530    0.7320    2.4150 c3        1 DWN      0.039000
     23 O3X         4.9050   -0.2900    3.0820 oh        1 DWN     -0.367000
     24 C2X         4.9350    1.9530    1.9470 c3        1 DWN     -0.208000
     25 C1X         5.0350    1.8210    0.4020 c3        1 DWN      0.155000
     26 N11         4.2340    2.8100   -0.2350 n3        1 DWN     -0.269000
     27 C21         3.5550    2.4950   -1.5010 c1        1 DWN      0.395000
     28 O21         3.4300    1.3300   -1.8570 o         1 DWN     -0.398000
     29 N31         3.0290    3.5600   -2.3250 n2        1 DWN     -0.373000
     30 C61         4.2580    4.1390    0.2380 c2        1 DWN      0.072000
     31 C51         3.6710    5.2120   -0.5710 c1        1 DWN     -0.268000
     32 C5A         3.8040    6.6350   -0.1360 c3        1 DWN     -0.146000
     33 C41         2.9990    4.8900   -1.8270 c1        1 DWN      0.359000
     34 O41         2.5080    5.7850   -2.5030 o         1 DWN     -0.378000
     35 H1         -5.9790   -2.5130   -0.2620 h4        1 DWN      0.128000
     36 H2         -7.5140   -4.7350    0.4130 hc        1 DWN      0.071000
     37 H3         -7.2440   -3.4720    1.3500 hc        1 DWN      0.071000
     38 H4         -8.0440   -3.2830   -0.0040 hc        1 DWN      0.071000
     39 H5         -4.8280   -4.2020   -3.3940 h1        1 DWN      0.089000
     40 H6         -3.8400   -2.3090   -3.4810 hn        1 DWN      0.181500
     41 H7         -5.2910   -2.0060   -3.2290 hn        1 DWN      0.181500
     42 H9         -3.7390   -5.3640   -1.7400 hc        1 DWN      0.108000
     43 H10        -2.8030   -4.1560   -2.1800 hc        1 DWN      0.108000
     44 H11        -2.8920   -4.4270    0.1440 h2        1 DWN      0.143000
     45 H14         2.2850    1.6050    0.4280 h1        1 DWN      0.053500
     46 H15         1.8180    1.2320    1.9110 h1        1 DWN      0.053500
     47 H16         3.4560   -0.7110    1.4030 h1        1 DWN      0.140000
     48 H17         3.3340    1.0410    3.0290 h1        1 DWN      0.120000
     49 H18         4.7850   -0.2530    3.9250 ho        1 DWN      0.283000
     50 H19         4.4970    2.8070    2.1920 hc        1 DWN      0.105000
     51 H20         5.8320    1.9010    2.3520 hc        1 DWN      0.105000
     52 H21         5.9730    1.9030    0.1110 h2        1 DWN      0.139000
     53 H22         2.6040    3.3580   -3.1190 hn        1 DWN      0.249000
     54 H23         4.7020    4.3510    1.0820 h4        1 DWN      0.202000
     55 H24         4.2410    7.1540   -0.8410 hc        1 DWN      0.087000
     56 H25         4.3450    6.6770    0.6850 hc        1 DWN      0.087000
     57 H26         2.9150    7.0080    0.0390 hc        1 DWN      0.087000
@<TRIPOS>BOND
     1    1    2 1   
     2    2    6 1   
     3    3    4 1   
     4    3    5 1   
     5    3   35 1   
     6    4   36 1   
     7    4   37 1   
     8    4   38 1   
     9    5    9 1   
    10    6    7 1   
    11    6    8 1   
    12    6   39 1   
    13    7   40 1   
    14    7   41 1   
    15    8    9 1   
    16    8   42 1   
    17    8   43 1   
    18    9   10 1   
    19    9   44 1   
    20   10   11 1   
    21   11   12 1   
    22   11   13 1   
    23   14   15 1   
    24   15   17 1   
    25   15   18 1   
    26   18   19 1   
    27   19   20 1   
    28   19   45 1   
    29   19   46 1   
    30   20   21 1   
    31   20   22 1   
    32   20   47 1   
    33   21   25 1   
    34   22   23 1   
    35   22   24 1   
    36   22   48 1   
    37   23   49 1   
    38   24   25 1   
    39   24   50 1   
    40   24   51 1   
    41   25   26 1   
    42   25   52 1   
    43   26   27 1   
    44   26   30 1   
    45   27   28 1   
    46   29   33 1   
    47   29   53 1   
    48   30   31 1   
    49   30   54 1   
    50   31   32 1   
    51   32   55 1   
    52   32   56 1   
    53   32   57 1   
    54   33   34 1   
@<TRIPOS>SUBSTRUCTURE
     1 DWN         1 TEMP              0 ****  ****    0 ROOT
