@<TRIPOS>MOLECULE
DWN
   58    60     1     0     0
SMALL
bcc


@<TRIPOS>ATOM
      1 O4          1.4200    1.0470   -0.2140 o         1 DWN     -0.547100
      2 C4          2.6020    1.0410    0.1410 c         1 DWN      0.506100
      3 C5          3.0450    0.6580    1.5390 c3        1 DWN      0.057100
      4 C6          1.9640   -0.0660    2.3170 c3        1 DWN     -0.082100
      5 O5          4.1690   -0.2170    1.4980 os        1 DWN     -0.428600
      6 C3          3.7120    1.5100   -0.8090 c3        1 DWN      0.088500
      7 N3          4.0730    2.9000   -0.6170 n3        1 DWN     -0.913800
      8 C2          4.9090    0.5630   -0.6770 c3        1 DWN     -0.117400
      9 C1          5.2910    0.2990    0.7840 c3        1 DWN      0.365900
     10 O1          5.6660    1.4580    1.4390 os        1 DWN     -0.608200
     11 P2          7.1990    1.5710    2.0570 p5        1 DWN      1.577800
     12 O3P         7.1600    2.4710    3.2060 o         1 DWN     -0.817500
     13 O4P         7.8200    0.2570    1.8880 o         1 DWN     -0.817500
     14 OPP         7.7800    2.5430    0.7850 os        1 DWN     -0.808800
     15 P           8.3130    3.5180   -0.2980 p5        1 DWN      1.799500
     16 O1P         7.4780    3.1130   -1.5890 oh        1 DWN     -0.778400
     17 O2P         9.7430    3.7400   -0.4790 o         1 DWN     -0.871300
     18 O5X         7.5870    4.9250    0.0460 os        1 DWN     -0.607200
     19 C5X         8.0530    5.6550    1.1500 c3        1 DWN      0.178400
     20 C4X         8.9950    6.7810    0.6950 c3        1 DWN      0.072100
     21 O4X         8.6960    7.9630    1.4580 os        1 DWN     -0.430600
     22 C3X        10.4960    6.4600    0.8810 c3        1 DWN      0.139100
     23 O3X        11.1520    6.3670   -0.3650 oh        1 DWN     -0.623800
     24 C2X        11.0690    7.6670    1.6360 c3        1 DWN     -0.107400
     25 C1X         9.8430    8.4080    2.1920 c3        1 DWN      0.308500
     26 N11         9.5990    8.3000    3.6360 n         1 DWN     -0.379000
     27 C21         9.8720    7.1080    4.3690 c         1 DWN      0.808500
     28 O21        10.5500    6.1720    3.9000 o         1 DWN     -0.628500
     29 N31         9.4160    7.0190    5.6970 n         1 DWN     -0.581500
     30 C61         8.7610    9.2510    4.2070 cc        1 DWN      0.046600
     31 C51         8.3070    9.1810    5.4880 cd        1 DWN     -0.266400
     32 C5A         7.4760   10.2320    6.1050 c3        1 DWN     -0.024900
     33 C41         8.6350    8.0050    6.3140 c         1 DWN      0.719700
     34 O41         8.2740    7.8430    7.4940 o         1 DWN     -0.626500
     35 H1          3.3450    1.6130    2.0650 h1        1 DWN      0.082700
     36 H2          1.0400    0.5590    2.3310 hc        1 DWN      0.044700
     37 H3          2.3110   -0.2520    3.3600 hc        1 DWN      0.044700
     38 H4          1.7320   -1.0460    1.8370 hc        1 DWN      0.044700
     39 H5          3.3080    1.4260   -1.8640 h1        1 DWN      0.065700
     40 H6          6.5270    3.1070   -1.4970 ho        1 DWN      0.487000
     41 H7          3.2520    3.4700   -0.5870 hn        1 DWN      0.366800
     42 H9          5.7950    0.9790   -1.2220 hc        1 DWN      0.063200
     43 H10         4.6350   -0.4180   -1.1440 hc        1 DWN      0.063200
     44 H11         6.0780   -0.5110    0.8770 h2        1 DWN      0.123700
     45 H14         8.5620    4.9620    1.8750 h1        1 DWN      0.063200
     46 H15         7.1510    6.1130    1.6440 h1        1 DWN      0.063200
     47 H16         8.7790    7.0510   -0.3760 h1        1 DWN      0.088700
     48 H17        10.6360    5.5180    1.4780 h1        1 DWN      0.090700
     49 H18        11.0340    5.4530   -0.6770 ho        1 DWN      0.461000
     50 H19        11.7880    7.3410    2.4240 hc        1 DWN      0.080700
     51 H20        11.6050    8.3440    0.9230 hc        1 DWN      0.080700
     52 H21         9.9150    9.5190    1.9800 h2        1 DWN      0.069700
     53 H22         9.5900    6.1570    6.1710 hn        1 DWN      0.356500
     54 H23         8.4920   10.1010    3.5490 h4        1 DWN      0.160000
     55 H24         7.1230   10.9700    5.3440 hc        1 DWN      0.045367
     56 H25         6.5860    9.7700    6.6030 hc        1 DWN      0.045367
     57 H26         8.0630   10.7750    6.8880 hc        1 DWN      0.045367
     58 H33         4.5960    3.0180    0.2330 hn        1 DWN      0.366800
@<TRIPOS>BOND
     1    1    2 2   
     2    2    3 1   
     3    2    6 1   
     4    3    4 1   
     5    3    5 1   
     6    3   35 1   
     7    4   36 1   
     8    4   37 1   
     9    4   38 1   
    10    5    9 1   
    11    6    7 1   
    12    6    8 1   
    13    6   39 1   
    14    7   41 1   
    15    7   58 1   
    16    8    9 1   
    17    8   42 1   
    18    8   43 1   
    19    9   10 1   
    20    9   44 1   
    21   10   11 1   
    22   11   12 1   
    23   11   13 1   
    24   11   14 1   
    25   14   15 1   
    26   15   16 1   
    27   15   17 2   
    28   15   18 1   
    29   16   40 1   
    30   18   19 1   
    31   19   20 1   
    32   19   45 1   
    33   19   46 1   
    34   20   21 1   
    35   20   22 1   
    36   20   47 1   
    37   21   25 1   
    38   22   23 1   
    39   22   24 1   
    40   22   48 1   
    41   23   49 1   
    42   24   25 1   
    43   24   50 1   
    44   24   51 1   
    45   25   26 1   
    46   25   52 1   
    47   26   27 1   
    48   26   30 1   
    49   27   28 2   
    50   27   29 1   
    51   29   33 1   
    52   29   53 1   
    53   30   31 2   
    54   30   54 1   
    55   31   32 1   
    56   31   33 1   
    57   32   55 1   
    58   32   56 1   
    59   32   57 1   
    60   33   34 2   
@<TRIPOS>SUBSTRUCTURE
     1 DWN         1 TEMP              0 ****  ****    0 ROOT
