@<TRIPOS>MOLECULE
DWN
   58    60     1     0     0
SMALL
bcc


@<TRIPOS>ATOM
      1 O4          1.5630    1.8460   -0.3960 o         1 DWN     -0.555100
      2 C4          2.6140    1.9100    0.2490 c         1 DWN      0.539100
      3 C5          2.7720    1.3420    1.6600 c3        1 DWN      0.076100
      4 C6          3.2180   -0.1090    1.5530 c3        1 DWN     -0.128100
      5 O5          3.6220    2.0860    2.5210 os        1 DWN     -0.407600
      6 C3          3.8710    2.5380   -0.3250 c3        1 DWN      0.010500
      7 N3          3.7700    3.2170   -1.6420 nz        1 DWN     -0.842600
      8 C2          4.4120    3.4710    0.7570 c3        1 DWN     -0.151400
      9 C1          4.8480    2.4910    1.8730 c3        1 DWN      0.404900
     10 O1          5.6200    3.0860    2.8220 os        1 DWN     -0.529200
     11 P2          7.2710    2.7080    2.6640 p5        1 DWN      1.585800
     12 O3P         8.0150    3.7730    3.3550 o         1 DWN     -0.839000
     13 O4P         7.3200    1.2540    2.8320 o         1 DWN     -0.839000
     14 OPP         7.3640    3.0410    1.0500 os        1 DWN     -0.840800
     15 P           7.6540    3.4760   -0.4860 p5        1 DWN      1.644800
     16 O1P         6.4790    3.0310   -1.3000 o         1 DWN     -0.895000
     17 O2P         9.0670    3.2810   -0.8340 o         1 DWN     -0.895000
     18 O5X         7.3910    5.0960   -0.3570 os        1 DWN     -0.614200
     19 C5X         7.8980    5.7850    0.7450 c3        1 DWN      0.157400
     20 C4X         9.2880    6.3800    0.4730 c3        1 DWN      0.070100
     21 O4X         9.3670    7.6620    1.1210 os        1 DWN     -0.424600
     22 C3X        10.4530    5.5080    0.9940 c3        1 DWN      0.133100
     23 O3X        11.2990    5.1000   -0.0610 oh        1 DWN     -0.632800
     24 C2X        11.2590    6.4180    1.9270 c3        1 DWN     -0.118400
     25 C1X        10.4000    7.6840    2.1120 c3        1 DWN      0.299500
     26 N11         9.8310    7.8260    3.4550 n         1 DWN     -0.380000
     27 C21         9.9380    9.0870    4.0910 c         1 DWN      0.804500
     28 O21        10.6050   10.0300    3.6030 o         1 DWN     -0.680500
     29 N31         9.3070    9.2690    5.3320 ns        1 DWN     -0.592500
     30 C61         9.0620    6.8250    4.0380 cc        1 DWN      0.052600
     31 C51         8.4490    6.9860    5.2490 cd        1 DWN     -0.263400
     32 C5A         7.6700    5.9050    5.8830 c3        1 DWN     -0.042900
     33 C41         8.5490    8.2640    5.9630 c         1 DWN      0.715700
     34 O41         8.0290    8.5370    7.0610 o         1 DWN     -0.648500
     35 H1          1.7660    1.3990    2.1720 h1        1 DWN      0.093700
     36 H2          2.4330   -0.7130    1.0410 hc        1 DWN      0.057700
     37 H3          4.1780   -0.1980    0.9910 hc        1 DWN      0.057700
     38 H4          3.3850   -0.5100    2.5830 hc        1 DWN      0.057700
     39 H5          4.6400    1.7080   -0.4960 hx        1 DWN      0.163700
     40 H6          4.7780    3.4100   -1.9290 hn        1 DWN      0.466133
     41 H7          3.2580    4.0910   -1.5570 hn        1 DWN      0.466133
     42 H9          3.6360    4.1770    1.1370 hc        1 DWN      0.094200
     43 H10         5.2970    4.0580    0.3870 hc        1 DWN      0.094200
     44 H11         5.3640    1.5740    1.4500 h2        1 DWN      0.060700
     45 H14         7.9250    5.1040    1.6450 h1        1 DWN      0.057200
     46 H15         7.1900    6.6380    0.9500 h1        1 DWN      0.057200
     47 H16         9.4140    6.5880   -0.6250 h1        1 DWN      0.083700
     48 H17        10.0710    4.6140    1.5590 h1        1 DWN      0.081700
     49 H18        10.8440    4.3730   -0.5220 ho        1 DWN      0.467000
     50 H19        11.4810    5.8990    2.8890 hc        1 DWN      0.073200
     51 H20        12.2290    6.7020    1.4470 hc        1 DWN      0.073200
     52 H21        10.9920    8.6260    1.8990 h2        1 DWN      0.108700
     53 H22         9.4030   10.1620    5.7600 hn        1 DWN      0.335500
     54 H23         8.9720    5.8640    3.4710 h4        1 DWN      0.237000
     55 H24         6.6050    6.2240    6.0070 hc        1 DWN      0.059367
     56 H25         7.7020    4.9740    5.2570 hc        1 DWN      0.059367
     57 H26         8.0830    5.6810    6.8980 hc        1 DWN      0.059367
     58 H33         3.3080    2.6140   -2.3160 hn        1 DWN      0.466133
@<TRIPOS>BOND
     1    1    2 2   
     2    2    3 1   
     3    2    6 1   
     4    3    4 1   
     5    3    5 1   
     6    3   35 1   
     7    4   36 1   
     8    4   37 1   
     9    4   38 1   
    10    5    9 1   
    11    6    7 1   
    12    6    8 1   
    13    6   39 1   
    14    7   40 1   
    15    7   41 1   
    16    7   58 1   
    17    8    9 1   
    18    8   42 1   
    19    8   43 1   
    20    9   10 1   
    21    9   44 1   
    22   10   11 1   
    23   11   12 1   
    24   11   13 1   
    25   11   14 1   
    26   14   15 1   
    27   15   16 1   
    28   15   17 1   
    29   15   18 1   
    30   18   19 1   
    31   19   20 1   
    32   19   45 1   
    33   19   46 1   
    34   20   21 1   
    35   20   22 1   
    36   20   47 1   
    37   21   25 1   
    38   22   23 1   
    39   22   24 1   
    40   22   48 1   
    41   23   49 1   
    42   24   25 1   
    43   24   50 1   
    44   24   51 1   
    45   25   26 1   
    46   25   52 1   
    47   26   27 1   
    48   26   30 1   
    49   27   28 2   
    50   27   29 1   
    51   29   33 1   
    52   29   53 1   
    53   30   31 2   
    54   30   54 1   
    55   31   32 1   
    56   31   33 1   
    57   32   55 1   
    58   32   56 1   
    59   32   57 1   
    60   33   34 2   
@<TRIPOS>SUBSTRUCTURE
     1 DWN         1 TEMP              0 ****  ****    0 ROOT
