@<TRIPOS>MOLECULE
DWV
   37    39     1     0     0
SMALL
bcc


@<TRIPOS>ATOM
      1 CAK        -3.3040   -1.5390   -0.7700 c3        1 DWV      0.185300
      2 CAI        -4.1070   -2.0540    0.4440 c3        1 DWV      0.137800
      3 NAU        -5.5000   -1.6320    0.4180 n3        1 DWV     -0.733600
      4 CAA        -6.2400   -2.1010    1.5670 c3        1 DWV      0.156100
      5 CAJ        -5.6520   -0.2000    0.2020 c3        1 DWV      0.137800
      6 CAL        -4.8480    0.3080   -1.0130 c3        1 DWV      0.185300
      7 NAV        -3.4540   -0.1110   -1.0100 nh        1 DWV     -0.674600
      8 CAR        -2.4770    0.7410   -0.5260 cc        1 DWV      0.688100
      9 SAN        -0.7880    0.1120   -0.4290 ss        1 DWV     -0.198800
     10 NAM        -2.6120    2.0220   -0.2260 nd        1 DWV     -0.692100
     11 CAS        -1.3610    2.6240    0.0840 c         1 DWV      0.695700
     12 OAB        -1.2210    3.8130    0.3840 o         1 DWV     -0.504100
     13 CAT        -0.2070    1.6420    0.0200 cc        1 DWV     -0.154600
     14 CAE         1.0390    2.0470    0.3130 cf        1 DWV     -0.004200
     15 CAO         2.2500    1.2500    0.3170 ca        1 DWV     -0.069800
     16 CAH         2.3350    0.0050   -0.3180 ca        1 DWV     -0.096000
     17 CAQ         3.5260   -0.7290   -0.2860 ca        1 DWV      0.013400
     18 CLD         3.5830   -2.2320   -1.0700 cl        1 DWV     -0.064400
     19 CAP         4.6460   -0.2200    0.3870 ca        1 DWV      0.029400
     20 CLC         6.1010   -1.0850    0.4510 cl        1 DWV     -0.060400
     21 CAG         4.5660    1.0280    1.0170 ca        1 DWV     -0.122000
     22 CAF         3.3840    1.7560    0.9790 ca        1 DWV     -0.096000
     23 H1         -2.2210   -1.8080   -0.6150 h1        1 DWV      0.079200
     24 H2         -3.6680   -2.0550   -1.7040 h1        1 DWV      0.079200
     25 H3         -4.0900   -3.1800    0.4100 h1        1 DWV      0.047200
     26 H4         -3.5850   -1.7290    1.3910 h1        1 DWV      0.047200
     27 H6         -5.8740   -1.6690    2.5390 h1        1 DWV      0.036700
     28 H7         -7.3190   -1.8230    1.4370 h1        1 DWV      0.036700
     29 H8         -6.1580   -3.2180    1.6190 h1        1 DWV      0.036700
     30 H9         -6.7410    0.0010   -0.0010 h1        1 DWV      0.047200
     31 H10        -5.3540    0.3980    1.1130 h1        1 DWV      0.047200
     32 H11        -5.2960   -0.1150   -1.9580 h1        1 DWV      0.079200
     33 H12        -4.9340    1.4280   -1.0530 h1        1 DWV      0.079200
     34 H13         1.1760    3.1120    0.6000 ha        1 DWV      0.163000
     35 H15         1.4670   -0.4040   -0.8670 ha        1 DWV      0.160000
     36 H16         5.4450    1.4330    1.5430 ha        1 DWV      0.156000
     37 H17         3.3320    2.7380    1.4750 ha        1 DWV      0.148000
@<TRIPOS>BOND
     1    1    2 1   
     2    1    7 1   
     3    1   23 1   
     4    1   24 1   
     5    2    3 1   
     6    2   25 1   
     7    2   26 1   
     8    3    4 1   
     9    3    5 1   
    10    4   27 1   
    11    4   28 1   
    12    4   29 1   
    13    5    6 1   
    14    5   30 1   
    15    5   31 1   
    16    6    7 1   
    17    6   32 1   
    18    6   33 1   
    19    7    8 1   
    20    8    9 1   
    21    8   10 2   
    22    9   13 1   
    23   10   11 1   
    24   11   12 2   
    25   11   13 1   
    26   13   14 2   
    27   14   15 1   
    28   14   34 1   
    29   15   16 ar  
    30   15   22 ar  
    31   16   17 ar  
    32   16   35 1   
    33   17   18 1   
    34   17   19 ar  
    35   19   20 1   
    36   19   21 ar  
    37   21   22 ar  
    38   21   36 1   
    39   22   37 1   
@<TRIPOS>SUBSTRUCTURE
     1 DWV         1 TEMP              0 ****  ****    0 ROOT
