@<TRIPOS>MOLECULE
DWV
   37    39     1     0     0
SMALL
bcc


@<TRIPOS>ATOM
      1 CAK        -0.1640   -0.2020    0.3120 c3        1 DWV      0.185300
      2 CAI         1.3500    0.0080    0.0930 c3        1 DWV      0.137800
      3 NAU         2.0780    0.1960    1.3390 n3        1 DWV     -0.733600
      4 CAA         3.4910    0.4130    1.1250 c3        1 DWV      0.156100
      5 CAJ         1.4800    1.2130    2.1940 c3        1 DWV      0.137800
      6 CAL        -0.0320    0.9960    2.4100 c3        1 DWV      0.185300
      7 NAV        -0.7760    0.7960    1.1750 nh        1 DWV     -0.674600
      8 CAR        -1.4320    1.8610    0.5830 cc        1 DWV      0.688100
      9 SAN        -2.2270    1.5760   -1.0110 ss        1 DWV     -0.198800
     10 NAM        -1.6460    3.0580    1.1070 nd        1 DWV     -0.692100
     11 CAS        -2.4960    3.8470    0.2830 c         1 DWV      0.695700
     12 OAB        -2.8550    4.9950    0.5590 o         1 DWV     -0.504100
     13 CAT        -2.9100    3.1310   -0.9880 cc        1 DWV     -0.154600
     14 CAE        -3.6910    3.7500   -1.8870 cf        1 DWV     -0.004200
     15 CAO        -4.1690    3.2280   -3.1520 ca        1 DWV     -0.069800
     16 CAH        -4.1530    1.8620   -3.4580 ca        1 DWV     -0.096000
     17 CAQ        -4.6240    1.4050   -4.6940 ca        1 DWV      0.013400
     18 CLD        -4.5860   -0.2590   -5.0210 cl        1 DWV     -0.064400
     19 CAP        -5.1180    2.3170   -5.6380 ca        1 DWV      0.029400
     20 CLC        -5.6900    1.7990   -7.1450 cl        1 DWV     -0.060400
     21 CAG        -5.1420    3.6840   -5.3310 ca        1 DWV     -0.122000
     22 CAF        -4.6780    4.1330   -4.1020 ca        1 DWV     -0.096000
     23 H1         -0.3330   -1.1980    0.8130 h1        1 DWV      0.079200
     24 H2         -0.6660   -0.2230   -0.6970 h1        1 DWV      0.079200
     25 H3          1.4980    0.8730   -0.6170 h1        1 DWV      0.047200
     26 H4          1.7540   -0.9180   -0.4030 h1        1 DWV      0.047200
     27 H6          3.7160    1.3630    0.5660 h1        1 DWV      0.036700
     28 H7          4.0030    0.4560    2.1220 h1        1 DWV      0.036700
     29 H8          3.9050   -0.4510    0.5420 h1        1 DWV      0.036700
     30 H9          1.6460    2.2540    1.7900 h1        1 DWV      0.047200
     31 H10         1.9810    1.1490    3.2010 h1        1 DWV      0.047200
     32 H11        -0.4370    1.8690    2.9910 h1        1 DWV      0.079200
     33 H12        -0.1890    0.0600    3.0200 h1        1 DWV      0.079200
     34 H13        -4.0080    4.7900   -1.6570 ha        1 DWV      0.163000
     35 H15        -3.7830    1.1270   -2.7200 ha        1 DWV      0.160000
     36 H16        -5.5320    4.4030   -6.0690 ha        1 DWV      0.156000
     37 H17        -4.7040    5.2100   -3.8700 ha        1 DWV      0.148000
@<TRIPOS>BOND
     1    1    2 1   
     2    1    7 1   
     3    1   23 1   
     4    1   24 1   
     5    2    3 1   
     6    2   25 1   
     7    2   26 1   
     8    3    4 1   
     9    3    5 1   
    10    4   27 1   
    11    4   28 1   
    12    4   29 1   
    13    5    6 1   
    14    5   30 1   
    15    5   31 1   
    16    6    7 1   
    17    6   32 1   
    18    6   33 1   
    19    7    8 1   
    20    8    9 1   
    21    8   10 2   
    22    9   13 1   
    23   10   11 1   
    24   11   12 2   
    25   11   13 1   
    26   13   14 2   
    27   14   15 1   
    28   14   34 1   
    29   15   16 ar  
    30   15   22 ar  
    31   16   17 ar  
    32   16   35 1   
    33   17   18 1   
    34   17   19 ar  
    35   19   20 1   
    36   19   21 ar  
    37   21   22 ar  
    38   21   36 1   
    39   22   37 1   
@<TRIPOS>SUBSTRUCTURE
     1 DWV         1 TEMP              0 ****  ****    0 ROOT
