@<TRIPOS>MOLECULE
DWV
   37    39     1     0     0
SMALL
bcc


@<TRIPOS>ATOM
      1 CAK        -0.1820   -0.2010    0.3310 c3        1 DWV      0.185300
      2 CAI         1.3330   -0.0160    0.0960 c3        1 DWV      0.137800
      3 NAU         2.0750    0.1800    1.3320 n3        1 DWV     -0.733600
      4 CAA         3.4890    0.3740    1.1020 c3        1 DWV      0.156100
      5 CAJ         1.5000    1.2190    2.1770 c3        1 DWV      0.137800
      6 CAL        -0.0130    1.0270    2.4100 c3        1 DWV      0.185300
      7 NAV        -0.7720    0.8190    1.1850 nh        1 DWV     -0.674600
      8 CAR        -1.4170    1.8850    0.5830 cc        1 DWV      0.688100
      9 SAN        -2.2300    1.5870   -1.0000 ss        1 DWV     -0.198800
     10 NAM        -1.6090    3.0920    1.0900 nd        1 DWV     -0.692100
     11 CAS        -2.4550    3.8810    0.2610 c         1 DWV      0.695700
     12 OAB        -2.7940    5.0380    0.5220 o         1 DWV     -0.504100
     13 CAT        -2.8900    3.1510   -0.9950 cc        1 DWV     -0.154600
     14 CAE        -3.6700    3.7680   -1.8970 cf        1 DWV     -0.004200
     15 CAO        -4.1680    3.2340   -3.1490 ca        1 DWV     -0.069800
     16 CAH        -4.1740    1.8640   -3.4350 ca        1 DWV     -0.096000
     17 CAQ        -4.6630    1.3960   -4.6590 ca        1 DWV      0.013400
     18 ClD        -4.6520   -0.2730   -4.9610 cl        1 DWV     -0.064400
     19 CAP        -5.1520    2.3000   -5.6120 ca        1 DWV      0.029400
     20 ClC        -5.7460    1.7680   -7.1060 cl        1 DWV     -0.060400
     21 CAG        -5.1540    3.6720   -5.3260 ca        1 DWV     -0.122000
     22 CAF        -4.6710    4.1330   -4.1080 ca        1 DWV     -0.096000
     23 H1         -0.3600   -1.1870    0.8500 h1        1 DWV      0.079200
     24 H2         -0.6930   -0.2300   -0.6720 h1        1 DWV      0.079200
     25 H3          1.4870    0.8360   -0.6290 h1        1 DWV      0.047200
     26 H4          1.7190   -0.9560   -0.3900 h1        1 DWV      0.047200
     27 H6          3.7230    1.3120    0.5270 h1        1 DWV      0.036700
     28 H7          3.8850   -0.5050    0.5290 h1        1 DWV      0.036700
     29 H8          4.0100    0.4240    2.0940 h1        1 DWV      0.036700
     30 H9          2.0090    1.1630    3.1790 h1        1 DWV      0.047200
     31 H10         1.6770    2.2510    1.7550 h1        1 DWV      0.047200
     32 H11        -0.1780    0.1030    3.0350 h1        1 DWV      0.079200
     33 H12        -0.4000    1.9140    2.9810 h1        1 DWV      0.079200
     34 H13        -3.9700    4.8170   -1.6800 ha        1 DWV      0.163000
     35 H15        -3.8080    1.1350   -2.6890 ha        1 DWV      0.160000
     36 H16        -5.5400    4.3850   -6.0710 ha        1 DWV      0.156000
     37 H17        -4.6800    5.2130   -3.8920 ha        1 DWV      0.148000
@<TRIPOS>BOND
     1    1    2 1   
     2    1    7 1   
     3    1   23 1   
     4    1   24 1   
     5    2    3 1   
     6    2   25 1   
     7    2   26 1   
     8    3    4 1   
     9    3    5 1   
    10    4   27 1   
    11    4   28 1   
    12    4   29 1   
    13    5    6 1   
    14    5   30 1   
    15    5   31 1   
    16    6    7 1   
    17    6   32 1   
    18    6   33 1   
    19    7    8 1   
    20    8    9 1   
    21    8   10 2   
    22    9   13 1   
    23   10   11 1   
    24   11   12 2   
    25   11   13 1   
    26   13   14 2   
    27   14   15 1   
    28   14   34 1   
    29   15   16 ar  
    30   15   22 ar  
    31   16   17 ar  
    32   16   35 1   
    33   17   18 1   
    34   17   19 ar  
    35   19   20 1   
    36   19   21 ar  
    37   21   22 ar  
    38   21   36 1   
    39   22   37 1   
@<TRIPOS>SUBSTRUCTURE
     1 DWV         1 TEMP              0 ****  ****    0 ROOT
