@<TRIPOS>MOLECULE
DWV
   37    31     1     0     0
SMALL
bcc


@<TRIPOS>ATOM
      1 CAK         2.6420   -1.3020   -0.9820 c3        1 DWV     -0.069500
      2 CAI         4.1350   -1.0170   -1.0140 c3        1 DWV     -0.079500
      3 NAU         4.8050   -1.5170    0.1330 n3        1 DWV     -0.245000
      4 CAA         4.8440   -2.9570    0.0830 c3        1 DWV     -0.130000
      5 CAJ         4.1870   -1.0880    1.3690 c3        1 DWV     -0.079500
      6 CAL         2.7070   -1.3750    1.4020 c3        1 DWV     -0.069500
      7 NAV         2.0300   -0.8750    0.2430 n3        1 DWV     -0.230000
      8 CAR         0.5830   -0.6110    0.2910 c1        1 DWV      0.043000
      9 SAN        -0.2520   -0.4690   -1.0650 s         1 DWV      0.235000
     10 NAM         0.0470    0.0720    1.3500 n1        1 DWV     -0.275000
     11 CAS        -1.2900    0.8330    1.0300 c1        1 DWV      0.301000
     12 OAB        -2.1270    1.1810    1.8460 o         1 DWV     -0.262000
     13 CAT        -1.5700    0.5170   -0.6080 c1        1 DWV     -0.354000
     14 CAE        -2.7890    0.6010   -1.2560 c1        1 DWV     -0.008000
     15 CAO        -3.8630    1.5280   -0.7270 c1        1 DWV     -0.060000
     16 CAH        -4.8710    1.0300    0.1100 c1        1 DWV     -0.095000
     17 CAQ        -5.9180    1.8450    0.4820 c1        1 DWV     -0.056500
     18 CLD        -7.2000    1.2180    1.5530 cl        1 DWV      0.014000
     19 CAP        -5.9740    3.1560    0.0280 c1        1 DWV     -0.056500
     20 CLC        -7.2490    4.1970    0.5410 cl        1 DWV      0.014000
     21 CAG        -4.9760    3.6460   -0.8000 c1        1 DWV     -0.095000
     22 CAF        -3.9230    2.8310   -1.1760 c1        1 DWV     -0.103000
     23 H1          2.2010   -0.8270   -1.7490 h1        1 DWV      0.102250
     24 H2          2.5100   -2.2290   -1.0820 h1        1 DWV      0.102250
     25 H3          4.2690   -0.0690   -1.0610 h1        1 DWV      0.106750
     26 H4          4.5430   -1.4560   -1.8630 h1        1 DWV      0.106750
     27 H6          3.9540   -3.2990   -0.0830 h1        1 DWV      0.075667
     28 H7          5.1710   -3.3080    0.9450 h1        1 DWV      0.075667
     29 H8          5.4640   -3.2540   -0.6620 h1        1 DWV      0.075667
     30 H9          4.3210   -0.1380    1.4710 h1        1 DWV      0.106750
     31 H10         4.6060   -1.5380    2.0970 h1        1 DWV      0.106750
     32 H11         2.3400   -0.9730    2.1680 h1        1 DWV      0.102250
     33 H12         2.5630   -2.3870    1.4600 h1        1 DWV      0.102250
     34 H13        -2.9610    0.0480   -2.0790 ha        1 DWV      0.135000
     35 H15        -4.7590    0.1720    0.5350 ha        1 DWV      0.162500
     36 H16        -5.0180    4.6110   -1.1350 ha        1 DWV      0.162500
     37 H17        -3.1800    3.1980   -1.7950 ha        1 DWV      0.140000
@<TRIPOS>BOND
     1    1    2 1   
     2    1    7 1   
     3    1   23 1   
     4    1   24 1   
     5    2    3 1   
     6    2   25 1   
     7    2   26 1   
     8    3    4 1   
     9    3    5 1   
    10    4   27 1   
    11    4   28 1   
    12    4   29 1   
    13    5    6 1   
    14    5   30 1   
    15    5   31 1   
    16    6    7 1   
    17    6   32 1   
    18    6   33 1   
    19    7    8 1   
    20    8   10 1   
    21    9   13 1   
    22   11   12 1   
    23   13   14 1   
    24   14   34 1   
    25   15   22 1   
    26   16   17 1   
    27   16   35 1   
    28   17   19 1   
    29   19   21 1   
    30   21   36 1   
    31   22   37 1   
@<TRIPOS>SUBSTRUCTURE
     1 DWV         1 TEMP              0 ****  ****    0 ROOT
