@<TRIPOS>MOLECULE
DWV
   37    39     1     0     0
SMALL
bcc


@<TRIPOS>ATOM
      1 CAK        -0.1860   -0.2030    0.3310 c3        1 DWV      0.185300
      2 CAI         1.3290   -0.0190    0.0990 c3        1 DWV      0.137800
      3 NAU         2.0690    0.1750    1.3380 n3        1 DWV     -0.733600
      4 CAA         3.4830    0.3690    1.1120 c3        1 DWV      0.156100
      5 CAJ         1.4910    1.2120    2.1840 c3        1 DWV      0.137800
      6 CAL        -0.0220    1.0200    2.4120 c3        1 DWV      0.185300
      7 NAV        -0.7780    0.8150    1.1850 nh        1 DWV     -0.674600
      8 CAR        -1.4210    1.8820    0.5830 cc        1 DWV      0.688100
      9 SAN        -2.2300    1.5870   -1.0030 ss        1 DWV     -0.198800
     10 NAM        -1.6140    3.0880    1.0920 nd        1 DWV     -0.692100
     11 CAS        -2.4580    3.8790    0.2620 c         1 DWV      0.695700
     12 OAB        -2.7970    5.0360    0.5250 o         1 DWV     -0.504100
     13 CAT        -2.8900    3.1520   -0.9970 cc        1 DWV     -0.154600
     14 CAE        -3.6670    3.7710   -1.8990 cf        1 DWV     -0.004200
     15 CAO        -4.1610    3.2390   -3.1540 ca        1 DWV     -0.069800
     16 CAH        -4.1680    1.8690   -3.4420 ca        1 DWV     -0.096000
     17 CAQ        -4.6540    1.4030   -4.6680 ca        1 DWV      0.013400
     18 CLD        -4.6440   -0.2650   -4.9720 cl        1 DWV     -0.064400
     19 CAP        -5.1380    2.3100   -5.6220 ca        1 DWV      0.029400
     20 CLC        -5.7270    1.7810   -7.1190 cl        1 DWV     -0.060400
     21 CAG        -5.1390    3.6810   -5.3340 ca        1 DWV     -0.122000
     22 CAF        -4.6600    4.1400   -4.1130 ca        1 DWV     -0.096000
     23 H1         -0.6950   -0.2310   -0.6740 h1        1 DWV      0.079200
     24 H2         -0.3660   -1.1900    0.8460 h1        1 DWV      0.079200
     25 H3          1.7170   -0.9570   -0.3870 h1        1 DWV      0.047200
     26 H4          1.4860    0.8350   -0.6230 h1        1 DWV      0.047200
     27 H6          4.0020    0.4170    2.1050 h1        1 DWV      0.036700
     28 H7          3.8800   -0.5080    0.5380 h1        1 DWV      0.036700
     29 H8          3.7180    1.3080    0.5390 h1        1 DWV      0.036700
     30 H9          1.6690    2.2450    1.7650 h1        1 DWV      0.047200
     31 H10         1.9980    1.1550    3.1870 h1        1 DWV      0.047200
     32 H11        -0.4110    1.9060    2.9840 h1        1 DWV      0.079200
     33 H12        -0.1890    0.0950    3.0350 h1        1 DWV      0.079200
     34 H13        -3.9670    4.8190   -1.6810 ha        1 DWV      0.163000
     35 H15        -3.8060    1.1390   -2.6960 ha        1 DWV      0.160000
     36 H16        -5.5220    4.3960   -6.0790 ha        1 DWV      0.156000
     37 H17        -4.6680    5.2200   -3.8960 ha        1 DWV      0.148000
@<TRIPOS>BOND
     1    1    2 1   
     2    1    7 1   
     3    1   23 1   
     4    1   24 1   
     5    2    3 1   
     6    2   25 1   
     7    2   26 1   
     8    3    4 1   
     9    3    5 1   
    10    4   27 1   
    11    4   28 1   
    12    4   29 1   
    13    5    6 1   
    14    5   30 1   
    15    5   31 1   
    16    6    7 1   
    17    6   32 1   
    18    6   33 1   
    19    7    8 1   
    20    8    9 1   
    21    8   10 2   
    22    9   13 1   
    23   10   11 1   
    24   11   12 2   
    25   11   13 1   
    26   13   14 2   
    27   14   15 1   
    28   14   34 1   
    29   15   16 ar  
    30   15   22 ar  
    31   16   17 ar  
    32   16   35 1   
    33   17   18 1   
    34   17   19 ar  
    35   19   20 1   
    36   19   21 ar  
    37   21   22 ar  
    38   21   36 1   
    39   22   37 1   
@<TRIPOS>SUBSTRUCTURE
     1 DWV         1 TEMP              0 ****  ****    0 ROOT
