@<TRIPOS>MOLECULE
DWZ
   52    52     1     0     0
SMALL
bcc


@<TRIPOS>ATOM
      1 CBE        -2.8080    2.3150    4.6320 c3        1 DWZ     -0.097500
      2 NBC        -1.3860    2.0890    4.6170 n         1 DWZ     -0.312000
      3 CBD        -0.7030    1.8160    5.8250 c3        1 DWZ     -0.097500
      4 C          -0.6770    2.0430    3.3600 c2        1 DWZ      0.292000
      5 O          -1.0050    1.2540    2.5130 o         1 DWZ     -0.410000
      6 CA          0.4240    2.9650    3.1090 c3        1 DWZ     -0.046000
      7 CB          0.3380    3.4260    1.9080 c3        1 DWZ     -0.191000
      8 N           1.8290    2.1350    3.0430 n3        1 DWZ     -0.279000
      9 CD          2.1910    2.0320    1.5860 c3        1 DWZ     -0.074000
     10 CG          1.1440    2.4030    0.9420 c3        1 DWZ     -0.216000
     11 SAK         0.0760    0.9220    0.5540 ss        1 DWZ      0.048000
     12 CAI         0.4710    0.3120   -1.1270 c3        1 DWZ     -0.228000
     13 CAH         0.9660   -1.2030   -1.2520 c3        1 DWZ     -0.106000
     14 CAS         2.0670   -1.2670   -1.9980 c3        1 DWZ     -0.201000
     15 CAL        -0.6530    0.2410   -1.8160 c2        1 DWZ     -0.041000
     16 CAM        -1.5550    1.4360   -1.9070 c2        1 DWZ      0.379000
     17 OAT        -2.6560    1.4440   -1.2920 o         1 DWZ     -0.548500
     18 OAU        -1.2340    2.4120   -2.6380 o         1 DWZ     -0.548500
     19 NAJ        -1.1810   -1.0640   -1.9840 n1        1 DWZ     -0.188000
     20 CAD        -0.2960   -2.0360   -1.9970 c2        1 DWZ     -0.048000
     21 CAB         0.0290   -2.5980   -3.3800 c3        1 DWZ     -0.151000
     22 CAE        -0.1220   -4.0810   -3.3680 c3        1 DWZ      0.030000
     23 CAF         0.0710   -4.6140   -4.7730 c3        1 DWZ     -0.249000
     24 OAG         0.8410   -4.6430   -2.5210 oh        1 DWZ     -0.324000
     25 CAA        -0.9100   -2.0130   -4.3880 c2        1 DWZ      0.213000
     26 OAC        -2.0940   -2.2480   -4.3180 o         1 DWZ     -0.332000
     27 HBE        -3.0950    2.5830    5.5560 h1        1 DWZ      0.089833
     28 HBEA       -3.0330    3.0380    3.9930 h1        1 DWZ      0.089833
     29 HBEB       -3.2770    1.4860    4.3690 h1        1 DWZ      0.089833
     30 HBD        -0.0260    1.1110    5.6700 h1        1 DWZ      0.089833
     31 HBDA       -0.2540    2.6410    6.1460 h1        1 DWZ      0.089833
     32 HBDB       -1.3490    1.5090    6.5040 h1        1 DWZ      0.089833
     33 HA          0.3090    3.6030    3.8490 h1        1 DWZ      0.112000
     34 HB         -0.6290    3.4720    1.6270 hc        1 DWZ      0.145000
     35 HBA         0.7410    4.3170    1.8640 hc        1 DWZ      0.145000
     36 HN          1.6990    1.2650    3.4000 hn        1 DWZ      0.169000
     37 HD          2.4220    1.0870    1.3530 h1        1 DWZ      0.083000
     38 HDA         2.9580    2.6360    1.3780 h1        1 DWZ      0.083000
     39 HG          1.4100    2.8720    0.0870 h1        1 DWZ      0.116000
     40 HAI         1.1050    0.9870   -1.3960 h1        1 DWZ      0.139000
     41 HAH         1.1420   -1.5840   -0.3460 hc        1 DWZ      0.111000
     42 HAS         2.8100   -0.8620   -1.5140 hc        1 DWZ      0.073667
     43 HASA        2.2770   -2.2110   -2.1960 hc        1 DWZ      0.073667
     44 HASB        1.9200   -0.7750   -2.8490 hc        1 DWZ      0.073667
     45 HAD        -0.5830   -2.8250   -1.5060 ha        1 DWZ      0.103000
     46 HAB         0.9440   -2.3680   -3.6170 hc        1 DWZ      0.116000
     47 HAE        -1.0160   -4.3170   -3.0480 h1        1 DWZ      0.090000
     48 HAF         0.1610   -5.5760   -4.7430 hc        1 DWZ      0.079667
     49 HAFA        0.8960   -4.2140   -5.1700 hc        1 DWZ      0.079667
     50 HAFB       -0.7200   -4.3710   -5.3320 hc        1 DWZ      0.079667
     51 HOAG        0.5860   -5.4840   -2.2900 ho        1 DWZ      0.189000
     52 HAA        -0.5670   -1.4960   -5.1180 h4        1 DWZ      0.124000
@<TRIPOS>BOND
     1    1    2 1   
     2    1   27 1   
     3    1   28 1   
     4    1   29 1   
     5    2    3 1   
     6    2    4 1   
     7    3   30 1   
     8    3   31 1   
     9    3   32 1   
    10    4    5 1   
    11    4    6 1   
    12    6    7 1   
    13    6    8 1   
    14    6   33 1   
    15    7   10 1   
    16    7   34 1   
    17    7   35 1   
    18    8    9 1   
    19    8   36 1   
    20    9   10 1   
    21    9   37 1   
    22    9   38 1   
    23   10   11 1   
    24   10   39 1   
    25   11   12 1   
    26   12   13 1   
    27   12   15 1   
    28   12   40 1   
    29   13   14 1   
    30   13   20 1   
    31   13   41 1   
    32   14   42 1   
    33   14   43 1   
    34   14   44 1   
    35   15   16 1   
    36   15   19 1   
    37   16   17 1   
    38   16   18 1   
    39   20   21 1   
    40   20   45 1   
    41   21   22 1   
    42   21   25 1   
    43   21   46 1   
    44   22   23 1   
    45   22   24 1   
    46   22   47 1   
    47   23   48 1   
    48   23   49 1   
    49   23   50 1   
    50   24   51 1   
    51   25   26 1   
    52   25   52 1   
@<TRIPOS>SUBSTRUCTURE
     1 DWZ         1 TEMP              0 ****  ****    0 ROOT
