@<TRIPOS>MOLECULE
DWZ
   53    54     1     0     0
SMALL
bcc


@<TRIPOS>ATOM
      1 CBE         0.7690    1.2870   -0.6230 c3        1 DWZ      0.082600
      2 NBC         1.7110    0.3970    0.0930 n4        1 DWZ     -0.613200
      3 CBD         0.9990   -0.5260    1.0040 c3        1 DWZ      0.082600
      4 C           2.5580   -0.4120   -0.9250 c         1 DWZ      0.545100
      5 O           1.9130   -1.0880   -1.7000 o         1 DWZ     -0.396100
      6 CA          4.0720   -0.2400   -0.7330 c3        1 DWZ      0.134500
      7 CB          4.4470    1.2660   -0.6800 c3        1 DWZ     -0.081400
      8 N           4.7740   -0.8680   -1.8370 n3        1 DWZ     -0.802200
      9 CD          5.5880    0.1450   -2.5080 c3        1 DWZ      0.136800
     10 CG          5.6610    1.3800   -1.5900 c3        1 DWZ     -0.047600
     11 SAK         5.6260    2.9210   -2.4450 ss        1 DWZ     -0.325200
     12 CAI         7.2050    3.0300   -3.2710 c3        1 DWZ     -0.063900
     13 CAH         7.3920    4.5160   -3.6380 c3        1 DWZ     -0.079700
     14 CAS         7.4840    4.6940   -5.1290 c3        1 DWZ     -0.094100
     15 CAL         8.4370    2.7040   -2.4340 ce        1 DWZ      0.368300
     16 CAM         8.6610    1.2460   -2.0170 c         1 DWZ      0.835300
     17 OAT         8.6840    0.9790   -0.7870 o         1 DWZ     -0.802300
     18 OAU         8.6990    0.4010   -2.9500 o         1 DWZ     -0.802300
     19 NAJ         9.2230    3.7090   -2.2170 n2        1 DWZ     -0.577900
     20 CAD         8.6660    4.9290   -2.8170 c3        1 DWZ      0.100500
     21 CAB         9.6840    5.7780   -3.5790 c3        1 DWZ     -0.200700
     22 CAE        10.7830    6.3800   -2.6820 c3        1 DWZ      0.161100
     23 CAF        10.2230    7.0640   -1.4480 c3        1 DWZ     -0.127100
     24 OAG        11.7840    5.4430   -2.3370 oh        1 DWZ     -0.606800
     25 CAA        10.3770    5.0170   -4.6850 c         1 DWZ      0.588900
     26 OAC        10.4220    5.4460   -5.8400 o         1 DWZ     -0.553100
     27 HBE         0.1400    1.8500    0.1170 hx        1 DWZ      0.101533
     28 HBEA        0.1080    0.6680   -1.2880 hx        1 DWZ      0.101533
     29 HBEB        1.3540    2.0110   -1.2520 hx        1 DWZ      0.101533
     30 HBD         0.3400   -1.2060    0.3980 hx        1 DWZ      0.101533
     31 HBDA        1.7510   -1.1400    1.5680 hx        1 DWZ      0.101533
     32 HBDB        0.3710    0.0580    1.7270 hx        1 DWZ      0.101533
     33 HA          4.2930   -0.7380    0.2580 h1        1 DWZ      0.079700
     34 HB          4.6960    1.5670    0.3660 hc        1 DWZ      0.056700
     35 HBA         3.6210    1.9180   -1.0620 hc        1 DWZ      0.056700
     36 HN          5.3140   -1.6540   -1.5290 hn        1 DWZ      0.401800
     37 HD          5.0810    0.4050   -3.4770 h1        1 DWZ      0.110700
     38 HDA         6.6320   -0.2360   -2.7320 h1        1 DWZ      0.110700
     39 HG          6.6040    1.3240   -0.9700 h1        1 DWZ      0.163700
     40 HAI         7.1890    2.3560   -4.1620 h1        1 DWZ      0.110700
     41 HAH         6.5240    5.1200   -3.2560 hc        1 DWZ      0.057700
     42 HAS         7.7080    5.7560   -5.3930 hc        1 DWZ      0.045033
     43 HASA        8.2870    4.0490   -5.5640 hc        1 DWZ      0.045033
     44 HASB        6.5130    4.4100   -5.6060 hc        1 DWZ      0.045033
     45 HAD         8.2970    5.5680   -1.9570 h1        1 DWZ      0.061700
     46 HAB         9.1160    6.6450   -4.0220 hc        1 DWZ      0.068700
     47 HAE        11.3440    7.1380   -3.3070 h1        1 DWZ      0.066700
     48 HAF        11.0230    7.6830   -0.9740 hc        1 DWZ      0.043367
     49 HAFA        9.3680    7.7240   -1.7230 hc        1 DWZ      0.043367
     50 HAFB        9.8800    6.3100   -0.6990 hc        1 DWZ      0.043367
     51 HOAG       11.3830    4.7560   -1.7880 ho        1 DWZ      0.431000
     52 HAA        10.8720    4.0700   -4.3800 h4        1 DWZ      0.036200
     53 HBC1        2.3530    0.9780    0.6460 hn        1 DWZ      0.451800
@<TRIPOS>BOND
     1    1    2 1   
     2    1   27 1   
     3    1   28 1   
     4    1   29 1   
     5    2    3 1   
     6    2    4 1   
     7    2   53 1   
     8    3   30 1   
     9    3   31 1   
    10    3   32 1   
    11    4    5 2   
    12    4    6 1   
    13    6    7 1   
    14    6    8 1   
    15    6   33 1   
    16    7   10 1   
    17    7   34 1   
    18    7   35 1   
    19    8    9 1   
    20    8   36 1   
    21    9   10 1   
    22    9   37 1   
    23    9   38 1   
    24   10   11 1   
    25   10   39 1   
    26   11   12 1   
    27   12   13 1   
    28   12   15 1   
    29   12   40 1   
    30   13   14 1   
    31   13   20 1   
    32   13   41 1   
    33   14   42 1   
    34   14   43 1   
    35   14   44 1   
    36   15   16 1   
    37   15   19 2   
    38   16   17 1   
    39   16   18 1   
    40   19   20 1   
    41   20   21 1   
    42   20   45 1   
    43   21   22 1   
    44   21   25 1   
    45   21   46 1   
    46   22   23 1   
    47   22   24 1   
    48   22   47 1   
    49   23   48 1   
    50   23   49 1   
    51   23   50 1   
    52   24   51 1   
    53   25   26 2   
    54   25   52 1   
@<TRIPOS>SUBSTRUCTURE
     1 DWZ         1 TEMP              0 ****  ****    0 ROOT
