@<TRIPOS>MOLECULE
DWZ
   52    53     1     0     0
SMALL
bcc


@<TRIPOS>ATOM
      1 CBE         7.1970    1.1060   -1.1200 c3        1 DWZ      0.086800
      2 NBC         6.1210    0.1900   -0.8790 n         1 DWZ     -0.504800
      3 CBD         6.1580   -1.0530   -1.5860 c3        1 DWZ      0.086800
      4 C           5.1500    0.4730    0.0880 c         1 DWZ      0.669100
      5 O           5.1850    1.5710    0.6680 o         1 DWZ     -0.580100
      6 CA          4.0700   -0.5940    0.3440 c3        1 DWZ      0.107500
      7 CB          2.9380   -0.4230   -0.7040 c3        1 DWZ     -0.071400
      8 N           3.4970   -0.4810    1.6910 n3        1 DWZ     -0.777200
      9 CD          2.0840   -0.1340    1.5510 c3        1 DWZ      0.134800
     10 CG          1.6490   -0.4330    0.1040 c3        1 DWZ     -0.034600
     11 SAK         0.5270    0.7530   -0.5750 ss        1 DWZ     -0.313200
     12 CAI        -0.9520    0.5730    0.3940 c3        1 DWZ     -0.079900
     13 CAH        -2.0180    1.4600   -0.2790 c3        1 DWZ     -0.078700
     14 CAS        -2.5260    2.5100    0.6730 c3        1 DWZ     -0.091100
     15 CAL        -1.5880   -0.8110    0.4030 ce        1 DWZ      0.387300
     16 CAM        -0.8830   -1.9320    1.1830 c         1 DWZ      0.837300
     17 OAT        -0.6780   -1.7000    2.4040 o         1 DWZ     -0.802800
     18 OAU        -0.5100   -2.9510    0.5510 o         1 DWZ     -0.802800
     19 NAJ        -2.7340   -0.8840   -0.1970 n2        1 DWZ     -0.609900
     20 CAD        -3.0830    0.4210   -0.7760 c3        1 DWZ      0.099500
     21 CAB        -4.5410    0.8340   -0.5660 c3        1 DWZ     -0.197700
     22 CAE        -5.5510   -0.0990   -1.2600 c3        1 DWZ      0.166100
     23 CAF        -5.1890   -0.3800   -2.7060 c3        1 DWZ     -0.126100
     24 OAG        -5.7700   -1.3020   -0.5480 oh        1 DWZ     -0.616800
     25 CAA        -4.9290    0.9130    0.8900 c         1 DWZ      0.593900
     26 OAC        -5.5700    1.8650    1.3430 o         1 DWZ     -0.568100
     27 HBE         7.2090    1.4080   -2.2020 h1        1 DWZ      0.034200
     28 HBEA        7.0750    2.0260   -0.4880 h1        1 DWZ      0.034200
     29 HBEB        8.1820    0.6240   -0.8750 h1        1 DWZ      0.034200
     30 HBD         6.5310   -1.8840   -0.9260 h1        1 DWZ      0.034200
     31 HBDA        5.1330   -1.3250   -1.9600 h1        1 DWZ      0.034200
     32 HBDB        6.8450   -0.9710   -2.4700 h1        1 DWZ      0.034200
     33 HA          4.5430   -1.6130    0.2250 h1        1 DWZ      0.045700
     34 HB          3.0550    0.5400   -1.2620 hc        1 DWZ      0.057700
     35 HBA         2.9580   -1.2630   -1.4400 hc        1 DWZ      0.057700
     36 HN          3.5930   -1.3620    2.1620 hn        1 DWZ      0.355800
     37 HD          1.4340   -0.7030    2.2770 h1        1 DWZ      0.087200
     38 HDA         1.9860    0.9660    1.7610 h1        1 DWZ      0.087200
     39 HG          1.1650   -1.4480    0.0660 h1        1 DWZ      0.131700
     40 HAI        -0.7360    0.8690    1.4510 h1        1 DWZ      0.104700
     41 HAH        -1.5830    1.9720   -1.1810 hc        1 DWZ      0.059700
     42 HAS        -1.6970    3.2130    0.9370 hc        1 DWZ      0.039700
     43 HASA       -3.3570    3.0990    0.2150 hc        1 DWZ      0.039700
     44 HASB       -2.9010    2.0470    1.6190 hc        1 DWZ      0.039700
     45 HAD        -2.9380    0.3270   -1.8950 h1        1 DWZ      0.056700
     46 HAB        -4.6610    1.8510   -1.0360 hc        1 DWZ      0.064700
     47 HAE        -6.5600    0.4120   -1.2200 h1        1 DWZ      0.057700
     48 HAF        -4.9260    0.5670   -3.2330 hc        1 DWZ      0.042033
     49 HAFA       -4.3250   -1.0850   -2.7660 hc        1 DWZ      0.042033
     50 HAFB       -6.0590   -0.8530   -3.2220 hc        1 DWZ      0.042033
     51 HOAG       -4.9340   -1.7870   -0.5090 ho        1 DWZ      0.437000
     52 HAA        -4.6340    0.0440    1.5180 h4        1 DWZ      0.034200
@<TRIPOS>BOND
     1    1    2 1   
     2    1   27 1   
     3    1   28 1   
     4    1   29 1   
     5    2    3 1   
     6    2    4 1   
     7    3   30 1   
     8    3   31 1   
     9    3   32 1   
    10    4    5 2   
    11    4    6 1   
    12    6    7 1   
    13    6    8 1   
    14    6   33 1   
    15    7   10 1   
    16    7   34 1   
    17    7   35 1   
    18    8    9 1   
    19    8   36 1   
    20    9   10 1   
    21    9   37 1   
    22    9   38 1   
    23   10   11 1   
    24   10   39 1   
    25   11   12 1   
    26   12   13 1   
    27   12   15 1   
    28   12   40 1   
    29   13   14 1   
    30   13   20 1   
    31   13   41 1   
    32   14   42 1   
    33   14   43 1   
    34   14   44 1   
    35   15   16 1   
    36   15   19 2   
    37   16   17 1   
    38   16   18 1   
    39   19   20 1   
    40   20   21 1   
    41   20   45 1   
    42   21   22 1   
    43   21   25 1   
    44   21   46 1   
    45   22   23 1   
    46   22   24 1   
    47   22   47 1   
    48   23   48 1   
    49   23   49 1   
    50   23   50 1   
    51   24   51 1   
    52   25   26 2   
    53   25   52 1   
@<TRIPOS>SUBSTRUCTURE
     1 DWZ         1 TEMP              0 ****  ****    0 ROOT
