@<TRIPOS>MOLECULE
DWZ
   53    54     1     0     0
SMALL
bcc


@<TRIPOS>ATOM
      1 CBE         0.7780    1.2760   -0.6180 c3        1 DWZ      0.082600
      2 NBC         1.7240    0.3860    0.0940 nx        1 DWZ     -0.613200
      3 CBD         1.0150   -0.5400    1.0050 c3        1 DWZ      0.082600
      4 C           2.5690   -0.4200   -0.9270 c         1 DWZ      0.545100
      5 O           1.9240   -1.0950   -1.7020 o         1 DWZ     -0.396100
      6 CA          4.0830   -0.2460   -0.7390 c3        1 DWZ      0.134500
      7 CB          4.4560    1.2610   -0.6840 c3        1 DWZ     -0.081400
      8 N           4.7830   -0.8710   -1.8440 n7        1 DWZ     -0.802200
      9 CD          5.5960    0.1440   -2.5150 c3        1 DWZ      0.136800
     10 CG          5.6680    1.3780   -1.5960 c3        1 DWZ     -0.047600
     11 SAK         5.6300    2.9200   -2.4480 ss        1 DWZ     -0.325200
     12 CAI         7.2090    3.0330   -3.2750 c3        1 DWZ     -0.063900
     13 CAH         7.3940    4.5190   -3.6380 c3        1 DWZ     -0.079700
     14 CAS         7.4850    4.7010   -5.1300 c3        1 DWZ     -0.094100
     15 CAL         8.4420    2.7060   -2.4400 ce        1 DWZ      0.368300
     16 CAM         8.6680    1.2470   -2.0270 c         1 DWZ      0.835300
     17 OAT         8.6930    0.9770   -0.7970 o         1 DWZ     -0.802300
     18 OAU         8.7050    0.4040   -2.9620 o         1 DWZ     -0.802300
     19 NAJ         9.2270    3.7110   -2.2210 n2        1 DWZ     -0.577900
     20 CAD         8.6670    4.9320   -2.8170 c3        1 DWZ      0.100500
     21 CAB         9.6840    5.7840   -3.5780 c3        1 DWZ     -0.200700
     22 CAE        10.7830    6.3850   -2.6800 c3        1 DWZ      0.161100
     23 CAF        10.2230    7.0650   -1.4440 c3        1 DWZ     -0.127100
     24 OAG        11.7860    5.4490   -2.3380 oh        1 DWZ     -0.606800
     25 CAA        10.3770    5.0270   -4.6860 c         1 DWZ      0.588900
     26 OAC        10.4210    5.4590   -5.8400 o         1 DWZ     -0.553100
     27 HBE         0.1160    0.6570   -1.2820 hx        1 DWZ      0.101533
     28 HBEA        1.3600    2.0020   -1.2480 hx        1 DWZ      0.101533
     29 HBEB        0.1500    1.8370    0.1240 hx        1 DWZ      0.101533
     30 HBD         0.3880    0.0430    1.7310 hx        1 DWZ      0.101533
     31 HBDA        0.3550   -1.2190    0.4000 hx        1 DWZ      0.101533
     32 HBDB        1.7690   -1.1530    1.5660 hx        1 DWZ      0.101533
     33 HA          4.3080   -0.7450    0.2510 h1        1 DWZ      0.079700
     34 HB          4.7060    1.5610    0.3630 hc        1 DWZ      0.056700
     35 HBA         3.6280    1.9120   -1.0640 hc        1 DWZ      0.056700
     36 HN          5.3250   -1.6570   -1.5400 hn        1 DWZ      0.401800
     37 HD          5.0860    0.4050   -3.4830 h1        1 DWZ      0.110700
     38 HDA         6.6390   -0.2350   -2.7420 h1        1 DWZ      0.110700
     39 HG          6.6120    1.3210   -0.9770 h1        1 DWZ      0.163700
     40 HAI         7.1920    2.3600   -4.1680 h1        1 DWZ      0.110700
     41 HAH         6.5260    5.1220   -3.2550 hc        1 DWZ      0.057700
     42 HAS         8.2890    4.0580   -5.5660 hc        1 DWZ      0.044700
     43 HASA        7.7080    5.7640   -5.3910 hc        1 DWZ      0.044700
     44 HASB        6.5150    4.4160   -5.6060 hc        1 DWZ      0.044700
     45 HAD         8.2990    5.5690   -1.9560 h1        1 DWZ      0.061700
     46 HAB         9.1150    6.6520   -4.0190 hc        1 DWZ      0.068700
     47 HAE        11.3420    7.1460   -3.3040 h1        1 DWZ      0.066700
     48 HAF         9.8810    6.3090   -0.6970 hc        1 DWZ      0.043367
     49 HAFA        9.3670    7.7260   -1.7170 hc        1 DWZ      0.043367
     50 HAFB       11.0210    7.6850   -0.9690 hc        1 DWZ      0.043367
     51 HOAG       11.3860    4.7610   -1.7900 ho        1 DWZ      0.431000
     52 HAA        10.8740    4.0800   -4.3840 h4        1 DWZ      0.036200
     53 HBC1        2.3660    0.9670    0.6470 hn        1 DWZ      0.451800
@<TRIPOS>BOND
     1    1    2 1   
     2    1   27 1   
     3    1   28 1   
     4    1   29 1   
     5    2    3 1   
     6    2    4 1   
     7    2   53 1   
     8    3   30 1   
     9    3   31 1   
    10    3   32 1   
    11    4    5 2   
    12    4    6 1   
    13    6    7 1   
    14    6    8 1   
    15    6   33 1   
    16    7   10 1   
    17    7   34 1   
    18    7   35 1   
    19    8    9 1   
    20    8   36 1   
    21    9   10 1   
    22    9   37 1   
    23    9   38 1   
    24   10   11 1   
    25   10   39 1   
    26   11   12 1   
    27   12   13 1   
    28   12   15 1   
    29   12   40 1   
    30   13   14 1   
    31   13   20 1   
    32   13   41 1   
    33   14   42 1   
    34   14   43 1   
    35   14   44 1   
    36   15   16 1   
    37   15   19 2   
    38   16   17 1   
    39   16   18 1   
    40   19   20 1   
    41   20   21 1   
    42   20   45 1   
    43   21   22 1   
    44   21   25 1   
    45   21   46 1   
    46   22   23 1   
    47   22   24 1   
    48   22   47 1   
    49   23   48 1   
    50   23   49 1   
    51   23   50 1   
    52   24   51 1   
    53   25   26 2   
    54   25   52 1   
@<TRIPOS>SUBSTRUCTURE
     1 DWZ         1 TEMP              0 ****  ****    0 ROOT
