@<TRIPOS>MOLECULE
DX1
   38    39     1     0     0
SMALL
bcc


@<TRIPOS>ATOM
      1 C5          0.0070    0.0540    0.0190 c2        1 DX1      0.011000
      2 N7          2.1810    0.3950    1.3030 n2        1 DX1     -0.238000
      3 C2         -0.5890   -0.5930    3.5300 c2        1 DX1      0.070000
      4 N1          0.0380   -0.6290    4.7440 n2        1 DX1     -0.290000
      5 C6          1.4680    0.5530    0.0510 c3        1 DX1     -0.104000
      6 C10         1.3900   -0.3550    4.6730 c2        1 DX1      0.080000
      7 N12        -2.0400   -0.8910    3.5300 n4        1 DX1     -0.010000
      8 N9          2.1620   -0.0570    3.6200 n2        1 DX1     -0.171000
      9 C8          1.5040    0.0290    2.3740 c2        1 DX1      0.142000
     10 C16         2.2790   -0.0520   -1.0670 c2        1 DX1      0.352000
     11 C17         2.5040    0.7390   -2.2630 c3        1 DX1     -0.315500
     12 C18         2.8970   -1.3510   -0.9130 c3        1 DX1     -0.315500
     13 N4         -0.6230   -0.3020    1.0960 n2        1 DX1     -0.133000
     14 C3          0.0500   -0.2940    2.3220 c2        1 DX1     -0.205000
     15 C13        -0.6780    0.1040   -1.3290 c3        1 DX1     -0.071000
     16 C14        -1.8230   -0.8810   -1.4510 c3        1 DX1     -0.216000
     17 C15        -1.1640    1.5180   -1.5960 c3        1 DX1     -0.216000
     18 HN11        1.9860   -1.3310    6.4110 hn        1 DX1      0.282667
     19 HN1A        1.6930    0.3080    6.6190 hn        1 DX1      0.282667
     20 HN12       -2.3810   -1.1040    4.4770 hn        1 DX1      0.278000
     21 HN1B       -2.5420   -0.0730    3.1600 hn        1 DX1      0.278000
     22 H16         1.4050    1.6790   -0.1440 h1        1 DX1      0.172000
     23 H17         1.6990    1.5010   -2.4490 hc        1 DX1      0.185333
     24 H17A        2.6510    0.1110   -3.1840 hc        1 DX1      0.185333
     25 H17B        3.4700    1.3220   -2.1140 hc        1 DX1      0.185333
     26 H18         3.8160   -1.2230   -0.2500 hc        1 DX1      0.185333
     27 H18A        2.2380   -2.0800   -0.3690 hc        1 DX1      0.185333
     28 H18B        3.2430   -1.8000   -1.8820 hc        1 DX1      0.185333
     29 H13         0.0940   -0.1700   -2.1060 hc        1 DX1      0.084000
     30 H14        -2.1960   -0.8840   -2.5050 hc        1 DX1      0.099333
     31 H14A       -2.6710   -0.5960   -0.7840 hc        1 DX1      0.099333
     32 H14B       -1.4890   -1.9140   -1.1900 hc        1 DX1      0.099333
     33 H15        -1.6310    1.5640   -2.6110 hc        1 DX1      0.099333
     34 H15A       -1.9330    1.8200   -0.8440 hc        1 DX1      0.099333
     35 H15B       -0.3200    2.2480   -1.5580 hc        1 DX1      0.099333
     36 N11         2.1020   -0.3990    5.9950 n4        1 DX1     -0.016000
     37 H123       -2.2100   -1.6970    2.9130 hn        1 DX1      0.278000
     38 H113        3.1050   -0.2010    5.8610 hn        1 DX1      0.282667
@<TRIPOS>BOND
     1    1    5 1   
     2    1   13 1   
     3    1   15 1   
     4    2    5 1   
     5    2    9 1   
     6    3    4 1   
     7    3    7 1   
     8    3   14 1   
     9    4    6 1   
    10    5   10 1   
    11    5   22 1   
    12    6    8 1   
    13    6   36 1   
    14    7   20 1   
    15    7   21 1   
    16    7   37 1   
    17    8    9 1   
    18    9   14 1   
    19   10   11 1   
    20   10   12 1   
    21   11   23 1   
    22   11   24 1   
    23   11   25 1   
    24   12   26 1   
    25   12   27 1   
    26   12   28 1   
    27   13   14 1   
    28   15   16 1   
    29   15   17 1   
    30   15   29 1   
    31   16   30 1   
    32   16   31 1   
    33   16   32 1   
    34   17   33 1   
    35   17   34 1   
    36   17   35 1   
    37   18   36 1   
    38   19   36 1   
    39   36   38 1   
@<TRIPOS>SUBSTRUCTURE
     1 DX1         1 TEMP              0 ****  ****    0 ROOT
