@<TRIPOS>MOLECULE
DX1
   36    32     1     0     0
SMALL
bcc


@<TRIPOS>ATOM
      1 C5         -0.4710    0.0090   -0.6950 c1        1 DX1     -0.036500
      2 N7          1.5930    0.0070    0.4700 n1        1 DX1     -0.216500
      3 C2         -1.1510    0.0080    2.8670 c1        1 DX1      0.180000
      4 N1         -0.4740    0.0100    4.0340 n1        1 DX1     -0.216500
      5 C6          0.9210    0.0090   -0.6950 c1        1 DX1     -0.036500
      6 N11         1.6170    0.0230    5.2710 n3        1 DX1     -0.331000
      7 C10         0.9020    0.0100    4.0330 c1        1 DX1      0.211000
      8 N12        -2.5800   -0.0410    2.8710 n2        1 DX1     -0.356000
      9 N9          1.5880    0.0080    2.8460 n1        1 DX1     -0.246000
     10 C8          0.9060    0.0050    1.6610 c1        1 DX1      0.180000
     11 C16         1.6910    0.0180   -2.0270 c3        1 DX1     -0.058000
     12 C17         2.7920    1.0910   -1.9760 c3        1 DX1     -0.205750
     13 C18         2.3300   -1.3590   -2.2590 c3        1 DX1     -0.205750
     14 N4         -1.1440    0.0070    0.4700 n1        1 DX1     -0.083000
     15 C3         -0.4570    0.0050    1.6610 c2        1 DX1     -0.229000
     16 C13        -1.4800    0.0710   -1.8600 c3        1 DX1     -0.058000
     17 C14        -2.4290   -1.1320   -1.7810 c3        1 DX1     -0.205750
     18 C15        -2.2920    1.3710   -1.7650 c3        1 DX1     -0.205750
     19 HN11        1.8510   -0.7670    5.6730 hn        1 DX1      0.229500
     20 HN1A        1.8530    0.8210    5.6560 hn        1 DX1      0.229500
     21 HN12       -3.0110   -0.8510    2.8950 hn        1 DX1      0.246500
     22 HN1B       -3.0650    0.7370    2.9020 hn        1 DX1      0.246500
     23 H16         1.0720    0.2200   -2.7620 hc        1 DX1      0.097500
     24 H17         3.1200    1.7250   -2.6560 hc        1 DX1      0.080750
     25 H17A        2.0020    1.6690   -2.0590 hc        1 DX1      0.080750
     26 H17B        3.2060    0.4600   -2.6030 hc        1 DX1      0.080750
     27 H18         1.6670   -2.0620   -2.0790 hc        1 DX1      0.080750
     28 H18A        3.0980   -1.4700   -1.6550 hc        1 DX1      0.080750
     29 H18B        2.6330   -1.4270   -3.1930 hc        1 DX1      0.080750
     30 H13        -0.9960    0.0500   -2.7140 hc        1 DX1      0.097500
     31 H14        -2.8800   -1.2530   -2.6480 hc        1 DX1      0.080750
     32 H14A       -1.9160   -1.9410   -1.5630 hc        1 DX1      0.080750
     33 H14B       -3.1010   -0.9730   -1.0820 hc        1 DX1      0.080750
     34 H15        -2.7570    1.5300   -2.6170 hc        1 DX1      0.080750
     35 H15A       -1.6870    2.1220   -1.5770 hc        1 DX1      0.080750
     36 H15B       -2.9510    1.2920   -1.0410 hc        1 DX1      0.080750
@<TRIPOS>BOND
     1    1    5 1   
     2    1   16 1   
     3    2   10 1   
     4    3    4 1   
     5    3   15 1   
     6    5   11 1   
     7    6    7 1   
     8    6   19 1   
     9    6   20 1   
    10    7    9 1   
    11    8   21 1   
    12    8   22 1   
    13   10   15 1   
    14   11   12 1   
    15   11   13 1   
    16   11   23 1   
    17   12   24 1   
    18   12   25 1   
    19   12   26 1   
    20   13   27 1   
    21   13   28 1   
    22   13   29 1   
    23   14   15 1   
    24   16   17 1   
    25   16   18 1   
    26   16   30 1   
    27   17   31 1   
    28   17   32 1   
    29   17   33 1   
    30   18   34 1   
    31   18   35 1   
    32   18   36 1   
@<TRIPOS>SUBSTRUCTURE
     1 DX1         1 TEMP              0 ****  ****    0 ROOT
