@<TRIPOS>MOLECULE
DX1
   36    36     1     0     0
SMALL
bcc


@<TRIPOS>ATOM
      1 C5         -0.1030    0.0150    0.4200 ca        1 DX1      0.265300
      2 N7          2.0290    0.0960    1.6150 nb        1 DX1     -0.629000
      3 C2         -0.8860    0.1960    4.0030 ca        1 DX1      0.711900
      4 N1         -0.2200    0.2410    5.1790 nb        1 DX1     -0.845000
      5 C6          1.3470    0.0380    0.4900 ca        1 DX1      0.335900
      6 C10         1.1770    0.2110    5.1300 ca        1 DX1      0.931900
      7 N12        -2.2550    0.2330    4.0160 nh        1 DX1     -0.956500
      8 N9          1.9550    0.1890    3.9980 nb        1 DX1     -0.771000
      9 C8          1.2850    0.1370    2.8040 ca        1 DX1      0.622000
     10 C16         3.3170    0.2490   -2.8000 c2        1 DX1     -0.180200
     11 C17         3.9550    0.9680   -1.8790 c2        1 DX1     -0.223000
     12 C18         2.9700   -1.1780   -2.6460 c3        1 DX1     -0.072900
     13 N4         -0.8340    0.0620    1.5290 nb        1 DX1     -0.602000
     14 C3         -0.1620    0.1270    2.7230 ca        1 DX1      0.035000
     15 C13        -0.7480   -0.0600   -0.9390 c3        1 DX1     -0.104000
     16 C14        -1.6530   -1.2710   -1.0520 c3        1 DX1     -0.087600
     17 C15        -1.5130    1.2120   -1.2420 c3        1 DX1     -0.087600
     18 HN11        1.3180    0.3960    7.1690 hn        1 DX1      0.436300
     19 HN1A        2.8100    0.3360    6.3630 hn        1 DX1      0.436300
     20 HN12       -2.7510    0.2470    4.8730 hn        1 DX1      0.451300
     21 HN1B       -2.7570    0.1630    3.1660 hn        1 DX1      0.451300
     22 H16         1.9440    0.0090   -0.4450 h4        1 DX1      0.043100
     23 H17         3.0090    0.7010   -3.7590 ha        1 DX1      0.117000
     24 H17A        4.2800    0.5510   -0.9160 ha        1 DX1      0.117500
     25 H17B        4.1980    2.0280   -2.0290 ha        1 DX1      0.117500
     26 H18         3.4190   -1.7750   -3.4790 hc        1 DX1      0.042033
     27 H18A        3.3400   -1.5940   -1.6770 hc        1 DX1      0.042033
     28 H18B        1.8590   -1.3100   -2.6850 hc        1 DX1      0.042033
     29 H13         0.0800   -0.1670   -1.7000 hc        1 DX1      0.053700
     30 H14        -1.0930   -2.2030   -0.8000 hc        1 DX1      0.040367
     31 H14A       -2.0390   -1.3570   -2.0970 hc        1 DX1      0.040367
     32 H14B       -2.5240   -1.1810   -0.3600 hc        1 DX1      0.040367
     33 H15        -1.9190    1.1700   -2.2820 hc        1 DX1      0.040367
     34 H15A       -0.8440    2.1010   -1.1560 hc        1 DX1      0.040367
     35 H15B       -2.3660    1.3390   -0.5330 hc        1 DX1      0.040367
     36 N11         1.8340    0.1540    6.3570 nh        1 DX1     -0.934500
@<TRIPOS>BOND
     1    1    5 ar  
     2    1   13 ar  
     3    1   15 1   
     4    2    5 ar  
     5    2    9 ar  
     6    3    4 ar  
     7    3    7 1   
     8    3   14 ar  
     9    4    6 ar  
    10    5   22 1   
    11    6    8 ar  
    12    6   36 1   
    13    7   20 1   
    14    7   21 1   
    15    8    9 ar  
    16    9   14 ar  
    17   10   11 2   
    18   10   12 1   
    19   10   23 1   
    20   11   24 1   
    21   11   25 1   
    22   12   26 1   
    23   12   27 1   
    24   12   28 1   
    25   13   14 ar  
    26   15   16 1   
    27   15   17 1   
    28   15   29 1   
    29   16   30 1   
    30   16   31 1   
    31   16   32 1   
    32   17   33 1   
    33   17   34 1   
    34   17   35 1   
    35   18   36 1   
    36   19   36 1   
@<TRIPOS>SUBSTRUCTURE
     1 DX1         1 TEMP              0 ****  ****    0 ROOT
