@<TRIPOS>MOLECULE
DX1
   36    35     1     0     0
SMALL
bcc


@<TRIPOS>ATOM
      1 C5          0.5370    0.3960    0.5590 ca        1 DX1      0.306800
      2 N7          2.5350    0.1380    1.9510 nb        1 DX1     -0.630000
      3 C2         -0.5970    0.2160    4.0500 ca        1 DX1      0.712900
      4 N1         -0.0510    0.0970    5.2830 nb        1 DX1     -0.846000
      5 C6          1.9710    0.2670    0.7700 ca        1 DX1      0.342900
      6 C10         1.3420    0.0200    5.3660 ca        1 DX1      0.934900
      7 N12        -1.9590    0.2870    3.9340 nv        1 DX1     -0.955500
      8 N9          2.2250    0.0050    4.3120 nb        1 DX1     -0.771000
      9 C8          1.6790    0.1300    3.0630 ca        1 DX1      0.624000
     10 C16         3.3030    0.4820   -2.6660 c2        1 DX1     -0.180200
     11 C17         4.0760    1.3400   -2.0020 c2        1 DX1     -0.224000
     12 C18         3.3290   -0.9820   -2.4690 c3        1 DX1     -0.074900
     13 N4         -0.2990    0.3850    1.5980 nb        1 DX1     -0.603000
     14 C3          0.2490    0.2510    2.8450 ca        1 DX1      0.037000
     15 C13         0.0700    0.5350   -0.8190 ce        1 DX1     -0.237800
     16 C14        -3.9950   -1.5770   -2.1900 c3        1 DX1     -0.111800
     17 C15        -1.2000    0.7010   -1.1920 c2        1 DX1     -0.179000
     18 HN11        2.8370   -0.2470    6.7440 hn        1 DX1      0.438300
     19 HN1A        1.2730   -0.2060    7.4050 hn        1 DX1      0.438300
     20 HN12       -2.5340    0.2910    4.7410 hn        1 DX1      0.451800
     21 HN1B       -2.3720    0.4050    3.0430 hn        1 DX1      0.451800
     22 H16         2.6510    0.2760   -0.1080 h4        1 DX1      0.043100
     23 H17         2.5860    0.8360   -3.4260 ha        1 DX1      0.117000
     24 H17A        4.0340    2.4230   -2.1780 ha        1 DX1      0.116000
     25 H17B        4.8030    1.0210   -1.2430 ha        1 DX1      0.116000
     26 H18         4.0530   -1.2810   -1.6710 hc        1 DX1      0.044367
     27 H18A        2.3130   -1.3490   -2.1790 hc        1 DX1      0.044367
     28 H18B        3.6240   -1.4910   -3.4210 hc        1 DX1      0.044367
     29 H13         0.8820    0.4920   -1.5700 ha        1 DX1      0.133000
     30 H14        -3.5570   -2.5440   -2.5210 hc        1 DX1      0.027700
     31 H14A       -4.6860   -1.7560   -1.3380 hc        1 DX1      0.027700
     32 H14B       -4.5560   -1.1160   -3.0320 hc        1 DX1      0.027700
     33 H15        -3.1790   -0.8920   -1.8680 hc        1 DX1      0.027700
     34 H15A       -2.0370    0.7500   -0.4840 ha        1 DX1      0.120500
     35 H15B       -1.4780    0.7990   -2.2500 ha        1 DX1      0.120500
     36 N11         1.8800   -0.0020    6.6490 nv        1 DX1     -0.936500
@<TRIPOS>BOND
     1    1    5 ar  
     2    1   13 ar  
     3    1   15 1   
     4    2    5 ar  
     5    2    9 ar  
     6    3    4 ar  
     7    3    7 1   
     8    3   14 ar  
     9    4    6 ar  
    10    5   22 1   
    11    6    8 ar  
    12    6   36 1   
    13    7   20 1   
    14    7   21 1   
    15    8    9 ar  
    16    9   14 ar  
    17   10   11 2   
    18   10   12 1   
    19   10   23 1   
    20   11   24 1   
    21   11   25 1   
    22   12   26 1   
    23   12   27 1   
    24   12   28 1   
    25   13   14 ar  
    26   15   17 2   
    27   15   29 1   
    28   16   30 1   
    29   16   31 1   
    30   16   32 1   
    31   16   33 1   
    32   17   34 1   
    33   17   35 1   
    34   18   36 1   
    35   19   36 1   
@<TRIPOS>SUBSTRUCTURE
     1 DX1         1 TEMP              0 ****  ****    0 ROOT
