@<TRIPOS>MOLECULE
DX1
   36    37     1     0     0
SMALL
bcc


@<TRIPOS>ATOM
      1 C5         -1.3170    0.6520    0.0540 ca        1 DX1      0.273300
      2 N7         -0.1870   -1.5090   -0.1080 nb        1 DX1     -0.639000
      3 C2          2.3040    1.3020    0.1270 ca        1 DX1      0.712900
      4 N1          3.4560    0.5950    0.0870 nb        1 DX1     -0.846000
      5 C6         -1.3130   -0.8070   -0.0760 ca        1 DX1      0.368300
      6 C10         3.3530   -0.7950   -0.0350 ca        1 DX1      0.929900
      7 N12         2.3660    2.6660    0.2470 nh        1 DX1     -0.958500
      8 N9          2.1950   -1.5310   -0.0730 nb        1 DX1     -0.772000
      9 C8          1.0230   -0.8150   -0.0400 ca        1 DX1      0.629000
     10 C16        -2.6250   -1.5580   -0.1700 c3        1 DX1     -0.119000
     11 C17        -2.5370   -2.7860   -1.0560 c3        1 DX1     -0.088600
     12 C18        -3.0880   -1.9460    1.2210 c3        1 DX1     -0.088600
     13 N4         -0.1750    1.3300    0.1060 nb        1 DX1     -0.609000
     14 C3          0.9980    0.6270    0.0610 ca        1 DX1      0.034000
     15 C13        -2.6210    1.4120    0.1220 c3        1 DX1     -0.107000
     16 C14        -2.5390    2.6390    1.0100 c3        1 DX1     -0.087100
     17 C15        -3.0630    1.8050   -1.2750 c3        1 DX1     -0.087100
     18 HN11        5.3890   -1.0190    0.0800 hn        1 DX1      0.434300
     19 HN1A        4.5290   -2.4740   -0.0560 hn        1 DX1      0.434300
     20 HN12        3.2400    3.1310    0.2710 hn        1 DX1      0.451300
     21 HN1B        1.5320    3.1960    0.2580 hn        1 DX1      0.451300
     22 H16        -3.3840   -0.8670   -0.6370 hc        1 DX1      0.058700
     23 H17        -3.5590   -3.2150   -1.1960 hc        1 DX1      0.043367
     24 H17A       -2.1200   -2.5180   -2.0560 hc        1 DX1      0.043367
     25 H17B       -1.8850   -3.5680   -0.5980 hc        1 DX1      0.043367
     26 H18        -3.1770   -1.0470    1.8770 hc        1 DX1      0.043367
     27 H18A       -4.0860   -2.4440    1.1600 hc        1 DX1      0.043367
     28 H18B       -2.3640   -2.6570    1.6890 hc        1 DX1      0.043367
     29 H13        -3.3950    0.7290    0.5780 hc        1 DX1      0.057700
     30 H14        -1.8810    3.4200    0.5590 hc        1 DX1      0.039533
     31 H14A       -3.5600    3.0740    1.1390 hc        1 DX1      0.039533
     32 H14B       -2.1350    2.3700    2.0150 hc        1 DX1      0.039533
     33 H15        -4.0580    2.3110   -1.2280 hc        1 DX1      0.039533
     34 H15A       -2.3280    2.5070   -1.7340 hc        1 DX1      0.039533
     35 H15B       -3.1510    0.9050   -1.9310 hc        1 DX1      0.039533
     36 N11         4.5540   -1.4890   -0.1770 nh        1 DX1     -0.933500
@<TRIPOS>BOND
     1    1    5 ar  
     2    1   13 ar  
     3    1   15 1   
     4    2    5 ar  
     5    2    9 ar  
     6    3    4 ar  
     7    3    7 1   
     8    3   14 ar  
     9    4    6 ar  
    10    5   10 1   
    11    6    8 ar  
    12    6   36 1   
    13    7   20 1   
    14    7   21 1   
    15    8    9 ar  
    16    9   14 ar  
    17   10   11 1   
    18   10   12 1   
    19   10   22 1   
    20   11   23 1   
    21   11   24 1   
    22   11   25 1   
    23   12   26 1   
    24   12   27 1   
    25   12   28 1   
    26   13   14 ar  
    27   15   16 1   
    28   15   17 1   
    29   15   29 1   
    30   16   30 1   
    31   16   31 1   
    32   16   32 1   
    33   17   33 1   
    34   17   34 1   
    35   17   35 1   
    36   18   36 1   
    37   19   36 1   
@<TRIPOS>SUBSTRUCTURE
     1 DX1         1 TEMP              0 ****  ****    0 ROOT
