@<TRIPOS>MOLECULE
DX2
   30    32     1     0     0
SMALL
bcc


@<TRIPOS>ATOM
      1 C4         -2.3090   -1.4800    0.2820 ca        1 DX2      0.723900
      2 C6          0.9380    0.2050   -0.0270 cp        1 DX2      0.276500
      3 C7          0.4950    1.5990   -0.2450 ca        1 DX2      0.601900
      4 N1         -3.0710    1.2160   -0.2000 nb        1 DX2     -0.785000
      5 N3         -3.6240   -1.1620    0.2260 nb        1 DX2     -0.856000
      6 CAG         3.2030    0.4670    0.9800 ca        1 DX2     -0.109500
      7 CAE         4.5650    0.1680    1.0010 ca        1 DX2     -0.135500
      8 CAD         5.1080   -0.7010    0.0540 ca        1 DX2     -0.122000
      9 CAF         4.2860   -1.2770   -0.9140 ca        1 DX2     -0.135500
     10 CAH         2.9220   -0.9850   -0.9400 ca        1 DX2     -0.109500
     11 CAN         2.3780   -0.1040    0.0020 cp        1 DX2     -0.145500
     12 N5          0.0560   -0.7720    0.1300 nb        1 DX2     -0.571000
     13 C4A        -1.2730   -0.4560    0.0890 ca        1 DX2     -0.009000
     14 N4         -1.9540   -2.7800    0.5280 nh        1 DX2     -0.958500
     15 C2         -3.9490    0.1710   -0.0410 ca        1 DX2      0.939900
     16 C8A        -1.7360    0.9010   -0.1420 ca        1 DX2      0.675000
     17 N8         -0.8140    1.9230   -0.3200 nb        1 DX2     -0.727000
     18 NAB         1.4420    2.6050   -0.3260 nh        1 DX2     -0.943500
     19 HN2        -5.5800    1.4050   -0.1860 hn        1 DX2      0.435300
     20 HN2A       -5.9570   -0.2200    0.1280 hn        1 DX2      0.435300
     21 HAG         2.7740    1.1410    1.7370 ha        1 DX2      0.144000
     22 HAE         5.2100    0.6160    1.7710 ha        1 DX2      0.135000
     23 HAD         6.1820   -0.9340    0.0740 ha        1 DX2      0.134000
     24 HAF         4.7110   -1.9680   -1.6570 ha        1 DX2      0.135000
     25 HAH         2.2720   -1.4490   -1.6960 ha        1 DX2      0.144000
     26 HN4        -2.6460   -3.4740    0.6660 hn        1 DX2      0.451300
     27 HN4A       -0.9980   -3.0260    0.5910 hn        1 DX2      0.451300
     28 HNAB        2.3650    2.3250   -0.5630 hn        1 DX2      0.430800
     29 HNAA        1.1510    3.5040   -0.6320 hn        1 DX2      0.430800
     30 N2         -5.3050    0.4520   -0.2000 nh        1 DX2     -0.935500
@<TRIPOS>BOND
     1    1    5 ar  
     2    1   13 ar  
     3    1   14 1   
     4    2    3 ar  
     5    2   11 1   
     6    2   12 ar  
     7    3   17 ar  
     8    3   18 1   
     9    4   15 ar  
    10    4   16 ar  
    11    5   15 ar  
    12    6    7 ar  
    13    6   11 ar  
    14    6   21 1   
    15    7    8 ar  
    16    7   22 1   
    17    8    9 ar  
    18    8   23 1   
    19    9   10 ar  
    20    9   24 1   
    21   10   11 ar  
    22   10   25 1   
    23   12   13 ar  
    24   13   16 ar  
    25   14   26 1   
    26   14   27 1   
    27   15   30 1   
    28   16   17 ar  
    29   18   28 1   
    30   18   29 1   
    31   19   30 1   
    32   20   30 1   
@<TRIPOS>SUBSTRUCTURE
     1 DX2         1 TEMP              0 ****  ****    0 ROOT
