@<TRIPOS>MOLECULE
DX2
   30    23     1     0     0
SMALL
bcc


@<TRIPOS>ATOM
      1 C4          2.0300    0.2230   -1.8300 c1        1 DX2      0.626100
      2 C6         -0.6380    0.0960    0.6030 c1        1 DX2      0.231800
      3 C7          0.0830    0.1650    1.7830 c1        1 DX2      0.366400
      4 N1          3.4340    0.3570    0.5070 n1        1 DX2     -0.620300
      5 N2          5.5030    0.3560   -0.6800 n3        1 DX2     -0.809900
      6 N3          3.3720    0.3090   -1.8640 n1        1 DX2     -0.620300
      7 CAG        -2.9090    0.9200    0.2830 c1        1 DX2     -0.044500
      8 CAE        -4.2550    0.6370    0.1100 c1        1 DX2     -0.070000
      9 CAD        -4.6890   -0.6790    0.0840 c1        1 DX2     -0.070000
     10 CAF        -3.7770   -1.7120    0.2310 c1        1 DX2     -0.070000
     11 CAH        -2.4310   -1.4290    0.4050 c1        1 DX2     -0.070000
     12 CAN        -1.9970   -0.1130    0.4310 c1        1 DX2     -0.038000
     13 N5          0.0010    0.1160   -0.5750 n1        1 DX2     -0.370800
     14 C4A         1.3660    0.2030   -0.6120 c1        1 DX2     -0.272000
     15 N4          1.7460    0.2500   -3.2200 n3        1 DX2     -0.809900
     16 C2          4.0850    0.3760   -0.6950 c1        1 DX2      0.626100
     17 C8A         2.0730    0.2700    0.5450 cg        1 DX2      0.201000
     18 N8          1.4200    0.2500    1.7480 ne        1 DX2     -0.473400
     19 NAB        -0.1600    0.2070    3.1810 n3        1 DX2     -0.440400
     20 HN2         5.9530    0.3750    0.1150 hn        1 DX2      0.443300
     21 HN2A        5.9680    0.3330   -1.4670 hn        1 DX2      0.443300
     22 HAG        -2.6040    1.8470    0.3020 ha        1 DX2      0.085500
     23 HAE        -4.8970    1.3650    0.0060 ha        1 DX2      0.079750
     24 HAD        -5.6370   -0.8780   -0.0380 ha        1 DX2      0.079750
     25 HAF        -4.0820   -2.6390    0.2130 ha        1 DX2      0.079750
     26 HAH        -1.7890   -2.1570    0.5090 ha        1 DX2      0.079750
     27 HN4         0.8790    0.2860   -3.5090 hn        1 DX2      0.443300
     28 HN4A        2.4290    0.2230   -3.8270 hn        1 DX2      0.443300
     29 HNAB        0.5410    0.2710    3.7650 hn        1 DX2      0.275700
     30 HNAA       -1.0170    0.1740    3.4970 hn        1 DX2      0.275700
@<TRIPOS>BOND
     1    1    6 3   
     2    1   15 1   
     3    2   13 3   
     4    3   18 2   
     5    3   19 2   
     6    4   16 3   
     7    5   16 1   
     8    5   20 1   
     9    5   21 1   
    10    7   12 3   
    11    7   22 1   
    12    8    9 3   
    13    8   23 1   
    14    9   24 1   
    15   10   11 3   
    16   10   25 1   
    17   11   26 1   
    18   14   17 3   
    19   15   27 1   
    20   15   28 1   
    21   17   18 1   
    22   19   29 1   
    23   19   30 1   
@<TRIPOS>SUBSTRUCTURE
     1 DX2         1 TEMP              0 ****  ****    0 ROOT
