@<TRIPOS>MOLECULE
DX2
   33    34     1     0     0
SMALL
bcc


@<TRIPOS>ATOM
      1 C4          0.4070   -0.4180   -0.1750 ca        1 DX2      0.492900
      2 C6         -2.3890   -0.1810    2.2290 ca        1 DX2      0.635000
      3 C7         -1.5770   -0.1600    3.4780 ca        1 DX2      0.403900
      4 N1          1.7850   -0.3430    2.2760 nb        1 DX2     -0.511000
      5 N3          1.7390   -0.4680   -0.1810 nb        1 DX2     -0.612000
      6 CAG        -6.4680    1.6140    4.4890 c2        1 DX2     -0.115000
      7 CAE        -7.2960    0.6340    4.1000 ce        1 DX2     -0.214000
      8 CAD        -7.3560    0.0770    2.7810 ce        1 DX2      0.136000
      9 CAF        -6.3210   -0.1800    1.9210 cf        1 DX2     -0.189700
     10 CAH        -4.9750   -0.1080    2.1470 ch        1 DX2      0.213700
     11 CAN        -3.7550   -0.1330    2.2880 cg        1 DX2     -0.490000
     12 N5         -1.7280   -0.2700    1.0410 nb        1 DX2     -0.682000
     13 C4A        -0.3790   -0.3250    1.0560 ca        1 DX2      0.258000
     14 N4         -0.3100   -0.4580   -1.4650 n4        1 DX2     -0.822300
     15 C2          2.3730   -0.4280    1.0620 ca        1 DX2      0.703900
     16 C8A         0.4110   -0.2930    2.2830 ca        1 DX2      0.522000
     17 N8         -0.2540   -0.2130    3.5100 nb        1 DX2     -0.518000
     18 NAB        -2.2940   -0.0880    4.7660 n4        1 DX2     -0.824300
     19 HN2         4.2280    0.3170    0.4920 hn        1 DX2      0.508133
     20 HN2A        4.2420   -0.4480    1.9940 hn        1 DX2      0.508133
     21 HAG        -5.7370    2.0820    3.8130 ha        1 DX2      0.137500
     22 HAE        -6.5330    2.0570    5.4970 ha        1 DX2      0.137500
     23 HAD        -8.0790    0.2600    4.7970 ha        1 DX2      0.197000
     24 HAF        -8.3850   -0.1680    2.4220 ha        1 DX2      0.199000
     25 HAH        -6.5810   -0.5170    0.8870 ha        1 DX2      0.212000
     26 HN4        -0.9410   -1.2780   -1.4730 hn        1 DX2      0.505467
     27 HN4A        0.3410   -0.5260   -2.2680 hn        1 DX2      0.505467
     28 HNAB       -3.1780   -0.6130    4.6790 hn        1 DX2      0.499133
     29 HNAA       -2.5010    0.9000    4.9840 hn        1 DX2      0.499133
     30 N2          3.8620   -0.4850    1.0310 n4        1 DX2     -0.808300
     31 H43        -0.8760    0.4020   -1.5610 hn        1 DX2      0.505467
     32 HAB3       -1.7320   -0.4870    5.5400 hn        1 DX2      0.499133
     33 H23         4.1650   -1.3660    0.5820 hn        1 DX2      0.508133
@<TRIPOS>BOND
     1    1    5 ar  
     2    1   13 ar  
     3    1   14 1   
     4    2    3 ar  
     5    2   11 1   
     6    2   12 ar  
     7    3   17 ar  
     8    3   18 1   
     9    4   15 ar  
    10    4   16 ar  
    11    5   15 ar  
    12    6    7 2   
    13    6   21 1   
    14    6   22 1   
    15    7    8 1   
    16    7   23 1   
    17    8    9 2   
    18    8   24 1   
    19    9   10 1   
    20    9   25 1   
    21   10   11 3   
    22   12   13 ar  
    23   13   16 ar  
    24   14   26 1   
    25   14   27 1   
    26   14   31 1   
    27   15   30 1   
    28   16   17 ar  
    29   18   28 1   
    30   18   29 1   
    31   18   32 1   
    32   19   30 1   
    33   20   30 1   
    34   30   33 1   
@<TRIPOS>SUBSTRUCTURE
     1 DX2         1 TEMP              0 ****  ****    0 ROOT
