@<TRIPOS>MOLECULE
DX2
   30    32     1     0     0
SMALL
bcc


@<TRIPOS>ATOM
      1 C4          0.2350    0.2420    0.0460 ca        1 DX2      0.723900
      2 C6         -2.6790   -0.0180    2.2590 ca        1 DX2      0.296800
      3 C7         -2.0100   -0.2570    3.5570 ca        1 DX2      0.595900
      4 N1          1.4390   -0.2130    2.5800 nb        1 DX2     -0.785000
      5 N3          1.5850    0.1800    0.1380 nb        1 DX2     -0.856000
      6 CAG        -4.8800    1.2410    2.7390 c3        1 DX2     -0.023000
      7 CAE        -6.0760    0.7790    3.5340 c2        1 DX2     -0.158200
      8 CAD        -6.6760   -0.4200    3.3580 ce        1 DX2     -0.152000
      9 CAF        -6.2440   -1.2140    2.1940 ce        1 DX2     -0.157100
     10 CAH        -4.9800   -0.9420    1.8880 c1        1 DX2     -0.005800
     11 CAN        -4.1390    0.0340    2.2140 ce        1 DX2     -0.207100
     12 N5         -1.9770    0.1410    1.1470 nb        1 DX2     -0.566000
     13 C4A        -0.6130    0.0820    1.2340 ca        1 DX2     -0.007000
     14 N4         -0.3340    0.4560   -1.1820 nv        1 DX2     -0.957500
     15 C2          2.1310   -0.0180    1.4090 ca        1 DX2      0.939900
     16 C8A         0.0700   -0.1540    2.4940 ca        1 DX2      0.674000
     17 N8         -0.6680   -0.3410    3.6550 nb        1 DX2     -0.723000
     18 NAB        -2.7860   -0.3320    4.7040 nv        1 DX2     -0.936500
     19 HN2         4.0390   -0.0550    0.6520 hn        1 DX2      0.435800
     20 HN2A        3.9410   -0.3030    2.3290 hn        1 DX2      0.435800
     21 HAG        -4.1800    1.8160    3.4020 hc        1 DX2      0.084700
     22 HAE        -5.2260    1.9310    1.9250 hc        1 DX2      0.084700
     23 HAD        -6.4540    1.5080    4.2660 ha        1 DX2      0.138000
     24 HAF        -7.5270   -0.7660    3.9560 ha        1 DX2      0.142000
     25 HAH        -6.9580   -1.8180    1.6310 ha        1 DX2      0.162000
     26 HN4        -1.3180    0.4740   -1.2720 hn        1 DX2      0.451300
     27 HN4A        0.2310    0.5530   -1.9890 hn        1 DX2      0.451300
     28 HNAB       -3.7340   -0.6000    4.5650 hn        1 DX2      0.426300
     29 HNAA       -2.3520   -0.6630    5.5360 hn        1 DX2      0.426300
     30 N2          3.5200    0.0290    1.4930 nv        1 DX2     -0.936500
@<TRIPOS>BOND
     1    1    5 ar  
     2    1   13 ar  
     3    1   14 1   
     4    2    3 ar  
     5    2   11 1   
     6    2   12 ar  
     7    3   17 ar  
     8    3   18 1   
     9    4   15 ar  
    10    4   16 ar  
    11    5   15 ar  
    12    6    7 1   
    13    6   11 1   
    14    6   21 1   
    15    6   22 1   
    16    7    8 2   
    17    7   23 1   
    18    8    9 1   
    19    8   24 1   
    20    9   10 2   
    21    9   25 1   
    22   10   11 2   
    23   12   13 ar  
    24   13   16 ar  
    25   14   26 1   
    26   14   27 1   
    27   15   30 1   
    28   16   17 ar  
    29   18   28 1   
    30   18   29 1   
    31   19   30 1   
    32   20   30 1   
@<TRIPOS>SUBSTRUCTURE
     1 DX2         1 TEMP              0 ****  ****    0 ROOT
