@<TRIPOS>MOLECULE
DX2
   30    32     1     0     0
SMALL
bcc


@<TRIPOS>ATOM
      1 C4         -0.0510   -0.0370    0.0900 ca        1 DX2      0.722900
      2 C6         -2.6060   -0.2540    2.7200 ca        1 DX2      0.297800
      3 C7         -1.7540   -0.1580    3.9240 ca        1 DX2      0.591900
      4 N1          1.5080    0.1210    2.4610 nb        1 DX2     -0.786000
      5 N3          1.2940    0.0780   -0.0070 nb        1 DX2     -0.856000
      6 CAG        -4.8630    0.6950    3.5390 c3        1 DX2     -0.008000
      7 CAE        -6.1130    0.9460    2.7310 c2        1 DX2     -0.158200
      8 CAD        -6.6720    0.0290    1.9080 ce        1 DX2     -0.139000
      9 CAF        -6.1200   -1.3370    1.9620 ce        1 DX2     -0.160100
     10 CAH        -4.8430   -1.3020    2.3190 c1        1 DX2      0.006200
     11 CAN        -4.0500   -0.3930    2.8750 ce        1 DX2     -0.224100
     12 N5         -2.0690   -0.2280    1.5060 nb        1 DX2     -0.561000
     13 C4A        -0.7140   -0.0960    1.4000 ca        1 DX2     -0.005000
     14 N4         -0.7960   -0.0750   -1.0590 nh        1 DX2     -0.954500
     15 C2          2.0200    0.1310    1.1860 ca        1 DX2      0.941900
     16 C8A         0.1460   -0.0040    2.5680 ca        1 DX2      0.674000
     17 N8         -0.4120   -0.0520    3.8370 nb        1 DX2     -0.723000
     18 NAB        -2.3570   -0.1190    5.1760 nh        1 DX2     -0.932500
     19 HN2         3.7880    0.3770    0.1720 hn        1 DX2      0.436800
     20 HN2A        3.9390    0.3820    1.8640 hn        1 DX2      0.436800
     21 HAG        -4.2330    1.6250    3.5610 hc        1 DX2      0.076700
     22 HAE        -5.1610    0.4560    4.5940 hc        1 DX2      0.076700
     23 HAD        -6.5640    1.9380    2.8770 ha        1 DX2      0.137000
     24 HAF        -7.5610    0.2230    1.2980 ha        1 DX2      0.142000
     25 HAH        -6.7660   -2.2080    1.8380 ha        1 DX2      0.160000
     26 HN4        -1.7750   -0.2120   -1.0050 hn        1 DX2      0.451300
     27 HN4A       -0.3550   -0.0780   -1.9450 hn        1 DX2      0.451300
     28 HNAB       -1.7650   -0.2170    5.9710 hn        1 DX2      0.421800
     29 HNAA       -3.2370   -0.5790    5.2350 hn        1 DX2      0.421800
     30 N2          3.4060    0.1530    1.0590 nh        1 DX2     -0.937500
@<TRIPOS>BOND
     1    1    5 ar  
     2    1   13 ar  
     3    1   14 1   
     4    2    3 ar  
     5    2   11 1   
     6    2   12 ar  
     7    3   17 ar  
     8    3   18 1   
     9    4   15 ar  
    10    4   16 ar  
    11    5   15 ar  
    12    6    7 1   
    13    6   11 1   
    14    6   21 1   
    15    6   22 1   
    16    7    8 2   
    17    7   23 1   
    18    8    9 1   
    19    8   24 1   
    20    9   10 2   
    21    9   25 1   
    22   10   11 2   
    23   12   13 ar  
    24   13   16 ar  
    25   14   26 1   
    26   14   27 1   
    27   15   30 1   
    28   16   17 ar  
    29   18   28 1   
    30   18   29 1   
    31   19   30 1   
    32   20   30 1   
@<TRIPOS>SUBSTRUCTURE
     1 DX2         1 TEMP              0 ****  ****    0 ROOT
