@<TRIPOS>MOLECULE
DX3
   29    30     1     0     0
SMALL
bcc


@<TRIPOS>ATOM
      1 C4          0.0400    0.1160    0.0550 ca        1 DX3      0.731200
      2 C5          1.4830    0.0840    0.0340 ca        1 DX3     -0.291200
      3 C6          2.1440   -0.0460    1.3120 ca        1 DX3      0.780200
      4 N1          1.4290   -0.1750    2.4730 nb        1 DX3     -0.858000
      5 N3         -0.6830    0.0320    1.2110 nb        1 DX3     -0.846000
      6 NAI        -0.6340    0.1680   -1.1580 nh        1 DX3     -0.849900
      7 CAO         0.0560    0.6320   -2.3650 c3        1 DX3      0.165900
      8 CAB        -0.1540    2.1430   -2.5870 c3        1 DX3     -0.108600
      9 CAC        -0.5180   -0.1110   -3.5840 c3        1 DX3     -0.108600
     10 CAJ         1.5720    0.3790   -2.2690 c2        1 DX3      0.367300
     11 CAA         2.3110    0.4170   -3.5690 c3        1 DX3     -0.125400
     12 NAF         2.2050    0.1510   -1.1580 ne        1 DX3     -0.518100
     13 C2          0.0520   -0.1500    2.3710 ca        1 DX3      0.940900
     14 NAD        -0.6720   -0.3750    3.5470 nh        1 DX3     -0.931500
     15 NAE         3.5180    0.0080    1.3990 nh        1 DX3     -0.947500
     16 HNAI       -1.6180    0.3220   -1.1480 hn        1 DX3      0.436800
     17 HAB        -1.2430    2.3780   -2.6620 hc        1 DX3      0.046033
     18 HABA        0.3410    2.4560   -3.5360 hc        1 DX3      0.046033
     19 HABB        0.2850    2.7300   -1.7450 hc        1 DX3      0.046033
     20 HAC        -1.6290   -0.0000   -3.6260 hc        1 DX3      0.046033
     21 HACA       -0.0880    0.3240   -4.5170 hc        1 DX3      0.046033
     22 HACB       -0.2660   -1.1960   -3.5380 hc        1 DX3      0.046033
     23 HAA         2.0050    1.3160   -4.1570 hc        1 DX3      0.050700
     24 HAAA        3.4180    0.4550   -3.4200 hc        1 DX3      0.050700
     25 HAAB        2.0660   -0.5020   -4.1570 hc        1 DX3      0.050700
     26 HNAD       -0.1870   -0.2510    4.4040 hn        1 DX3      0.427800
     27 HNAA       -1.6330   -0.1260    3.5370 hn        1 DX3      0.427800
     28 HNAE        4.0440   -0.0870    0.5640 hn        1 DX3      0.438800
     29 HNAB        3.9590   -0.2280    2.2550 hn        1 DX3      0.438800
@<TRIPOS>BOND
     1    1    2 ar  
     2    1    5 ar  
     3    1    6 1   
     4    2    3 ar  
     5    2   12 1   
     6    3    4 ar  
     7    3   15 1   
     8    4   13 ar  
     9    5   13 ar  
    10    6    7 1   
    11    6   16 1   
    12    7    8 1   
    13    7    9 1   
    14    7   10 1   
    15    8   17 1   
    16    8   18 1   
    17    8   19 1   
    18    9   20 1   
    19    9   21 1   
    20    9   22 1   
    21   10   11 1   
    22   10   12 2   
    23   11   23 1   
    24   11   24 1   
    25   11   25 1   
    26   13   14 1   
    27   14   26 1   
    28   14   27 1   
    29   15   28 1   
    30   15   29 1   
@<TRIPOS>SUBSTRUCTURE
     1 DX3         1 TEMP              0 ****  ****    0 ROOT
