@<TRIPOS>MOLECULE
DX3
   29    30     1     0     0
SMALL
bcc


@<TRIPOS>ATOM
      1 C4          0.0380    0.1130    0.0530 ca        1 DX3      0.731200
      2 C5          1.4810    0.0810    0.0340 ca        1 DX3     -0.291200
      3 C6          2.1400   -0.0550    1.3130 ca        1 DX3      0.780200
      4 N1          1.4230   -0.1860    2.4730 nb        1 DX3     -0.858000
      5 N3         -0.6870    0.0270    1.2080 nb        1 DX3     -0.846000
      6 NAI        -0.6340    0.1700   -1.1610 nu        1 DX3     -0.849900
      7 CAO         0.0590    0.6370   -2.3650 c3        1 DX3      0.165900
      8 CAB        -0.1500    2.1480   -2.5830 c3        1 DX3     -0.108600
      9 CAC        -0.5140   -0.1020   -3.5870 c3        1 DX3     -0.108600
     10 CAJ         1.5750    0.3830   -2.2680 c2        1 DX3      0.367300
     11 CAA         2.3160    0.4240   -3.5660 c3        1 DX3     -0.125400
     12 NAF         2.2050    0.1500   -1.1560 ne        1 DX3     -0.517100
     13 C2          0.0450   -0.1600    2.3690 ca        1 DX3      0.940900
     14 NAD        -0.6800   -0.3880    3.5420 nv        1 DX3     -0.931500
     15 NAE         3.5140   -0.0020    1.4030 nv        1 DX3     -0.947500
     16 HNAI       -1.6170    0.3250   -1.1520 hn        1 DX3      0.436800
     17 HAB        -1.2380    2.3850   -2.6600 hc        1 DX3      0.046033
     18 HABA        0.3470    2.4640   -3.5300 hc        1 DX3      0.046033
     19 HABB        0.2880    2.7320   -1.7390 hc        1 DX3      0.046033
     20 HAC        -0.0820    0.3350   -4.5190 hc        1 DX3      0.046033
     21 HACA       -1.6240    0.0090   -3.6320 hc        1 DX3      0.046033
     22 HACB       -0.2620   -1.1880   -3.5440 hc        1 DX3      0.046033
     23 HAA         3.4230    0.4610   -3.4150 hc        1 DX3      0.050700
     24 HAAA        2.0710   -0.4940   -4.1570 hc        1 DX3      0.050700
     25 HAAB        2.0110    1.3250   -4.1520 hc        1 DX3      0.050700
     26 HNAD       -0.1970   -0.2670    4.4010 hn        1 DX3      0.427800
     27 HNAA       -1.6410   -0.1380    3.5320 hn        1 DX3      0.427800
     28 HNAE        3.9530   -0.2410    2.2590 hn        1 DX3      0.438800
     29 HNAB        4.0410   -0.0950    0.5690 hn        1 DX3      0.438800
@<TRIPOS>BOND
     1    1    2 ar  
     2    1    5 ar  
     3    1    6 1   
     4    2    3 ar  
     5    2   12 1   
     6    3    4 ar  
     7    3   15 1   
     8    4   13 ar  
     9    5   13 ar  
    10    6    7 1   
    11    6   16 1   
    12    7    8 1   
    13    7    9 1   
    14    7   10 1   
    15    8   17 1   
    16    8   18 1   
    17    8   19 1   
    18    9   20 1   
    19    9   21 1   
    20    9   22 1   
    21   10   11 1   
    22   10   12 2   
    23   11   23 1   
    24   11   24 1   
    25   11   25 1   
    26   13   14 1   
    27   14   26 1   
    28   14   27 1   
    29   15   28 1   
    30   15   29 1   
@<TRIPOS>SUBSTRUCTURE
     1 DX3         1 TEMP              0 ****  ****    0 ROOT
