@<TRIPOS>MOLECULE
DX3
   29    30     1     0     0
SMALL
bcc


@<TRIPOS>ATOM
      1 C4          0.3900    0.7510    0.0910 ca        1 DX3      0.727200
      2 C5          0.3700   -0.6920    0.0720 ca        1 DX3     -0.291200
      3 C6          1.6540   -1.3550    0.0620 ca        1 DX3      0.785200
      4 N1          2.8240   -0.6410    0.0850 nb        1 DX3     -0.860000
      5 N3          1.5490    1.4730    0.0740 nb        1 DX3     -0.845000
      6 NAI        -0.8210    1.4230    0.2110 nh        1 DX3     -0.846900
      7 CAO        -2.0700    0.7500   -0.1610 c3        1 DX3      0.162900
      8 CAB        -2.4430    1.0280   -1.6310 c3        1 DX3     -0.108600
      9 CAC        -3.2070    1.2860    0.7260 c3        1 DX3     -0.108600
     10 CAJ        -1.9510   -0.7750    0.0110 c2        1 DX3      0.368300
     11 CAA        -3.2490   -1.5160    0.0700 c3        1 DX3     -0.125400
     12 NAF        -0.8230   -1.4140    0.0970 ne        1 DX3     -0.518100
     13 C2          2.7210    0.7360    0.0570 ca        1 DX3      0.940900
     14 NAD         3.9160    1.4560   -0.0510 nh        1 DX3     -0.931500
     15 NAE         1.7340   -2.7270   -0.0010 nh        1 DX3     -0.952500
     16 HNAI       -0.8240    2.4110    0.0760 hn        1 DX3      0.434800
     17 HAB        -1.6650    0.6200   -2.3190 hc        1 DX3      0.046200
     18 HABA       -3.4190    0.5430   -1.8690 hc        1 DX3      0.046200
     19 HABB       -2.5420    2.1260   -1.8070 hc        1 DX3      0.046200
     20 HAC        -3.2580    2.4000    0.6720 hc        1 DX3      0.046200
     21 HACA       -4.1800    0.8730    0.3690 hc        1 DX3      0.046200
     22 HACB       -3.0520    0.9840    1.7890 hc        1 DX3      0.046200
     23 HAA        -3.9240   -1.1710   -0.7510 hc        1 DX3      0.050700
     24 HAAA       -3.1060   -2.6200   -0.0330 hc        1 DX3      0.050700
     25 HAAB       -3.7420   -1.3150    1.0540 hc        1 DX3      0.050700
     26 HNAD        4.7530    0.9710    0.1720 hn        1 DX3      0.427800
     27 HNAA        3.8820    2.4190    0.1870 hn        1 DX3      0.427800
     28 HNAE        0.9110   -3.2590    0.1360 hn        1 DX3      0.442800
     29 HNAB        2.6120   -3.1740    0.0990 hn        1 DX3      0.442800
@<TRIPOS>BOND
     1    1    2 ar  
     2    1    5 ar  
     3    1    6 1   
     4    2    3 ar  
     5    2   12 1   
     6    3    4 ar  
     7    3   15 1   
     8    4   13 ar  
     9    5   13 ar  
    10    6    7 1   
    11    6   16 1   
    12    7    8 1   
    13    7    9 1   
    14    7   10 1   
    15    8   17 1   
    16    8   18 1   
    17    8   19 1   
    18    9   20 1   
    19    9   21 1   
    20    9   22 1   
    21   10   11 1   
    22   10   12 2   
    23   11   23 1   
    24   11   24 1   
    25   11   25 1   
    26   13   14 1   
    27   14   26 1   
    28   14   27 1   
    29   15   28 1   
    30   15   29 1   
@<TRIPOS>SUBSTRUCTURE
     1 DX3         1 TEMP              0 ****  ****    0 ROOT
