@<TRIPOS>MOLECULE
DX3
   31    32     1     0     0
SMALL
bcc


@<TRIPOS>ATOM
      1 C4          0.0030    0.2340    0.0770 ca        1 DX3      0.729200
      2 C5          1.4800    0.1540    0.0600 ca        1 DX3     -0.030200
      3 C6          2.1040   -0.0600    1.3030 ca        1 DX3      0.518200
      4 N1          1.4180   -0.2020    2.4860 nb        1 DX3     -0.722000
      5 N3         -0.6940    0.0850    1.2550 nb        1 DX3     -0.738000
      6 NAI        -0.6410    0.4340   -1.0960 nh        1 DX3     -0.800900
      7 CAO         0.0640    0.7090   -2.3670 c3        1 DX3      0.135900
      8 CAB        -0.1650    2.1760   -2.7760 c3        1 DX3     -0.121100
      9 CAC        -0.5020   -0.2060   -3.4660 c3        1 DX3     -0.121100
     10 CAJ         1.5830    0.4740   -2.2480 c2        1 DX3      0.560300
     11 CAA         2.3470    0.5100   -3.5300 c3        1 DX3     -0.175400
     12 NAF         2.2100    0.2490   -1.1210 ne        1 DX3     -0.646100
     13 C2          0.0660   -0.1240    2.3740 ca        1 DX3      0.790900
     14 NAD        -0.7100   -0.2820    3.6440 n4        1 DX3     -0.818300
     15 NAE         3.5760   -0.1490    1.3640 n4        1 DX3     -0.806300
     16 HNAI       -1.6430    0.4750   -1.1330 hn        1 DX3      0.496800
     17 HAB         0.2310    2.3420   -3.8080 hc        1 DX3      0.080367
     18 HABA       -1.2580    2.4120   -2.7910 hc        1 DX3      0.080367
     19 HABB        0.3470    2.8770   -2.0750 hc        1 DX3      0.080367
     20 HAC        -0.2680   -1.2790   -3.2630 hc        1 DX3      0.080367
     21 HACA       -1.6110   -0.0860   -3.5470 hc        1 DX3      0.080367
     22 HACB       -0.0550    0.0830   -4.4500 hc        1 DX3      0.080367
     23 HAA         3.4520    0.5900   -3.3700 hc        1 DX3      0.102700
     24 HAAA        2.0170    1.3770   -4.1570 hc        1 DX3      0.102700
     25 HAAB        2.1430   -0.4400   -4.0950 hc        1 DX3      0.102700
     26 HNAD       -1.2750    0.5670    3.8020 hn        1 DX3      0.496467
     27 HNAA       -1.3390   -1.0950    3.5540 hn        1 DX3      0.496467
     28 HNAE        3.9750    0.7320    1.0060 hn        1 DX3      0.491133
     29 HNAB        3.8860   -0.9250    0.7590 hn        1 DX3      0.491133
     30 HAD3       -0.0750   -0.4250    4.4430 hn        1 DX3      0.496467
     31 HAE3        3.9070   -0.3100    2.3260 hn        1 DX3      0.491133
@<TRIPOS>BOND
     1    1    2 ar  
     2    1    5 ar  
     3    1    6 1   
     4    2    3 ar  
     5    2   12 1   
     6    3    4 ar  
     7    3   15 1   
     8    4   13 ar  
     9    5   13 ar  
    10    6    7 1   
    11    6   16 1   
    12    7    8 1   
    13    7    9 1   
    14    7   10 1   
    15    8   17 1   
    16    8   18 1   
    17    8   19 1   
    18    9   20 1   
    19    9   21 1   
    20    9   22 1   
    21   10   11 1   
    22   10   12 2   
    23   11   23 1   
    24   11   24 1   
    25   11   25 1   
    26   13   14 1   
    27   14   26 1   
    28   14   27 1   
    29   14   30 1   
    30   15   28 1   
    31   15   29 1   
    32   15   31 1   
@<TRIPOS>SUBSTRUCTURE
     1 DX3         1 TEMP              0 ****  ****    0 ROOT
