@<TRIPOS>MOLECULE
DX3
   29    27     1     0     0
SMALL
bcc


@<TRIPOS>ATOM
      1 C4         -0.6380    0.3030    0.9590 c1        1 DX3      0.587600
      2 C5          0.7180    0.3030    0.9590 cg        1 DX3     -0.248000
      3 C6          1.4090    0.3030    2.1600 c1        1 DX3      0.319800
      4 N1          0.7340    0.3030    3.3230 n1        1 DX3     -0.659800
      5 N3         -1.3180    0.3030    2.1400 n1        1 DX3     -0.644800
      6 NAI        -1.3630    0.3030   -0.2990 n3        1 DX3     -0.709800
      7 CAO        -0.7700   -0.2690   -1.4660 c3        1 DX3      0.162900
      8 CAB        -1.4250   -1.5940   -1.7830 c3        1 DX3     -0.108600
      9 CAC        -1.1500    0.5310   -2.6920 c3        1 DX3     -0.108600
     10 CAJ         0.7260    0.3030   -1.5020 c2        1 DX3      0.368300
     11 CAA         1.6970   -0.1920   -2.5490 c3        1 DX3     -0.125400
     12 NAF         1.4330    0.3030   -0.2820 ne        1 DX3     -0.430700
     13 C2         -0.6350    0.3030    3.3220 c1        1 DX3      0.603600
     14 NAD        -1.3450    0.3040    4.5520 n3        1 DX3     -0.794400
     15 NAE         2.8270    0.3710    2.1620 n3        1 DX3     -0.815400
     16 HNAI       -1.6480    1.1490   -0.4850 hn        1 DX3      0.434800
     17 HAB        -2.3830   -1.4600   -1.9140 hc        1 DX3      0.046200
     18 HABA       -1.0340   -1.9640   -2.5970 hc        1 DX3      0.046200
     19 HABB       -1.2810   -2.2130   -1.0420 hc        1 DX3      0.046200
     20 HAC        -0.7030    1.3980   -2.6660 hc        1 DX3      0.046200
     21 HACA       -2.1170    0.6640   -2.7060 hc        1 DX3      0.046200
     22 HACB       -0.8760    0.0470   -3.4940 hc        1 DX3      0.046200
     23 HAA         1.6400   -1.1640   -2.6120 hc        1 DX3      0.050700
     24 HAAA        2.6050    0.0650   -2.2970 hc        1 DX3      0.050700
     25 HAAB        1.4750    0.2040   -3.4130 hc        1 DX3      0.050700
     26 HNAD       -2.2550    0.3690    4.5530 hn        1 DX3      0.427800
     27 HNAA       -0.8920    0.2330    5.3400 hn        1 DX3      0.427800
     28 HNAE        3.2820    0.4510    1.3750 hn        1 DX3      0.442800
     29 HNAB        3.2840    0.3480    2.9520 hn        1 DX3      0.442800
@<TRIPOS>BOND
     1    1    5 3   
     2    1    6 1   
     3    2    3 3   
     4    2   12 1   
     5    3   15 1   
     6    4   13 3   
     7    6    7 1   
     8    6   16 1   
     9    7    8 1   
    10    7    9 1   
    11    7   10 1   
    12    8   17 1   
    13    8   18 1   
    14    8   19 1   
    15    9   20 1   
    16    9   21 1   
    17    9   22 1   
    18   10   11 1   
    19   10   12 2   
    20   11   23 1   
    21   11   24 1   
    22   11   25 1   
    23   13   14 1   
    24   14   26 1   
    25   14   27 1   
    26   15   28 1   
    27   15   29 1   
@<TRIPOS>SUBSTRUCTURE
     1 DX3         1 TEMP              0 ****  ****    0 ROOT
