@<TRIPOS>MOLECULE
DX4
   17    18     1     0     0
SMALL
bcc


@<TRIPOS>ATOM
      1 C4          0.1070   -0.0430   -0.0240 cc        1 DX4     -0.025400
      2 C5          1.5370   -0.0430   -0.0730 cd        1 DX4      0.577500
      3 C6          2.3110    0.0730    1.1690 c         1 DX4      0.319600
      4 C8          0.9900   -0.2420   -2.2090 c1        1 DX4      0.467600
      5 N1          1.4840    0.1770    2.3220 n         1 DX4     -0.451400
      6 N3         -0.6450    0.0600    1.1190 nc        1 DX4     -0.495300
      7 C2          0.0820    0.1660    2.2360 cd        1 DX4      0.433800
      8 N9         -0.3730   -0.1710   -1.4070 n4        1 DX4     -0.612400
      9 N7          2.0150   -0.1620   -1.3690 n1        1 DX4     -1.047500
     10 S6          3.8450    0.0900    1.3050 s         1 DX4     -0.096400
     11 H8         -0.9150    0.6380   -1.7050 hn        1 DX4      0.460800
     12 HN2        -1.7020    0.2580    3.3100 hn        1 DX4      0.479133
     13 HN2A       -0.4530   -0.5060    4.1270 hn        1 DX4      0.479133
     14 HN9        -0.9100   -1.0250   -1.5510 hn        1 DX4      0.460800
     15 H5          1.9560    0.2600    3.2020 hn        1 DX4      0.352500
     16 N2         -0.6900    0.2810    3.5110 n4        1 DX4     -0.783600
     17 H23        -0.4590    1.1690    3.9710 hn        1 DX4      0.479133
@<TRIPOS>BOND
     1    1    2 2   
     2    1    6 1   
     3    1    8 1   
     4    2    3 1   
     5    2    9 1   
     6    3    5 1   
     7    3   10 2   
     8    4    8 1   
     9    4    9 3   
    10    5    7 1   
    11    5   15 1   
    12    6    7 2   
    13    7   16 1   
    14    8   11 1   
    15    8   14 1   
    16   12   16 1   
    17   13   16 1   
    18   16   17 1   
@<TRIPOS>SUBSTRUCTURE
     1 DX4         1 TEMP              0 ****  ****    0 ROOT
