@<TRIPOS>MOLECULE
DX4
   16    13     1     0     0
SMALL
bcc


@<TRIPOS>ATOM
      1 C4         -0.5370    0.0040   -0.9320 cg        1 DX4     -0.022000
      2 C5          0.8250    0.0040   -0.9320 ch        1 DX4     -0.022000
      3 C6          1.5770    0.0040    0.3740 c1        1 DX4      0.429900
      4 C8          0.1430    0.0040   -3.0170 c1        1 DX4      0.353800
      5 N1          0.8750    0.0040    1.5840 nh        1 DX4     -0.312600
      6 N2         -1.2590    0.0090    2.8080 nh        1 DX4     -0.402300
      7 N3         -1.2670    0.0040    0.3300 n1        1 DX4     -0.236000
      8 C2         -0.5470    0.0040    1.5810 c2        1 DX4      0.168800
      9 N9         -0.9550    0.0040   -2.2200 ne        1 DX4     -0.402400
     10 N7          1.2420    0.0040   -2.2200 nf        1 DX4     -0.402400
     11 S6          3.2500   -0.0650    0.3760 s         1 DX4     -0.473900
     12 H8          0.1430    0.0040   -3.9940 DU        1 DX4      0.237000
     13 HN2        -1.5000   -0.7800    3.1980 hn        1 DX4      0.268700
     14 HN2A       -1.4980    0.8000    3.1940 hn        1 DX4      0.268700
     15 HN9        -1.8220    0.0040   -2.5030 DU        1 DX4      0.237000
     16 H5          1.3290   -0.0130    2.3740 hn        1 DX4      0.309700
@<TRIPOS>BOND
     1    1    2 3   
     2    1    9 1   
     3    2   10 1   
     4    3    5 2   
     5    3   11 2   
     6    4    9 2   
     7    4   10 2   
     8    5    8 1   
     9    5   16 1   
    10    6    8 1   
    11    6   13 1   
    12    6   14 1   
    13    7    8 2   
@<TRIPOS>SUBSTRUCTURE
     1 DX4         1 TEMP              0 ****  ****    0 ROOT
