@<TRIPOS>MOLECULE
DX4
   17    16     1     0     0
SMALL
bcc


@<TRIPOS>ATOM
      1 C4          1.1200    1.5480    1.6820 ce        1 DX4      0.628500
      2 C5          0.8740    1.2230    0.2800 ce        1 DX4     -0.190100
      3 C6          1.1520    2.1650   -0.6590 c1        1 DX4      0.029000
      4 C8          0.3510   -0.5910   -1.1330 c1        1 DX4      0.561800
      5 N1          1.3130   -1.5870    3.0550 n2        1 DX4     -0.761100
      6 N3          1.0000    0.8390    2.7560 nf        1 DX4     -0.744000
      7 C2          0.6300   -0.5290    2.7920 cf        1 DX4      0.777200
      8 N9          0.0710   -1.1310   -2.2060 n2        1 DX4     -0.662800
      9 N7          0.3350   -0.0470    0.0130 ne        1 DX4     -0.587000
     10 S6          1.4330    3.1330   -1.6230 s         1 DX4      0.346100
     11 H8          0.6300   -1.8300   -2.6430 hn        1 DX4      0.498400
     12 HN2        -1.2310   -0.3180    1.8200 hn        1 DX4      0.467467
     13 HN2A       -1.0630   -1.7900    2.5930 hn        1 DX4      0.467467
     14 HN9         1.4810    2.5870    1.8760 h4        1 DX4      0.054800
     15 H5          2.2990   -1.4980    3.1850 hn        1 DX4      0.478400
     16 N2         -0.8750   -0.7840    2.6590 n4        1 DX4     -0.831600
     17 H23        -1.3410   -0.4070    3.4890 hn        1 DX4      0.467467
@<TRIPOS>BOND
     1    1    2 1   
     2    1    6 2   
     3    1   14 1   
     4    2    3 2   
     5    2    9 1   
     6    3   10 2   
     7    4    8 2   
     8    4    9 2   
     9    5    7 2   
    10    5   15 1   
    11    6    7 1   
    12    7   16 1   
    13    8   11 1   
    14   12   16 1   
    15   13   16 1   
    16   16   17 1   
@<TRIPOS>SUBSTRUCTURE
     1 DX4         1 TEMP              0 ****  ****    0 ROOT
