@<TRIPOS>MOLECULE
DX4
   16    17     1     0     0
SMALL
bcc


@<TRIPOS>ATOM
      1 C4         -0.6070    1.2200    0.0030 cc        1 DX4      0.109800
      2 C5         -0.8120   -0.2150    0.0040 cd        1 DX4      0.209800
      3 C6          0.3220   -1.0970   -0.0080 c         1 DX4      0.347900
      4 C8         -2.7880    0.7040    0.0170 cc        1 DX4      0.401400
      5 N1          1.5570   -0.4150   -0.0130 n         1 DX4     -0.450400
      6 N3          0.6230    1.8470    0.0030 nc        1 DX4     -0.663100
      7 C2          1.6760    0.9910   -0.0350 cd        1 DX4      0.669800
      8 N9         -1.8790    1.7880    0.0120 na        1 DX4     -0.318900
      9 N7         -2.1830   -0.4960    0.0130 nd        1 DX4     -0.581000
     10 S6          0.3120   -2.6740   -0.0090 s         1 DX4     -0.414400
     11 H8         -3.8710    0.8700    0.0250 h5        1 DX4      0.069100
     12 HN2         3.7000    1.0290    0.2980 hn        1 DX4      0.423800
     13 HN2A        3.0290    2.5210   -0.0640 hn        1 DX4      0.423800
     14 HN9        -2.0910    2.7500    0.0110 hn        1 DX4      0.317700
     15 H5          2.3740   -0.9910   -0.0800 hn        1 DX4      0.346500
     16 N2          2.9740    1.5300   -0.1640 nh        1 DX4     -0.891800
@<TRIPOS>BOND
     1    1    2 2   
     2    1    6 1   
     3    1    8 1   
     4    2    3 1   
     5    2    9 1   
     6    3    5 1   
     7    3   10 2   
     8    4    8 1   
     9    4    9 2   
    10    4   11 1   
    11    5    7 1   
    12    5   15 1   
    13    6    7 2   
    14    7   16 1   
    15    8   14 1   
    16   12   16 1   
    17   13   16 1   
@<TRIPOS>SUBSTRUCTURE
     1 DX4         1 TEMP              0 ****  ****    0 ROOT
