@<TRIPOS>MOLECULE
DX5
   25    24     1     0     0
SMALL
bcc


@<TRIPOS>ATOM
      1 C1          4.1070    1.1130   -0.0610 c3        1 DX5      0.113400
      2 C2          3.0970    0.0410    0.3620 c3        1 DX5      0.110100
      3 C3          1.6590    0.5740    0.2140 c3        1 DX5      0.110100
      4 C4          0.6410   -0.4330    0.7930 c3        1 DX5      0.096100
      5 C5         -0.7210    0.2710    1.0460 c3        1 DX5      0.202400
      6 O1          5.4340    0.6110   -0.0940 oh        1 DX5     -0.643800
      7 O2          3.3400   -1.1110   -0.4290 oh        1 DX5     -0.650800
      8 O3          1.4580    0.8260   -1.1590 oh        1 DX5     -0.671800
      9 O4          0.5540   -1.5340   -0.0800 oh        1 DX5     -0.668800
     10 O5         -1.7820   -0.4930    0.6400 os        1 DX5     -0.562200
     11 P          -2.5040    0.0760   -0.8420 p5        1 DX5      1.326900
     12 O1P        -1.2410   -0.1010   -1.6710 o         1 DX5     -0.920500
     13 O2P        -3.6230   -0.8810   -1.1040 o         1 DX5     -0.920500
     14 O3P        -2.8480    1.4990   -0.5200 o         1 DX5     -0.920500
     15 H11         4.1260    1.9510    0.6830 h1        1 DX5      0.043200
     16 H12         3.8320    1.5070   -1.0750 h1        1 DX5      0.043200
     17 H2          3.2900   -0.2610    1.4290 h1        1 DX5      0.029700
     18 H3          1.5860    1.5500    0.7700 h1        1 DX5      0.016700
     19 H4          1.0510   -0.8420    1.7590 h1        1 DX5      0.008700
     20 H51        -0.7880    0.4520    2.1600 h1        1 DX5     -0.004800
     21 H52        -0.7260    1.2700    0.5200 h1        1 DX5     -0.004800
     22 HO1         5.3850   -0.2610   -0.5080 ho        1 DX5      0.413000
     23 HO2         2.5230   -1.2980   -0.9220 ho        1 DX5      0.458000
     24 HO3         0.5430    0.5410   -1.4070 ho        1 DX5      0.508000
     25 HO4        -0.2390   -1.3830   -0.6560 ho        1 DX5      0.489000
@<TRIPOS>BOND
     1    1    2 1   
     2    1    6 1   
     3    1   15 1   
     4    1   16 1   
     5    2    3 1   
     6    2    7 1   
     7    2   17 1   
     8    3    4 1   
     9    3    8 1   
    10    3   18 1   
    11    4    5 1   
    12    4    9 1   
    13    4   19 1   
    14    5   10 1   
    15    5   20 1   
    16    5   21 1   
    17    6   22 1   
    18    7   23 1   
    19    8   24 1   
    20    9   25 1   
    21   10   11 1   
    22   11   12 1   
    23   11   13 1   
    24   11   14 1   
@<TRIPOS>SUBSTRUCTURE
     1 DX5         1 TEMP              0 ****  ****    0 ROOT
