@<TRIPOS>MOLECULE
DX5
   25    24     1     0     0
SMALL
bcc


@<TRIPOS>ATOM
      1 C1          0.1220    0.8000    0.5200 c3        1 DX5      0.106400
      2 C2          1.5880    0.4710    0.2210 c3        1 DX5      0.102100
      3 C3          2.1070   -0.6520    1.1350 c3        1 DX5      0.079100
      4 C4          3.6500   -0.6320    1.2390 c3        1 DX5      0.104100
      5 C5          4.0880    0.3900    2.3180 c3        1 DX5      0.206400
      6 O1         -0.7650   -0.2510    0.1830 oh        1 DX5     -0.635800
      7 O2          1.7300    0.1590   -1.1550 oh        1 DX5     -0.612800
      8 O3          1.6220   -1.8780    0.5920 oh        1 DX5     -0.678800
      9 O4          4.0780   -1.9450    1.4920 oh        1 DX5     -0.698800
     10 O5          5.3820    0.1870    2.7070 os        1 DX5     -0.557200
     11 P           5.5340   -0.3850    4.3490 p5        1 DX5      1.319900
     12 O1P         4.9230   -1.7550    4.1270 o         1 DX5     -0.918167
     13 O2P         7.0060   -0.3300    4.6140 o         1 DX5     -0.918167
     14 O3P         4.6530    0.5770    5.0940 o         1 DX5     -0.918167
     15 H11         0.0060    1.0530    1.6080 h1        1 DX5      0.034200
     16 H12        -0.2160    1.6670   -0.1080 h1        1 DX5      0.034200
     17 H2          2.2180    1.3910    0.3790 h1        1 DX5      0.087700
     18 H3          1.6570   -0.5390    2.1610 h1        1 DX5      0.055700
     19 H4          4.0680   -0.3460    0.2330 h1        1 DX5      0.020700
     20 H51         3.9780    1.4140    1.8470 h1        1 DX5     -0.006300
     21 H52         3.3890    0.3240    3.2020 h1        1 DX5     -0.006300
     22 HO1        -0.3610   -1.0750    0.4900 ho        1 DX5      0.425000
     23 HO2         1.4660   -0.7660   -1.2580 ho        1 DX5      0.412000
     24 HO3         2.2770   -2.5610    0.8040 ho        1 DX5      0.448000
     25 HO4         4.4790   -1.9670    2.4140 ho        1 DX5      0.515000
@<TRIPOS>BOND
     1    1    2 1   
     2    1    6 1   
     3    1   15 1   
     4    1   16 1   
     5    2    3 1   
     6    2    7 1   
     7    2   17 1   
     8    3    4 1   
     9    3    8 1   
    10    3   18 1   
    11    4    5 1   
    12    4    9 1   
    13    4   19 1   
    14    5   10 1   
    15    5   20 1   
    16    5   21 1   
    17    6   22 1   
    18    7   23 1   
    19    8   24 1   
    20    9   25 1   
    21   10   11 1   
    22   11   12 1   
    23   11   13 1   
    24   11   14 1   
@<TRIPOS>SUBSTRUCTURE
     1 DX5         1 TEMP              0 ****  ****    0 ROOT
