@<TRIPOS>MOLECULE
DX5
   25    24     1     0     0
SMALL
bcc


@<TRIPOS>ATOM
      1 C1         -0.1110   -0.0620    0.2990 c3        1 DX5      0.113400
      2 C2          1.4050    0.0600    0.1110 c3        1 DX5      0.110100
      3 C3          2.1150    0.0590    1.4790 c3        1 DX5      0.110100
      4 C4          3.6220    0.3500    1.3120 c3        1 DX5      0.096100
      5 C5          4.2360    0.7820    2.6710 c3        1 DX5      0.202400
      6 O1         -0.7880   -0.2290   -0.9370 oh        1 DX5     -0.643800
      7 O2          1.8200   -1.0110   -0.7230 oh        1 DX5     -0.650800
      8 O3          1.8610   -1.1960    2.0680 oh        1 DX5     -0.671800
      9 O4          4.2370   -0.7860    0.7500 oh        1 DX5     -0.668800
     10 O5          5.4470    0.1860    2.9060 os        1 DX5     -0.562200
     11 P           5.3620   -1.0890    4.0920 p5        1 DX5      1.326900
     12 O1P         4.3830   -1.9360    3.2920 o         1 DX5     -0.920500
     13 O2P         6.7640   -1.5970    4.1970 o         1 DX5     -0.920500
     14 O3P         4.7670   -0.3980    5.2820 o         1 DX5     -0.920500
     15 H11        -0.3360   -0.9350    0.9680 h1        1 DX5      0.043200
     16 H12        -0.5290    0.8780    0.7410 h1        1 DX5      0.043200
     17 H2          1.6420    1.0080   -0.4480 h1        1 DX5      0.029700
     18 H3          1.6430    0.8570    2.1200 h1        1 DX5      0.016700
     19 H4          3.7480    1.1710    0.5520 h1        1 DX5      0.008700
     20 H51         4.3680    1.9040    2.6240 h1        1 DX5     -0.004800
     21 H52         3.5090    0.5420    3.5010 h1        1 DX5     -0.004800
     22 HO1        -0.2680   -0.8610   -1.4500 ho        1 DX5      0.413000
     23 HO2         2.4640   -1.5350   -0.2160 ho        1 DX5      0.458000
     24 HO3         2.6840   -1.5100    2.5200 ho        1 DX5      0.508000
     25 HO4         4.6320   -1.3000    1.5010 ho        1 DX5      0.489000
@<TRIPOS>BOND
     1    1    2 1   
     2    1    6 1   
     3    1   15 1   
     4    1   16 1   
     5    2    3 1   
     6    2    7 1   
     7    2   17 1   
     8    3    4 1   
     9    3    8 1   
    10    3   18 1   
    11    4    5 1   
    12    4    9 1   
    13    4   19 1   
    14    5   10 1   
    15    5   20 1   
    16    5   21 1   
    17    6   22 1   
    18    7   23 1   
    19    8   24 1   
    20    9   25 1   
    21   10   11 1   
    22   11   12 1   
    23   11   13 1   
    24   11   14 1   
@<TRIPOS>SUBSTRUCTURE
     1 DX5         1 TEMP              0 ****  ****    0 ROOT
