@<TRIPOS>MOLECULE
DX6
   34    36     1     0     0
SMALL
bcc


@<TRIPOS>ATOM
      1 CAF         0.0800    0.1720    0.2250 ca        1 DX6     -0.124500
      2 CAD         1.4710    0.1330    0.1650 ca        1 DX6     -0.123000
      3 CAC         2.2160   -0.0950    1.3230 ca        1 DX6     -0.120000
      4 CAE         1.5640   -0.2820    2.5420 ca        1 DX6     -0.123000
      5 CAG         0.1710   -0.2450    2.6040 ca        1 DX6     -0.124500
      6 CAN        -0.5790   -0.0180    1.4460 ca        1 DX6     -0.098300
      7 CAI        -2.0650    0.0390    1.5080 c3        1 DX6     -0.024100
      8 CAJ        -2.6880   -1.1860    0.8550 c3        1 DX6     -0.036100
      9 CAP        -4.1570   -1.1730    0.9350 cc        1 DX6     -0.047300
     10 CAH        -4.9380   -1.1060    2.1160 cd        1 DX6     -0.094300
     11 NAL        -6.2880   -1.1370    1.8040 na        1 DX6     -0.112100
     12 CAR        -6.4090   -1.2240    0.4160 cd        1 DX6      0.081100
     13 NAK        -7.5720   -1.2830   -0.3380 nd        1 DX6     -0.528100
     14 CAS        -5.0790   -1.2480   -0.1450 cc        1 DX6     -0.181600
     15 CAQ        -4.9120   -1.3340   -1.5800 c         1 DX6      0.754100
     16 OAB        -3.8710   -1.3630   -2.2410 o         1 DX6     -0.543500
     17 NAM        -6.1400   -1.3930   -2.3210 n         1 DX6     -0.503400
     18 CAO        -7.3670   -1.3630   -1.6510 cc        1 DX6      0.487800
     19 NAA        -8.6080   -1.4280   -2.4920 n4        1 DX6     -0.793600
     20 HAF        -0.5050    0.3550   -0.6890 ha        1 DX6      0.129000
     21 HAD         1.9830    0.2840   -0.7970 ha        1 DX6      0.138500
     22 HAC         3.3140   -0.1230    1.2750 ha        1 DX6      0.140000
     23 HAE         2.1480   -0.4590    3.4570 ha        1 DX6      0.138500
     24 HAG        -0.3360   -0.3900    3.5700 ha        1 DX6      0.129000
     25 HAI        -2.4060    0.1060    2.5760 hc        1 DX6      0.048200
     26 HAIA       -2.4240    0.9650    0.9840 hc        1 DX6      0.048200
     27 HAJ        -2.3000   -2.1150    1.3570 hc        1 DX6      0.080200
     28 HAJA       -2.3720   -1.2340   -0.2250 hc        1 DX6      0.080200
     29 HAH        -4.6010   -1.0380    3.1550 h4        1 DX6      0.205000
     30 HNAL       -7.0430   -1.1030    2.4450 hn        1 DX6      0.331700
     31 HNAM       -6.0800   -1.4550   -3.3140 hn        1 DX6      0.346500
     32 HNAA       -8.6130   -2.3050   -3.0260 hn        1 DX6      0.479467
     33 HNAB       -8.6290   -0.6270   -3.1330 hn        1 DX6      0.479467
     34 HAA3       -9.4410   -1.3980   -1.8850 hn        1 DX6      0.479467
@<TRIPOS>BOND
     1    1    2 ar  
     2    1    6 ar  
     3    1   20 1   
     4    2    3 ar  
     5    2   21 1   
     6    3    4 ar  
     7    3   22 1   
     8    4    5 ar  
     9    4   23 1   
    10    5    6 ar  
    11    5   24 1   
    12    6    7 1   
    13    7    8 1   
    14    7   25 1   
    15    7   26 1   
    16    8    9 1   
    17    8   27 1   
    18    8   28 1   
    19    9   10 2   
    20    9   14 1   
    21   10   11 1   
    22   10   29 1   
    23   11   12 1   
    24   11   30 1   
    25   12   13 1   
    26   12   14 2   
    27   13   18 2   
    28   14   15 1   
    29   15   16 2   
    30   15   17 1   
    31   17   18 1   
    32   17   31 1   
    33   18   19 1   
    34   19   32 1   
    35   19   33 1   
    36   19   34 1   
@<TRIPOS>SUBSTRUCTURE
     1 DX6         1 TEMP              0 ****  ****    0 ROOT
