@<TRIPOS>MOLECULE
DX6
   33    28     1     0     0
SMALL
bcc


@<TRIPOS>ATOM
      1 CAF        -1.4540   -3.1940   -0.5920 c1        1 DX6     -0.065500
      2 CAD        -1.6920   -4.5120   -0.9500 c1        1 DX6     -0.075000
      3 CAC        -0.6450   -5.4190   -0.9930 c1        1 DX6     -0.075000
      4 CAE         0.6410   -5.0080   -0.6770 c1        1 DX6     -0.075000
      5 CAG         0.8800   -3.6900   -0.3190 c1        1 DX6     -0.075000
      6 CAN        -0.1680   -2.7830   -0.2770 c1        1 DX6     -0.045100
      7 CAI         0.0820   -1.3580    0.1780 c3        1 DX6     -0.066300
      8 CAJ        -0.5130   -0.3950   -0.8280 c3        1 DX6     -0.013200
      9 CAP        -0.0210    1.0100   -0.5360 ce        1 DX6     -0.086000
     10 CAH         0.2320    1.4360   -1.8230 c1        1 DX6      0.142500
     11 NAL         0.5350    2.7660   -1.7760 nf        1 DX6     -0.437400
     12 CAR         0.4710    3.1740   -0.4580 ch        1 DX6      0.130000
     13 NAK         0.7150    4.4610    0.1770 n1        1 DX6     -0.251000
     14 CAS         0.1280    2.0890    0.3050 cg        1 DX6     -0.288300
     15 CAQ        -0.0150    2.2340    1.7960 c1        1 DX6      0.624500
     16 OAB        -0.3850    1.2900    2.4650 o         1 DX6     -0.595500
     17 NAM         0.2200    3.4740    2.4030 nh        1 DX6     -0.367600
     18 CAO         0.5860    4.5990    1.6080 c2        1 DX6      0.170800
     19 NAA         0.8600    5.8460    2.2270 nh        1 DX6     -0.398300
     20 HAF        -2.1910   -2.5550   -0.5630 ha        1 DX6      0.098500
     21 HAD        -2.5970   -4.8010   -1.1730 ha        1 DX6      0.069750
     22 HAC        -0.8130   -6.3470   -1.2450 ha        1 DX6      0.069750
     23 HAE         1.3790   -5.6470   -0.7070 ha        1 DX6      0.069750
     24 HAG         1.7840   -3.4010   -0.0970 ha        1 DX6      0.069750
     25 HAI         1.0440   -1.2030    0.2480 hc        1 DX6      0.055200
     26 HAIA       -0.3360   -1.2170    1.0510 hc        1 DX6      0.055200
     27 HAJ        -0.2390   -0.6560   -1.7300 hc        1 DX6      0.057200
     28 HAJA       -1.4890   -0.4190   -0.7650 hc        1 DX6      0.057200
     29 HAH         0.2150    0.8800   -2.6240 DU        1 DX6      0.216000
     30 HNAL        0.7430    3.2940   -2.4910 DU        1 DX6      0.216000
     31 HNAM        0.1390    3.5610    3.3070 hn        1 DX6      0.296700
     32 HNAA        1.2930    6.5020    1.7610 hn        1 DX6      0.260200
     33 HNAB        0.6120    5.9890    3.0950 hn        1 DX6      0.260200
@<TRIPOS>BOND
     1    1    6 3   
     2    1   20 1   
     3    2    3 3   
     4    2   21 1   
     5    3   22 1   
     6    4    5 3   
     7    4   23 1   
     8    5   24 1   
     9    6    7 1   
    10    7    8 1   
    11    7   25 1   
    12    7   26 1   
    13    8    9 1   
    14    8   27 1   
    15    8   28 1   
    16    9   10 2   
    17    9   14 1   
    18   10   11 2   
    19   11   12 1   
    20   12   14 3   
    21   13   18 2   
    22   15   16 2   
    23   15   17 2   
    24   17   18 1   
    25   17   31 1   
    26   18   19 1   
    27   19   32 1   
    28   19   33 1   
@<TRIPOS>SUBSTRUCTURE
     1 DX6         1 TEMP              0 ****  ****    0 ROOT
