@<TRIPOS>MOLECULE
DX6
   34    36     1     0     0
SMALL
bcc


@<TRIPOS>ATOM
      1 CAF         0.0790    0.1710    0.2260 ca        1 DX6     -0.124500
      2 CAD         1.4700    0.1330    0.1670 ca        1 DX6     -0.123000
      3 CAC         2.2140   -0.0890    1.3270 ca        1 DX6     -0.120000
      4 CAE         1.5620   -0.2730    2.5460 ca        1 DX6     -0.123000
      5 CAG         0.1690   -0.2370    2.6070 ca        1 DX6     -0.124500
      6 CAN        -0.5810   -0.0160    1.4470 ca        1 DX6     -0.098300
      7 CAI        -2.0670    0.0390    1.5080 c3        1 DX6     -0.024100
      8 CAJ        -2.6880   -1.1870    0.8560 c3        1 DX6     -0.036100
      9 CAP        -4.1560   -1.1760    0.9350 cc        1 DX6     -0.047300
     10 CAH        -4.9390   -1.1130    2.1160 cd        1 DX6     -0.094300
     11 NAL        -6.2890   -1.1440    1.8020 na        1 DX6     -0.112100
     12 CAR        -6.4080   -1.2290    0.4150 cd        1 DX6      0.081100
     13 NAK        -7.5710   -1.2870   -0.3400 nd        1 DX6     -0.528100
     14 CAS        -5.0780   -1.2500   -0.1460 cc        1 DX6     -0.181600
     15 CAQ        -4.9100   -1.3340   -1.5810 c         1 DX6      0.754100
     16 OAB        -3.8690   -1.3610   -2.2420 o         1 DX6     -0.543500
     17 NAM        -6.1370   -1.3920   -2.3230 n         1 DX6     -0.503400
     18 CAO        -7.3650   -1.3650   -1.6540 cc        1 DX6      0.487800
     19 NAA        -8.6050   -1.4290   -2.4950 n4        1 DX6     -0.793600
     20 HAF        -0.5060    0.3490   -0.6890 ha        1 DX6      0.129000
     21 HAD         1.9830    0.2810   -0.7950 ha        1 DX6      0.138500
     22 HAC         3.3130   -0.1160    1.2800 ha        1 DX6      0.140000
     23 HAE         2.1460   -0.4450    3.4620 ha        1 DX6      0.138500
     24 HAG        -0.3390   -0.3780    3.5720 ha        1 DX6      0.129000
     25 HAI        -2.4270    0.9640    0.9810 hc        1 DX6      0.048200
     26 HAIA       -2.4090    0.1080    2.5750 hc        1 DX6      0.048200
     27 HAJ        -2.2990   -2.1150    1.3600 hc        1 DX6      0.080200
     28 HAJA       -2.3710   -1.2360   -0.2240 hc        1 DX6      0.080200
     29 HAH        -4.6020   -1.0470    3.1550 h4        1 DX6      0.205000
     30 HNAL       -7.0440   -1.1130    2.4430 hn        1 DX6      0.331700
     31 HNAM       -6.0770   -1.4520   -3.3160 hn        1 DX6      0.346500
     32 HNAA       -8.6090   -2.3040   -3.0320 hn        1 DX6      0.479467
     33 HNAB       -8.6270   -0.6260   -3.1330 hn        1 DX6      0.479467
     34 HAA3       -9.4380   -1.4020   -1.8880 hn        1 DX6      0.479467
@<TRIPOS>BOND
     1    1    2 ar  
     2    1    6 ar  
     3    1   20 1   
     4    2    3 ar  
     5    2   21 1   
     6    3    4 ar  
     7    3   22 1   
     8    4    5 ar  
     9    4   23 1   
    10    5    6 ar  
    11    5   24 1   
    12    6    7 1   
    13    7    8 1   
    14    7   25 1   
    15    7   26 1   
    16    8    9 1   
    17    8   27 1   
    18    8   28 1   
    19    9   10 2   
    20    9   14 1   
    21   10   11 1   
    22   10   29 1   
    23   11   12 1   
    24   11   30 1   
    25   12   13 1   
    26   12   14 2   
    27   13   18 2   
    28   14   15 1   
    29   15   16 2   
    30   15   17 1   
    31   17   18 1   
    32   17   31 1   
    33   18   19 1   
    34   19   32 1   
    35   19   33 1   
    36   19   34 1   
@<TRIPOS>SUBSTRUCTURE
     1 DX6         1 TEMP              0 ****  ****    0 ROOT
