@<TRIPOS>MOLECULE
DX6
   34    36     1     0     0
SMALL
bcc


@<TRIPOS>ATOM
      1 CAF         0.0760    0.1820    0.2270 ca        1 DX6     -0.124500
      2 CAD         1.4680    0.1490    0.1670 ca        1 DX6     -0.123000
      3 CAC         2.2130   -0.0770    1.3250 ca        1 DX6     -0.120000
      4 CAE         1.5620   -0.2690    2.5430 ca        1 DX6     -0.123000
      5 CAG         0.1700   -0.2370    2.6050 ca        1 DX6     -0.124500
      6 CAN        -0.5820   -0.0130    1.4470 ca        1 DX6     -0.098300
      7 CAI        -2.0680    0.0380    1.5100 c3        1 DX6     -0.024100
      8 CAJ        -2.6860   -1.1870    0.8530 c3        1 DX6     -0.036100
      9 CAP        -4.1550   -1.1810    0.9340 cc        1 DX6     -0.047300
     10 CAH        -4.9360   -1.1230    2.1150 cd        1 DX6     -0.094300
     11 NAL        -6.2860   -1.1570    1.8030 na        1 DX6     -0.112100
     12 CAR        -6.4070   -1.2380    0.4160 cd        1 DX6      0.081100
     13 NAK        -7.5700   -1.2960   -0.3380 nd        1 DX6     -0.528100
     14 CAS        -5.0770   -1.2530   -0.1470 cc        1 DX6     -0.181600
     15 CAQ        -4.9100   -1.3310   -1.5820 c         1 DX6      0.754100
     16 OAB        -3.8700   -1.3530   -2.2440 o         1 DX6     -0.543500
     17 NAM        -6.1380   -1.3900   -2.3220 ns        1 DX6     -0.503400
     18 CAO        -7.3650   -1.3690   -1.6520 cc        1 DX6      0.487800
     19 NAA        -8.6060   -1.4340   -2.4930 nz        1 DX6     -0.793600
     20 HAF        -0.5100    0.3630   -0.6870 ha        1 DX6      0.129000
     21 HAD         1.9790    0.3030   -0.7950 ha        1 DX6      0.138500
     22 HAC         3.3120   -0.1020    1.2760 ha        1 DX6      0.140000
     23 HAE         2.1480   -0.4450    3.4580 ha        1 DX6      0.138500
     24 HAG        -0.3370   -0.3860    3.5710 ha        1 DX6      0.129000
     25 HAI        -2.4090    0.1010    2.5780 hc        1 DX6      0.048200
     26 HAIA       -2.4310    0.9650    0.9880 hc        1 DX6      0.048200
     27 HAJ        -2.2940   -2.1160    1.3520 hc        1 DX6      0.080200
     28 HAJA       -2.3710   -1.2300   -0.2270 hc        1 DX6      0.080200
     29 HAH        -4.5980   -1.0600    3.1550 h4        1 DX6      0.205000
     30 HNAL       -7.0410   -1.1300    2.4460 hn        1 DX6      0.331700
     31 HNAM       -6.0790   -1.4460   -3.3160 hn        1 DX6      0.346500
     32 HNAA       -8.6080   -2.3070   -3.0320 hn        1 DX6      0.479467
     33 HNAB       -8.6310   -0.6290   -3.1280 hn        1 DX6      0.479467
     34 HAA3       -9.4390   -1.4110   -1.8850 hn        1 DX6      0.479467
@<TRIPOS>BOND
     1    1    2 ar  
     2    1    6 ar  
     3    1   20 1   
     4    2    3 ar  
     5    2   21 1   
     6    3    4 ar  
     7    3   22 1   
     8    4    5 ar  
     9    4   23 1   
    10    5    6 ar  
    11    5   24 1   
    12    6    7 1   
    13    7    8 1   
    14    7   25 1   
    15    7   26 1   
    16    8    9 1   
    17    8   27 1   
    18    8   28 1   
    19    9   10 2   
    20    9   14 1   
    21   10   11 1   
    22   10   29 1   
    23   11   12 1   
    24   11   30 1   
    25   12   13 1   
    26   12   14 2   
    27   13   18 2   
    28   14   15 1   
    29   15   16 2   
    30   15   17 1   
    31   17   18 1   
    32   17   31 1   
    33   18   19 1   
    34   19   32 1   
    35   19   33 1   
    36   19   34 1   
@<TRIPOS>SUBSTRUCTURE
     1 DX6         1 TEMP              0 ****  ****    0 ROOT
