@<TRIPOS>MOLECULE
DX6
   33    35     1     0     0
SMALL
bcc


@<TRIPOS>ATOM
      1 CAF        -3.4630   -1.1200    0.2020 ca        1 DX6     -0.127000
      2 CAD        -4.7560   -1.5680   -0.0600 ca        1 DX6     -0.129500
      3 CAC        -5.8060   -0.6560   -0.1700 ca        1 DX6     -0.134000
      4 CAE        -5.5570    0.7080   -0.0170 ca        1 DX6     -0.129500
      5 CAG        -4.2640    1.1590    0.2430 ca        1 DX6     -0.127000
      6 CAN        -3.2070    0.2490    0.3550 ca        1 DX6     -0.078300
      7 CAI        -1.8270    0.7230    0.6490 c3        1 DX6     -0.031100
      8 CAJ        -0.8910    0.4850   -0.5270 c3        1 DX6     -0.020100
      9 CAP         0.4750    0.9500   -0.2450 cc        1 DX6     -0.058300
     10 CAH         0.8910    2.2660   -0.0070 cd        1 DX6     -0.167300
     11 NAL         2.2760    2.2990    0.2030 na        1 DX6     -0.165100
     12 CAR         2.7630    0.9990    0.1000 cd        1 DX6      0.191100
     13 NAK         4.0820    0.5840    0.2310 nd        1 DX6     -0.678100
     14 CAS         1.6530    0.1320   -0.1820 cc        1 DX6     -0.273600
     15 CAQ         1.8890   -1.2810   -0.3300 c         1 DX6      0.753100
     16 OAB         1.0590   -2.1750   -0.5700 o         1 DX6     -0.633500
     17 NAM         3.2470   -1.6740   -0.1900 n         1 DX6     -0.506400
     18 CAO         4.2680   -0.7490    0.1120 cc        1 DX6      0.671800
     19 NAA         5.5610   -1.2760    0.3590 nh        1 DX6     -0.887800
     20 HAF        -2.6350   -1.8400    0.2870 ha        1 DX6      0.134000
     21 HAD        -4.9480   -2.6450   -0.1800 ha        1 DX6      0.129500
     22 HAC        -6.8250   -1.0110   -0.3760 ha        1 DX6      0.129000
     23 HAE        -6.3820    1.4300   -0.1030 ha        1 DX6      0.129500
     24 HAG        -4.0750    2.2360    0.3630 ha        1 DX6      0.134000
     25 HAI        -1.8370    1.8170    0.9000 hc        1 DX6      0.048700
     26 HAIA       -1.4350    0.1770    1.5490 hc        1 DX6      0.048700
     27 HAJ        -0.8650   -0.6150   -0.7670 hc        1 DX6      0.066700
     28 HAJA       -1.2890    1.0190   -1.4330 hc        1 DX6      0.066700
     29 HAH         0.3050    3.1840    0.0280 h4        1 DX6      0.172000
     30 HNAL        2.8170    3.1010    0.3920 hn        1 DX6      0.308700
     31 HNAM        3.4470   -2.6490   -0.2190 hn        1 DX6      0.333500
     32 HNAA        6.2700   -0.5820    0.4740 hn        1 DX6      0.414300
     33 HNAB        5.8310   -2.0220   -0.2450 hn        1 DX6      0.414300
@<TRIPOS>BOND
     1    1    2 ar  
     2    1    6 ar  
     3    1   20 1   
     4    2    3 ar  
     5    2   21 1   
     6    3    4 ar  
     7    3   22 1   
     8    4    5 ar  
     9    4   23 1   
    10    5    6 ar  
    11    5   24 1   
    12    6    7 1   
    13    7    8 1   
    14    7   25 1   
    15    7   26 1   
    16    8    9 1   
    17    8   27 1   
    18    8   28 1   
    19    9   10 2   
    20    9   14 1   
    21   10   11 1   
    22   10   29 1   
    23   11   12 1   
    24   11   30 1   
    25   12   13 1   
    26   12   14 2   
    27   13   18 2   
    28   14   15 1   
    29   15   16 2   
    30   15   17 1   
    31   17   18 1   
    32   17   31 1   
    33   18   19 1   
    34   19   32 1   
    35   19   33 1   
@<TRIPOS>SUBSTRUCTURE
     1 DX6         1 TEMP              0 ****  ****    0 ROOT
