@<TRIPOS>MOLECULE
DX7
   28    30     1     0     0
SMALL
bcc


@<TRIPOS>ATOM
      1 CAH        -2.9140   -1.4730    0.6590 ca        1 DX7     -0.110000
      2 CAF        -4.3020   -1.5920    0.6470 ca        1 DX7     -0.127000
      3 CAE        -5.0810   -0.6650   -0.0460 ca        1 DX7     -0.117000
      4 CAG        -4.4680    0.3850   -0.7280 ca        1 DX7     -0.127000
      5 CAI        -3.0800    0.5090   -0.7240 ca        1 DX7     -0.110000
      6 CAN        -2.2930   -0.4200   -0.0290 ca        1 DX7     -0.038000
      7 CAP        -0.8470   -0.2800   -0.0240 cc        1 DX7     -0.011300
      8 NAL         0.0100   -1.3930   -0.0770 na        1 DX7     -0.160100
      9 CAR         1.3280   -0.9430   -0.0610 cc        1 DX7      0.208100
     10 NAJ         2.4710   -1.7280   -0.0950 nc        1 DX7     -0.684100
     11 CAM         3.6330   -1.0330   -0.0970 cd        1 DX7      0.686800
     12 NAB         4.8410   -1.7470   -0.2590 nh        1 DX7     -0.893800
     13 NAK         3.7190    0.3700   -0.0050 n         1 DX7     -0.508400
     14 CAQ         2.5660    1.2020    0.0330 c         1 DX7      0.750100
     15 OAC         2.7530    2.4280    0.0870 o         1 DX7     -0.605500
     16 CAS         1.3120    0.4890    0.0090 cd        1 DX7     -0.249600
     17 CAO        -0.0640    0.8950    0.0310 cd        1 DX7      0.001000
     18 CAD        -0.5390    2.2130    0.1130 ch        1 DX7      0.265800
     19 NAA        -0.9210    3.3110    0.1860 n1        1 DX7     -0.360800
     20 HAH        -2.3130   -2.2000    1.2250 ha        1 DX7      0.139500
     21 HAF        -4.7840   -2.4180    1.1920 ha        1 DX7      0.138000
     22 HAE        -6.1770   -0.7610   -0.0510 ha        1 DX7      0.136000
     23 HAG        -5.0790    1.1200   -1.2730 ha        1 DX7      0.138000
     24 HAI        -2.5980    1.3390   -1.2650 ha        1 DX7      0.139500
     25 HNAL       -0.2820   -2.3350   -0.1380 hn        1 DX7      0.317700
     26 HNAB        4.7520   -2.7390   -0.2080 hn        1 DX7      0.422300
     27 HNAA        5.6280   -1.3800    0.2280 hn        1 DX7      0.422300
     28 HNAK        4.6060    0.8240   -0.0520 hn        1 DX7      0.336500
@<TRIPOS>BOND
     1    1    2 ar  
     2    1    6 ar  
     3    1   20 1   
     4    2    3 ar  
     5    2   21 1   
     6    3    4 ar  
     7    3   22 1   
     8    4    5 ar  
     9    4   23 1   
    10    5    6 ar  
    11    5   24 1   
    12    6    7 1   
    13    7    8 1   
    14    7   17 2   
    15    8    9 1   
    16    8   25 1   
    17    9   10 1   
    18    9   16 2   
    19   10   11 2   
    20   11   12 1   
    21   11   13 1   
    22   12   26 1   
    23   12   27 1   
    24   13   14 1   
    25   13   28 1   
    26   14   15 2   
    27   14   16 1   
    28   16   17 1   
    29   17   18 1   
    30   18   19 3   
@<TRIPOS>SUBSTRUCTURE
     1 DX7         1 TEMP              0 ****  ****    0 ROOT
