@<TRIPOS>MOLECULE
DX7
   29    31     1     0     0
SMALL
bcc


@<TRIPOS>ATOM
      1 CAH        -0.0420   -0.1900    0.0020 ca        1 DX7     -0.092500
      2 CAF         1.3500   -0.2260   -0.0320 ca        1 DX7     -0.122500
      3 CAE         2.0840   -0.1320    1.1520 ca        1 DX7     -0.085000
      4 CAG         1.4240    0.0010    2.3740 ca        1 DX7     -0.122500
      5 CAI         0.0320    0.0410    2.4180 ca        1 DX7     -0.092500
      6 CAN        -0.7090   -0.0550    1.2300 ca        1 DX7     -0.093000
      7 CAP        -2.1600   -0.0060    1.2830 cc        1 DX7      0.082700
      8 NAL        -2.9640   -0.7930    0.4600 na        1 DX7     -0.121100
      9 CAR        -4.3020   -0.5190    0.7520 cc        1 DX7      0.092100
     10 NAJ        -5.4270   -1.0770    0.1640 nc        1 DX7     -0.530100
     11 CAM        -6.5810   -0.6200    0.6500 cd        1 DX7      0.490800
     12 NAB        -7.8160   -1.2080    0.0350 n4        1 DX7     -0.793600
     13 NAK        -6.7590    0.3330    1.6570 n         1 DX7     -0.501400
     14 CAQ        -5.6220    0.9380    2.2920 c         1 DX7      0.747100
     15 OAC        -5.8630    1.7670    3.1700 o         1 DX7     -0.521500
     16 CAS        -4.3420    0.4710    1.7960 cd        1 DX7     -0.142600
     17 CAO        -2.9950    0.7900    2.1230 cd        1 DX7     -0.005000
     18 CAD        -2.5660    1.7260    3.0770 ch        1 DX7      0.231800
     19 NAA        -2.2230    2.5100    3.8660 n1        1 DX7     -0.290800
     20 HAH        -0.6070   -0.2440   -0.9400 ha        1 DX7      0.140500
     21 HAF         1.8710   -0.3250   -0.9970 ha        1 DX7      0.154000
     22 HAE         3.1850   -0.1600    1.1200 ha        1 DX7      0.154000
     23 HAG         2.0010    0.0790    3.3090 ha        1 DX7      0.154000
     24 HAI        -0.4860    0.1460    3.3850 ha        1 DX7      0.140500
     25 HNAL       -2.6370   -1.4380   -0.2200 hn        1 DX7      0.335700
     26 HNAB       -8.3680   -1.6810    0.7610 hn        1 DX7      0.481133
     27 HNAA       -8.3720   -0.4600   -0.3960 hn        1 DX7      0.481133
     28 HNAK       -7.6650    0.6190    1.9620 hn        1 DX7      0.349500
     29 HAB3       -7.5520   -1.8930   -0.6880 hn        1 DX7      0.481133
@<TRIPOS>BOND
     1    1    2 ar  
     2    1    6 ar  
     3    1   20 1   
     4    2    3 ar  
     5    2   21 1   
     6    3    4 ar  
     7    3   22 1   
     8    4    5 ar  
     9    4   23 1   
    10    5    6 ar  
    11    5   24 1   
    12    6    7 1   
    13    7    8 1   
    14    7   17 2   
    15    8    9 1   
    16    8   25 1   
    17    9   10 1   
    18    9   16 2   
    19   10   11 2   
    20   11   12 1   
    21   11   13 1   
    22   12   26 1   
    23   12   27 1   
    24   12   29 1   
    25   13   14 1   
    26   13   28 1   
    27   14   15 2   
    28   14   16 1   
    29   16   17 1   
    30   17   18 1   
    31   18   19 3   
@<TRIPOS>SUBSTRUCTURE
     1 DX7         1 TEMP              0 ****  ****    0 ROOT
