@<TRIPOS>MOLECULE
DX7
   28    22     1     0     0
SMALL
bcc


@<TRIPOS>ATOM
      1 CAH         2.6810    0.1070    1.2440 c1        1 DX7     -0.121000
      2 CAF         4.0660    0.0940    1.2840 c1        1 DX7     -0.117500
      3 CAE         4.7890   -0.2000    0.1380 c1        1 DX7     -0.117500
      4 CAG         4.1270   -0.4810   -1.0460 c1        1 DX7     -0.117500
      5 CAI         2.7420   -0.4680   -1.0860 c1        1 DX7     -0.117500
      6 CAN         2.0190   -0.1740    0.0600 c1        1 DX7     -0.038000
      7 CAP         0.6340   -0.1610    0.0200 c1        1 DX7      0.013000
      8 NAL        -0.1980   -1.2220    0.2270 n2        1 DX7     -0.159000
      9 CAR        -1.5000   -0.7700    0.1350 c1        1 DX7      0.093000
     10 NAJ        -2.7790   -1.4510    0.2730 n1        1 DX7     -0.257000
     11 CAM        -4.0110   -0.7120    0.1290 c1        1 DX7      0.240000
     12 NAB        -5.2570   -1.3760    0.2750 n2        1 DX7     -0.332000
     13 NAK        -3.9770    0.6860   -0.1480 n         1 DX7     -0.348000
     14 CAQ        -2.7480    1.3430   -0.2810 c2        1 DX7      0.387000
     15 OAC        -2.7180    2.5420   -0.4710 o         1 DX7     -0.330000
     16 CAS        -1.4640    0.5720   -0.1310 c2        1 DX7     -0.229000
     17 CAO        -0.1450    0.9550   -0.2030 c1        1 DX7      0.005000
     18 CAD         0.0950    2.3600   -0.7080 c1        1 DX7     -0.064000
     19 NAA         0.2770    3.4190   -1.0880 n1        1 DX7     -0.034000
     20 HAH         2.1720    0.3130    2.0510 ha        1 DX7      0.131000
     21 HAF         4.5320    0.2920    2.1180 ha        1 DX7      0.140250
     22 HAE         5.7640   -0.2090    0.1660 ha        1 DX7      0.140250
     23 HAG         4.6360   -0.6880   -1.8520 ha        1 DX7      0.140250
     24 HAI         2.2750   -0.6660   -1.9200 ha        1 DX7      0.140250
     25 HNAL        0.0610   -2.0790    0.4030 DU        1 DX7      0.268000
     26 HNAB       -6.0360   -0.9290    0.1030 hn        1 DX7      0.217500
     27 HNAA       -5.2810   -2.2490    0.5450 hn        1 DX7      0.217500
     28 HNAK       -4.7560    1.1520   -0.2380 hn        1 DX7      0.250000
@<TRIPOS>BOND
     1    1    6 1   
     2    1   20 1   
     3    2    3 1   
     4    2   21 1   
     5    3   22 1   
     6    4    5 1   
     7    4   23 1   
     8    5   24 1   
     9    7    8 1   
    10    7   17 1   
    11    8    9 1   
    12    9   16 1   
    13   10   11 1   
    14   11   13 1   
    15   12   26 1   
    16   12   27 1   
    17   13   14 1   
    18   13   28 1   
    19   14   15 1   
    20   14   16 1   
    21   16   17 1   
    22   18   19 1   
@<TRIPOS>SUBSTRUCTURE
     1 DX7         1 TEMP              0 ****  ****    0 ROOT
