@<TRIPOS>MOLECULE
DX7
   29    31     1     0     0
SMALL
bcc


@<TRIPOS>ATOM
      1 CAH        -0.0310   -0.1470   -0.0200 ca        1 DX7     -0.092500
      2 CAF         1.3610   -0.1840   -0.0590 ca        1 DX7     -0.122500
      3 CAE         2.0990   -0.1030    1.1240 ca        1 DX7     -0.085000
      4 CAG         1.4420    0.0180    2.3490 ca        1 DX7     -0.122500
      5 CAI         0.0500    0.0580    2.3980 ca        1 DX7     -0.092500
      6 CAN        -0.6940   -0.0240    1.2120 ca        1 DX7     -0.093000
      7 CAP        -2.1440    0.0260    1.2690 cc        1 DX7      0.082700
      8 NAL        -2.9520   -0.7520    0.4410 na        1 DX7     -0.121100
      9 CAR        -4.2890   -0.4790    0.7390 cc        1 DX7      0.092100
     10 NAJ        -5.4170   -1.0310    0.1490 nc        1 DX7     -0.530100
     11 CAM        -6.5690   -0.5770    0.6440 cd        1 DX7      0.490800
     12 NAB        -7.8060   -1.1570    0.0270 nz        1 DX7     -0.793600
     13 NAK        -6.7420    0.3650    1.6610 ns        1 DX7     -0.501400
     14 CAQ        -5.6030    0.9630    2.2990 c         1 DX7      0.747100
     15 OAC        -5.8400    1.7830    3.1860 o         1 DX7     -0.521500
     16 CAS        -4.3240    0.5000    1.7930 cd        1 DX7     -0.142600
     17 CAO        -2.9760    0.8140    2.1200 cd        1 DX7     -0.005000
     18 CAD        -2.5430    1.7400    3.0820 ch        1 DX7      0.231800
     19 NAA        -2.1980    2.5150    3.8780 n1        1 DX7     -0.290800
     20 HAH        -0.5990   -0.1910   -0.9610 ha        1 DX7      0.140500
     21 HAF         1.8790   -0.2730   -1.0260 ha        1 DX7      0.154000
     22 HAE         3.1990   -0.1320    1.0890 ha        1 DX7      0.154000
     23 HAG         2.0230    0.0850    3.2830 ha        1 DX7      0.154000
     24 HAI        -0.4650    0.1540    3.3670 ha        1 DX7      0.140500
     25 HNAL       -2.6280   -1.3900   -0.2470 hn        1 DX7      0.335700
     26 HNAB       -8.3630   -0.4050   -0.3960 hn        1 DX7      0.481133
     27 HNAA       -7.5450   -1.8350   -0.7050 hn        1 DX7      0.481133
     28 HNAK       -7.6470    0.6490    1.9710 hn        1 DX7      0.349500
     29 HAB3       -8.3560   -1.6370    0.7490 hn        1 DX7      0.481133
@<TRIPOS>BOND
     1    1    2 ar  
     2    1    6 ar  
     3    1   20 1   
     4    2    3 ar  
     5    2   21 1   
     6    3    4 ar  
     7    3   22 1   
     8    4    5 ar  
     9    4   23 1   
    10    5    6 ar  
    11    5   24 1   
    12    6    7 1   
    13    7    8 1   
    14    7   17 2   
    15    8    9 1   
    16    8   25 1   
    17    9   10 1   
    18    9   16 2   
    19   10   11 2   
    20   11   12 1   
    21   11   13 1   
    22   12   26 1   
    23   12   27 1   
    24   12   29 1   
    25   13   14 1   
    26   13   28 1   
    27   14   15 2   
    28   14   16 1   
    29   16   17 1   
    30   17   18 1   
    31   18   19 3   
@<TRIPOS>SUBSTRUCTURE
     1 DX7         1 TEMP              0 ****  ****    0 ROOT
