@<TRIPOS>MOLECULE
DX7
   29    31     1     0     0
SMALL
bcc


@<TRIPOS>ATOM
      1 CAH        -0.0310   -0.1520   -0.0190 ca        1 DX7     -0.092500
      2 CAF         1.3600   -0.1930   -0.0580 ca        1 DX7     -0.122500
      3 CAE         2.0990   -0.1130    1.1250 ca        1 DX7     -0.085000
      4 CAG         1.4420    0.0090    2.3500 ca        1 DX7     -0.122500
      5 CAI         0.0500    0.0520    2.3980 ca        1 DX7     -0.092500
      6 CAN        -0.6940   -0.0290    1.2120 ca        1 DX7     -0.093000
      7 CAP        -2.1440    0.0250    1.2690 cc        1 DX7      0.082700
      8 NAL        -2.9530   -0.7510    0.4400 na        1 DX7     -0.121100
      9 CAR        -4.2900   -0.4770    0.7390 cc        1 DX7      0.092100
     10 NAJ        -5.4190   -1.0250    0.1480 nc        1 DX7     -0.530100
     11 CAM        -6.5700   -0.5700    0.6430 cd        1 DX7      0.490800
     12 NAB        -7.8080   -1.1470    0.0260 n4        1 DX7     -0.793600
     13 NAK        -6.7420    0.3730    1.6600 n         1 DX7     -0.501400
     14 CAQ        -5.6010    0.9680    2.2980 c         1 DX7      0.747100
     15 OAC        -5.8370    1.7890    3.1850 o         1 DX7     -0.521500
     16 CAS        -4.3240    0.5030    1.7930 cd        1 DX7     -0.142600
     17 CAO        -2.9750    0.8150    2.1200 cd        1 DX7     -0.005000
     18 CAD        -2.5400    1.7390    3.0820 ch        1 DX7      0.231800
     19 NAA        -2.1930    2.5140    3.8780 n1        1 DX7     -0.290800
     20 HAH        -0.5990   -0.1950   -0.9610 ha        1 DX7      0.140500
     21 HAF         1.8790   -0.2820   -1.0250 ha        1 DX7      0.154000
     22 HAE         3.1990   -0.1440    1.0890 ha        1 DX7      0.154000
     23 HAG         2.0220    0.0750    3.2840 ha        1 DX7      0.154000
     24 HAI        -0.4650    0.1490    3.3670 ha        1 DX7      0.140500
     25 HNAL       -2.6310   -1.3900   -0.2470 hn        1 DX7      0.335700
     26 HNAB       -8.3630   -0.3940   -0.3960 hn        1 DX7      0.481133
     27 HNAA       -7.5480   -1.8260   -0.7060 hn        1 DX7      0.481133
     28 HNAK       -7.6450    0.6580    1.9710 hn        1 DX7      0.349500
     29 HAB3       -8.3590   -1.6260    0.7480 hn        1 DX7      0.481133
@<TRIPOS>BOND
     1    1    2 ar  
     2    1    6 ar  
     3    1   20 1   
     4    2    3 ar  
     5    2   21 1   
     6    3    4 ar  
     7    3   22 1   
     8    4    5 ar  
     9    4   23 1   
    10    5    6 ar  
    11    5   24 1   
    12    6    7 1   
    13    7    8 1   
    14    7   17 2   
    15    8    9 1   
    16    8   25 1   
    17    9   10 1   
    18    9   16 2   
    19   10   11 2   
    20   11   12 1   
    21   11   13 1   
    22   12   26 1   
    23   12   27 1   
    24   12   29 1   
    25   13   14 1   
    26   13   28 1   
    27   14   15 2   
    28   14   16 1   
    29   16   17 1   
    30   17   18 1   
    31   18   19 3   
@<TRIPOS>SUBSTRUCTURE
     1 DX7         1 TEMP              0 ****  ****    0 ROOT
