@<TRIPOS>MOLECULE
DX8
   33    35     1     0     0
SMALL
bcc


@<TRIPOS>ATOM
      1 CAA         0.0290   -0.0320   -0.1180 c3        1 DX8      0.106700
      2 OAM         1.4450    0.1120    0.0030 os        1 DX8     -0.310900
      3 CAO         1.9640    0.0680    1.2700 ca        1 DX8      0.178100
      4 CAG         3.3710    0.1780    1.3400 ca        1 DX8     -0.183000
      5 CAI         3.9950    0.1490    2.5750 ca        1 DX8     -0.052500
      6 CAF         1.2040   -0.0720    2.4410 ca        1 DX8     -0.183000
      7 CAH         1.8460   -0.1030    3.6740 ca        1 DX8     -0.052500
      8 CAP         3.2420    0.0080    3.7560 ca        1 DX8     -0.142000
      9 CAR         3.8940   -0.0330    5.0490 cc        1 DX8      0.098700
     10 NAL         5.0130    0.7420    5.3460 na        1 DX8     -0.125100
     11 CAT         5.4010    0.4800    6.6620 cc        1 DX8      0.087100
     12 NAJ         6.4700    1.0300    7.3540 nc        1 DX8     -0.527100
     13 CAN         6.5950    0.5880    8.6060 cd        1 DX8      0.483800
     14 NAC         7.7400    1.1670    9.3810 nz        1 DX8     -0.792600
     15 NAK         5.7830   -0.3420    9.2620 ns        1 DX8     -0.501400
     16 CAS         4.6680   -0.9380    8.5830 c         1 DX8      0.747100
     17 OAD         4.0020   -1.7470    9.2300 o         1 DX8     -0.524500
     18 CAU         4.4910   -0.4880    7.2150 cd        1 DX8     -0.137600
     19 CAQ         3.5490   -0.8080    6.1990 cd        1 DX8     -0.015000
     20 CAE         2.4960   -1.7300    6.2970 ch        1 DX8      0.234800
     21 NAB         1.6310   -2.5030    6.3910 n1        1 DX8     -0.296800
     22 HAA        -0.1360    0.0190   -1.2240 h1        1 DX8      0.058033
     23 HAAA       -0.4940    0.8070    0.4010 h1        1 DX8      0.058033
     24 HAAB       -0.3000   -1.0190    0.2880 h1        1 DX8      0.058033
     25 HAG         3.9480    0.2800    0.4080 ha        1 DX8      0.163500
     26 HAI         5.0930    0.2140    2.6180 ha        1 DX8      0.141000
     27 HAF         0.1080   -0.1620    2.3970 ha        1 DX8      0.163500
     28 HAH         1.2480   -0.2110    4.5940 ha        1 DX8      0.141000
     29 HNAL        5.4630    1.3690    4.7220 hn        1 DX8      0.334700
     30 HNAC        8.2570    1.8350    8.7900 hn        1 DX8      0.480133
     31 HNAA        7.3810    1.6570   10.2080 hn        1 DX8      0.480133
     32 HNAK        5.9500   -0.6170   10.2060 hn        1 DX8      0.348500
     33 HAC3        8.3740    0.4120    9.6680 hn        1 DX8      0.480133
@<TRIPOS>BOND
     1    1    2 1   
     2    1   22 1   
     3    1   23 1   
     4    1   24 1   
     5    2    3 1   
     6    3    4 ar  
     7    3    6 ar  
     8    4    5 ar  
     9    4   25 1   
    10    5    8 ar  
    11    5   26 1   
    12    6    7 ar  
    13    6   27 1   
    14    7    8 ar  
    15    7   28 1   
    16    8    9 1   
    17    9   10 1   
    18    9   19 2   
    19   10   11 1   
    20   10   29 1   
    21   11   12 1   
    22   11   18 2   
    23   12   13 2   
    24   13   14 1   
    25   13   15 1   
    26   14   30 1   
    27   14   31 1   
    28   14   33 1   
    29   15   16 1   
    30   15   32 1   
    31   16   17 2   
    32   16   18 1   
    33   18   19 1   
    34   19   20 1   
    35   20   21 3   
@<TRIPOS>SUBSTRUCTURE
     1 DX8         1 TEMP              0 ****  ****    0 ROOT
