@<TRIPOS>MOLECULE
DX8
   32    34     1     0     0
SMALL
bcc


@<TRIPOS>ATOM
      1 CAA         6.5120    0.2540    0.5420 c3        1 DX8      0.111700
      2 OAM         5.7040   -0.7260   -0.1020 os        1 DX8     -0.323900
      3 CAO         4.3400   -0.5340   -0.0300 ca        1 DX8      0.139100
      4 CAG         3.5710   -1.4940   -0.7160 ca        1 DX8     -0.179500
      5 CAI         2.1870   -1.3930   -0.7020 ca        1 DX8     -0.075000
      6 CAF         3.7200    0.5150    0.6590 ca        1 DX8     -0.179500
      7 CAH         2.3300    0.6010    0.6650 ca        1 DX8     -0.075000
      8 CAP         1.5520   -0.3470   -0.0120 ca        1 DX8     -0.078000
      9 CAR         0.1040   -0.2360    0.0000 cc        1 DX8     -0.000300
     10 NAL        -0.7290   -1.3650    0.0770 na        1 DX8     -0.161100
     11 CAT        -2.0560   -0.9410    0.0750 cc        1 DX8      0.206100
     12 NAJ        -3.1830   -1.7470    0.1310 nc        1 DX8     -0.683100
     13 CAN        -4.3590   -1.0750    0.1430 cd        1 DX8      0.684800
     14 NAC        -5.5510   -1.8100    0.3270 nh        1 DX8     -0.892800
     15 NAK        -4.4730    0.3260    0.0390 n         1 DX8     -0.508400
     16 CAS        -3.3370    1.1790   -0.0210 c         1 DX8      0.750100
     17 OAD        -3.5490    2.4010   -0.0830 o         1 DX8     -0.606500
     18 CAU        -2.0690    0.4900   -0.0080 cd        1 DX8     -0.247600
     19 CAQ        -0.7020    0.9230   -0.0550 cd        1 DX8     -0.006000
     20 CAE        -0.2520    2.2490   -0.1560 ch        1 DX8      0.267800
     21 NAB         0.1090    3.3520   -0.2440 n1        1 DX8     -0.363800
     22 HAA         6.3370    1.2640    0.0990 h1        1 DX8      0.048033
     23 HAAA        6.3140    0.2660    1.6410 h1        1 DX8      0.048033
     24 HAAB        7.5560   -0.0940    0.3330 h1        1 DX8      0.048033
     25 HAG         4.0770   -2.3070   -1.2560 ha        1 DX8      0.149500
     26 HAI         1.5910   -2.1350   -1.2550 ha        1 DX8      0.141500
     27 HAF         4.3110    1.2720    1.1920 ha        1 DX8      0.149500
     28 HAH         1.8380    1.4260    1.2060 ha        1 DX8      0.141500
     29 HNAL       -0.4190   -2.3000    0.1420 hn        1 DX8      0.316700
     30 HNAC       -5.4410   -2.8010    0.2850 hn        1 DX8      0.421300
     31 HNAA       -6.3480   -1.4660   -0.1590 hn        1 DX8      0.421300
     32 HNAK       -5.3680    0.7620    0.0950 hn        1 DX8      0.336500
@<TRIPOS>BOND
     1    1    2 1   
     2    1   22 1   
     3    1   23 1   
     4    1   24 1   
     5    2    3 1   
     6    3    4 ar  
     7    3    6 ar  
     8    4    5 ar  
     9    4   25 1   
    10    5    8 ar  
    11    5   26 1   
    12    6    7 ar  
    13    6   27 1   
    14    7    8 ar  
    15    7   28 1   
    16    8    9 1   
    17    9   10 1   
    18    9   19 2   
    19   10   11 1   
    20   10   29 1   
    21   11   12 1   
    22   11   18 2   
    23   12   13 2   
    24   13   14 1   
    25   13   15 1   
    26   14   30 1   
    27   14   31 1   
    28   15   16 1   
    29   15   32 1   
    30   16   17 2   
    31   16   18 1   
    32   18   19 1   
    33   19   20 1   
    34   20   21 3   
@<TRIPOS>SUBSTRUCTURE
     1 DX8         1 TEMP              0 ****  ****    0 ROOT
