@<TRIPOS>MOLECULE
DX8
   33    35     1     0     0
SMALL
bcc


@<TRIPOS>ATOM
      1 CAA         0.0360   -0.0970   -0.1460 c3        1 DX8      0.106700
      2 OAM         1.4480    0.0830   -0.0260 os        1 DX8     -0.310900
      3 CAO         1.9700    0.0320    1.2400 ca        1 DX8      0.178100
      4 CAG         3.3740    0.1780    1.3090 ca        1 DX8     -0.183000
      5 CAI         4.0020    0.1450    2.5420 ca        1 DX8     -0.052500
      6 CAF         1.2170   -0.1490    2.4090 ca        1 DX8     -0.183000
      7 CAH         1.8620   -0.1820    3.6410 ca        1 DX8     -0.052500
      8 CAP         3.2550   -0.0360    3.7220 ca        1 DX8     -0.142000
      9 CAR         3.9100   -0.0810    5.0130 cc        1 DX8      0.098700
     10 NAL         5.0090    0.7190    5.3210 na        1 DX8     -0.125100
     11 CAT         5.4070    0.4450    6.6320 cc        1 DX8      0.087100
     12 NAJ         6.4620    1.0110    7.3310 nc        1 DX8     -0.527100
     13 CAN         6.6010    0.5520    8.5750 cd        1 DX8      0.483800
     14 NAC         7.7330    1.1480    9.3580 n4        1 DX8     -0.792600
     15 NAK         5.8160   -0.4100    9.2170 n         1 DX8     -0.501400
     16 CAS         4.7150   -1.0230    8.5310 c         1 DX8      0.747100
     17 OAD         4.0720   -1.8590    9.1650 o         1 DX8     -0.524500
     18 CAU         4.5230   -0.5560    7.1710 cd        1 DX8     -0.137600
     19 CAQ         3.5880   -0.8830    6.1510 cd        1 DX8     -0.015000
     20 CAE         2.5600   -1.8350    6.2360 ch        1 DX8      0.234800
     21 NAB         1.7160   -2.6320    6.3180 n1        1 DX8     -0.296800
     22 HAA        -0.1330   -0.0320   -1.2520 h1        1 DX8      0.058033
     23 HAAA       -0.5080    0.7190    0.3870 h1        1 DX8      0.058033
     24 HAAB       -0.2660   -1.0990    0.2430 h1        1 DX8      0.058033
     25 HAG         3.9460    0.3110    0.3790 ha        1 DX8      0.163500
     26 HAI         5.0980    0.2380    2.5850 ha        1 DX8      0.141000
     27 HAF         0.1240   -0.2670    2.3650 ha        1 DX8      0.163500
     28 HAH         1.2690   -0.3220    4.5590 ha        1 DX8      0.141000
     29 HNAL        5.4410    1.3680    4.7070 hn        1 DX8      0.334700
     30 HNAC        8.2310    1.8390    8.7770 hn        1 DX8      0.480133
     31 HNAA        7.3630    1.6150   10.1940 hn        1 DX8      0.480133
     32 HNAK        5.9920   -0.6960   10.1560 hn        1 DX8      0.348500
     33 HAC3        8.3870    0.4050    9.6320 hn        1 DX8      0.480133
@<TRIPOS>BOND
     1    1    2 1   
     2    1   22 1   
     3    1   23 1   
     4    1   24 1   
     5    2    3 1   
     6    3    4 ar  
     7    3    6 ar  
     8    4    5 ar  
     9    4   25 1   
    10    5    8 ar  
    11    5   26 1   
    12    6    7 ar  
    13    6   27 1   
    14    7    8 ar  
    15    7   28 1   
    16    8    9 1   
    17    9   10 1   
    18    9   19 2   
    19   10   11 1   
    20   10   29 1   
    21   11   12 1   
    22   11   18 2   
    23   12   13 2   
    24   13   14 1   
    25   13   15 1   
    26   14   30 1   
    27   14   31 1   
    28   14   33 1   
    29   15   16 1   
    30   15   32 1   
    31   16   17 2   
    32   16   18 1   
    33   18   19 1   
    34   19   20 1   
    35   20   21 3   
@<TRIPOS>SUBSTRUCTURE
     1 DX8         1 TEMP              0 ****  ****    0 ROOT
