@<TRIPOS>MOLECULE
DX9
   61    64     1     0     0
SMALL
bcc


@<TRIPOS>ATOM
      1 C12        -0.5730   -0.2010    1.1220 ca        1 DX9     -0.118000
      2 C13         0.6450   -0.2070    1.7630 ca        1 DX9     -0.081300
      3 C11         0.8340   -1.0480    2.8960 ca        1 DX9     -0.119000
      4 C10        -0.1810   -1.8470    3.3560 ca        1 DX9     -0.116000
      5 C7         -1.4480   -1.8510    2.7100 ca        1 DX9     -0.031000
      6 C6         -2.5210   -2.6640    3.1660 ca        1 DX9     -0.117000
      7 C5         -3.7330   -2.6450    2.5230 ca        1 DX9     -0.117000
      8 C4         -3.9280   -1.8140    1.3890 ca        1 DX9     -0.198900
      9 C9         -2.9050   -1.0170    0.9260 ca        1 DX9     -0.076000
     10 C8         -1.6430   -1.0180    1.5800 ca        1 DX9     -0.041000
     11 C2         -5.2740   -1.8090    0.7310 ce        1 DX9      0.638800
     12 N2         -6.3950   -1.6290    1.3660 n2        1 DX9     -0.834100
     13 N1         -5.2340   -1.9510   -0.6730 nh        1 DX9     -0.893800
     14 C14         1.8060    0.6100    1.3140 c3        1 DX9     -0.037100
     15 C22         1.2520    1.6010   -0.9000 c         1 DX9      0.639100
     16 O23         0.0510    2.0090   -1.3980 oh        1 DX9     -0.609100
     17 O24         2.0200    1.0460   -1.6920 o         1 DX9     -0.549000
     18 C15         1.4310    1.8920    0.5700 c3        1 DX9     -0.049400
     19 N28         7.0580    8.3550    2.6610 nh        1 DX9     -0.780600
     20 C27         6.4170    7.9460    1.4250 c3        1 DX9      0.188800
     21 C26         5.1980    7.0620    1.7920 c3        1 DX9      0.132100
     22 C30         5.1090    7.0760    3.3220 c3        1 DX9     -0.120400
     23 C29         6.2640    7.9630    3.8120 c3        1 DX9      0.204800
     24 C31         7.8240    9.5500    2.6920 c2        1 DX9      0.622200
     25 N32         8.3400   10.1630    1.6720 n2        1 DX9     -0.836100
     26 C33         8.1280   10.0850    4.0820 c3        1 DX9     -0.136400
     27 C21         2.2080    4.0830    1.5030 ca        1 DX9     -0.081000
     28 C20         3.1860    5.0550    1.7060 ca        1 DX9     -0.180000
     29 C17         3.7630    2.7720    0.1930 ca        1 DX9     -0.081000
     30 C18         4.7480    3.7320    0.3790 ca        1 DX9     -0.180000
     31 C19         4.4550    4.8800    1.1410 ca        1 DX9      0.132100
     32 O25         5.5100    5.7580    1.2890 os        1 DX9     -0.320900
     33 C16         2.4870    2.9380    0.7520 ca        1 DX9     -0.133300
     34 H12        -0.7470    0.4360    0.2380 ha        1 DX9      0.145000
     35 H11         1.8140   -1.0480    3.3980 ha        1 DX9      0.135000
     36 H10        -0.0340   -2.4970    4.2320 ha        1 DX9      0.136000
     37 H6         -2.3600   -3.3080    4.0430 ha        1 DX9      0.137000
     38 H5         -4.5640   -3.2750    2.8760 ha        1 DX9      0.140000
     39 H9         -3.0480   -0.3640    0.0500 ha        1 DX9      0.152000
     40 H227        7.1520    7.3560    0.8100 h1        1 DX9      0.060700
     41 HN21       -6.2870   -1.4390    2.3390 hn        1 DX9      0.395400
     42 HN12        0.0040    1.8110   -2.3480 ho        1 DX9      0.446000
     43 HN11       -4.5200   -2.5720   -0.9830 hn        1 DX9      0.398300
     44 H141        2.4190    0.8960    2.2130 hc        1 DX9      0.074200
     45 H142        2.4630   -0.0210    0.6530 hc        1 DX9      0.074200
     46 H15         0.4500    2.2820    0.9710 hc        1 DX9      0.094700
     47 H127        6.0600    8.8220    0.8160 h1        1 DX9      0.060700
     48 H130        5.2120    6.0380    3.7260 hc        1 DX9      0.065200
     49 H129        5.8540    8.8550    4.3630 h1        1 DX9      0.044700
     50 H229        6.9270    7.3940    4.5210 h1        1 DX9      0.044700
     51 HN31        8.1310    9.8020    0.7660 hn        1 DX9      0.384400
     52 H230        4.1280    7.4900    3.6580 hc        1 DX9      0.065200
     53 H331        8.4450    9.2560    4.7590 hc        1 DX9      0.058367
     54 H332        7.2130   10.5740    4.4980 hc        1 DX9      0.058367
     55 H333        8.9480   10.8440    4.0430 hc        1 DX9      0.058367
     56 H21         1.2090    4.2240    1.9440 ha        1 DX9      0.147500
     57 H20         2.9550    5.9430    2.3110 ha        1 DX9      0.147000
     58 H17         3.9730    1.8750   -0.4130 ha        1 DX9      0.147500
     59 H18         5.7500    3.6110   -0.0560 ha        1 DX9      0.147000
     60 H26         4.2620    7.4440    1.3080 h1        1 DX9      0.063700
     61 H13        -6.1160   -2.1110   -1.1110 hn        1 DX9      0.398300
@<TRIPOS>BOND
     1    1    2 ar  
     2    1   10 ar  
     3    1   34 1   
     4    2    3 ar  
     5    2   14 1   
     6    3    4 ar  
     7    3   35 1   
     8    4    5 ar  
     9    4   36 1   
    10    5    6 ar  
    11    5   10 ar  
    12    6    7 ar  
    13    6   37 1   
    14    7    8 ar  
    15    7   38 1   
    16    8    9 ar  
    17    8   11 1   
    18    9   10 ar  
    19    9   39 1   
    20   11   12 2   
    21   11   13 1   
    22   12   41 1   
    23   13   43 1   
    24   13   61 1   
    25   14   18 1   
    26   14   44 1   
    27   14   45 1   
    28   15   16 1   
    29   15   17 2   
    30   15   18 1   
    31   16   42 1   
    32   18   33 1   
    33   18   46 1   
    34   19   20 1   
    35   19   23 1   
    36   19   24 1   
    37   20   21 1   
    38   20   40 1   
    39   20   47 1   
    40   21   22 1   
    41   21   32 1   
    42   21   60 1   
    43   22   23 1   
    44   22   48 1   
    45   22   52 1   
    46   23   49 1   
    47   23   50 1   
    48   24   25 2   
    49   24   26 1   
    50   25   51 1   
    51   26   53 1   
    52   26   54 1   
    53   26   55 1   
    54   27   28 ar  
    55   27   33 ar  
    56   27   56 1   
    57   28   31 ar  
    58   28   57 1   
    59   29   30 ar  
    60   29   33 ar  
    61   29   58 1   
    62   30   31 ar  
    63   30   59 1   
    64   31   32 1   
@<TRIPOS>SUBSTRUCTURE
     1 DX9         1 TEMP              0 ****  ****    0 ROOT
