@<TRIPOS>MOLECULE
DX9
   61    64     1     0     0
SMALL
bcc


@<TRIPOS>ATOM
      1 C12        -1.3570   -0.0180    3.3410 ca        1 DX9     -0.096000
      2 C13        -0.0340   -0.1190    3.7190 ca        1 DX9     -0.069300
      3 C11         0.5410   -1.4140    3.8560 ca        1 DX9     -0.095000
      4 C10        -0.1030   -2.5240    3.3620 ca        1 DX9     -0.130000
      5 C7         -1.2750   -2.3540    2.5710 ca        1 DX9     -0.022000
      6 C6         -1.6500   -3.2820    1.5540 ca        1 DX9     -0.104000
      7 C5         -2.3420   -2.8380    0.4530 ca        1 DX9     -0.117000
      8 C4         -2.8010   -1.4930    0.4080 ca        1 DX9     -0.271900
      9 C9         -2.7990   -0.7230    1.5540 ca        1 DX9     -0.032000
     10 C8         -1.9230   -1.0970    2.6080 ca        1 DX9     -0.048000
     11 C2         -2.9670   -0.7890   -0.8840 ce        1 DX9      0.611800
     12 N2         -3.7440   -1.0190   -1.8790 n2        1 DX9     -0.758100
     13 N1         -1.9930    0.3400   -0.9660 nz        1 DX9     -0.865600
     14 C14         0.8050    1.1080    3.7380 c3        1 DX9     -0.018100
     15 C22        -0.3100    1.6040    1.4340 c         1 DX9      0.921600
     16 O23        -1.5230    1.9560    1.2070 o         1 DX9     -0.863300
     17 O24         0.2560    0.8340    0.5990 o         1 DX9     -0.863300
     18 C15         0.3680    2.1550    2.6970 c3        1 DX9     -0.093400
     19 N28         6.9540    7.9180    1.3720 nh        1 DX9     -0.780600
     20 C27         5.9350    7.2810    0.5580 c3        1 DX9      0.187800
     21 C26         4.8460    6.7210    1.5090 c3        1 DX9      0.134100
     22 C30         5.2580    7.1480    2.9230 c3        1 DX9     -0.119400
     23 C29         6.5500    7.9640    2.7670 c3        1 DX9      0.204800
     24 C31         7.7500    8.9540    0.8200 c2        1 DX9      0.623200
     25 N32         7.9480    9.1870   -0.4410 n2        1 DX9     -0.841100
     26 C33         8.5040    9.7990    1.8340 c3        1 DX9     -0.136400
     27 C21         1.6550    4.3000    2.8680 ca        1 DX9     -0.091500
     28 C20         2.7520    5.1040    2.5590 ca        1 DX9     -0.181500
     29 C17         2.5390    2.5310    1.4790 ca        1 DX9     -0.091500
     30 C18         3.6360    3.3180    1.1540 ca        1 DX9     -0.181500
     31 C19         3.7400    4.6100    1.7010 ca        1 DX9      0.111100
     32 O25         4.8910    5.3000    1.3540 os        1 DX9     -0.326900
     33 C16         1.5400    3.0120    2.3390 ca        1 DX9     -0.096300
     34 H12        -1.8940    0.9450    3.3810 ha        1 DX9      0.168000
     35 H11         1.5310   -1.5060    4.3300 ha        1 DX9      0.140000
     36 H10         0.3280   -3.5290    3.4730 ha        1 DX9      0.136000
     37 H6         -1.2870   -4.3180    1.6150 ha        1 DX9      0.142000
     38 H5         -2.5150   -3.4960   -0.4100 ha        1 DX9      0.135000
     39 H9         -3.2730    0.2740    1.5930 ha        1 DX9      0.167000
     40 H227        6.4050    6.4420   -0.0270 h1        1 DX9      0.058700
     41 HN21       -4.3840   -1.7760   -1.7630 hn        1 DX9      0.443400
     42 HN12       -2.2120    1.0770   -0.2260 hn        1 DX9      0.487133
     43 HN11       -1.0360    0.0160   -0.6900 hn        1 DX9      0.487133
     44 H141        1.8700    0.8110    3.5320 hc        1 DX9      0.056700
     45 H142        0.7810    1.5880    4.7530 hc        1 DX9      0.056700
     46 H15        -0.4160    2.8030    3.1910 hc        1 DX9      0.064700
     47 H127        5.4550    7.9970   -0.1640 h1        1 DX9      0.058700
     48 H130        5.4360    6.2480    3.5610 hc        1 DX9      0.065200
     49 H129        7.3770    7.5210    3.3890 h1        1 DX9      0.042700
     50 H229        6.3830    9.0200    3.1190 h1        1 DX9      0.042700
     51 HN31        7.4460    8.6260   -1.0940 hn        1 DX9      0.383400
     52 H230        4.4600    7.7670    3.3990 hc        1 DX9      0.065200
     53 H331        9.3060   10.3950    1.3330 hc        1 DX9      0.057367
     54 H332        7.7930   10.5050    2.3290 hc        1 DX9      0.057367
     55 H333        8.9780    9.1480    2.6090 hc        1 DX9      0.057367
     56 H21         0.8730    4.6920    3.5360 ha        1 DX9      0.150500
     57 H20         2.8350    6.1090    2.9930 ha        1 DX9      0.138500
     58 H17         2.4240    1.5240    1.0410 ha        1 DX9      0.150500
     59 H18         4.4220    2.9490    0.4810 ha        1 DX9      0.138500
     60 H26         3.8320    7.1100    1.2310 h1        1 DX9      0.063700
     61 H13        -1.9680    0.7670   -1.8890 hn        1 DX9      0.487133
@<TRIPOS>BOND
     1    1    2 ar  
     2    1   10 ar  
     3    1   34 1   
     4    2    3 ar  
     5    2   14 1   
     6    3    4 ar  
     7    3   35 1   
     8    4    5 ar  
     9    4   36 1   
    10    5    6 ar  
    11    5   10 ar  
    12    6    7 ar  
    13    6   37 1   
    14    7    8 ar  
    15    7   38 1   
    16    8    9 ar  
    17    8   11 1   
    18    9   10 ar  
    19    9   39 1   
    20   11   12 2   
    21   11   13 1   
    22   12   41 1   
    23   13   42 1   
    24   13   43 1   
    25   13   61 1   
    26   14   18 1   
    27   14   44 1   
    28   14   45 1   
    29   15   16 1   
    30   15   17 1   
    31   15   18 1   
    32   18   33 1   
    33   18   46 1   
    34   19   20 1   
    35   19   23 1   
    36   19   24 1   
    37   20   21 1   
    38   20   40 1   
    39   20   47 1   
    40   21   22 1   
    41   21   32 1   
    42   21   60 1   
    43   22   23 1   
    44   22   48 1   
    45   22   52 1   
    46   23   49 1   
    47   23   50 1   
    48   24   25 2   
    49   24   26 1   
    50   25   51 1   
    51   26   53 1   
    52   26   54 1   
    53   26   55 1   
    54   27   28 ar  
    55   27   33 ar  
    56   27   56 1   
    57   28   31 ar  
    58   28   57 1   
    59   29   30 ar  
    60   29   33 ar  
    61   29   58 1   
    62   30   31 ar  
    63   30   59 1   
    64   31   32 1   
@<TRIPOS>SUBSTRUCTURE
     1 DX9         1 TEMP              0 ****  ****    0 ROOT
