@<TRIPOS>MOLECULE
DX9
   61    64     1     0     0
SMALL
bcc


@<TRIPOS>ATOM
      1 C12        -0.8750   -0.0350    1.9270 ca        1 DX9     -0.107000
      2 C13         0.4730   -0.2010    1.6960 ca        1 DX9     -0.090300
      3 C11         0.9340   -1.3680    1.0270 ca        1 DX9     -0.117000
      4 C10         0.0500   -2.3310    0.6120 ca        1 DX9     -0.118000
      5 C7         -1.3450   -2.1800    0.8410 ca        1 DX9     -0.027000
      6 C6         -2.2840   -3.1640    0.4250 ca        1 DX9     -0.117000
      7 C5         -3.6250   -2.9940    0.6610 ca        1 DX9     -0.116000
      8 C4         -4.0920   -1.8270    1.3210 ca        1 DX9     -0.198900
      9 C9         -3.2050   -0.8590    1.7340 ca        1 DX9     -0.077000
     10 C8         -1.8110   -1.0170    1.5040 ca        1 DX9     -0.046000
     11 C2         -5.5620   -1.6930    1.5760 ce        1 DX9      0.637800
     12 N2         -6.2880   -2.6040    2.1540 n2        1 DX9     -0.833100
     13 N1         -6.1050   -0.4460    1.1960 nh        1 DX9     -0.892800
     14 C14         1.4620    0.8100    2.1590 c3        1 DX9     -0.033100
     15 C22         2.6110    1.2560   -0.0060 c         1 DX9      0.645100
     16 O23         2.2420    1.6430   -1.2590 oh        1 DX9     -0.599100
     17 O24         3.5620    0.4730    0.0760 o         1 DX9     -0.558000
     18 C15         1.7710    1.8610    1.0900 c3        1 DX9     -0.051400
     19 N28         6.9230    8.0780    2.2430 nh        1 DX9     -0.777600
     20 C27         5.8230    7.2440    1.7940 c3        1 DX9      0.162800
     21 C26         4.6600    7.4040    2.8040 c3        1 DX9      0.136100
     22 C30         5.1150    8.4670    3.8120 c3        1 DX9     -0.093400
     23 C29         6.5140    8.9130    3.3600 c3        1 DX9      0.201800
     24 C31         7.8730    8.5550    1.3030 c2        1 DX9      0.621200
     25 N32         8.1140    8.0580    0.1290 n2        1 DX9     -0.837100
     26 C33         8.7400    9.7050    1.7890 c3        1 DX9     -0.136400
     27 C21         1.8500    4.2630    1.8010 ca        1 DX9     -0.099000
     28 C20         2.4990    5.3480    2.3850 ca        1 DX9     -0.151500
     29 C17         3.8000    2.8770    2.1780 ca        1 DX9     -0.099000
     30 C18         4.4650    3.9530    2.7570 ca        1 DX9     -0.151500
     31 C19         3.8060    5.1880    2.8630 ca        1 DX9      0.105100
     32 O25         4.4600    6.1990    3.5540 os        1 DX9     -0.334900
     33 C16         2.4920    3.0250    1.6970 ca        1 DX9     -0.109300
     34 H12        -1.2500    0.8590    2.4490 ha        1 DX9      0.135000
     35 H11         2.0170   -1.4770    0.8460 ha        1 DX9      0.151000
     36 H10         0.4060   -3.2360    0.0970 ha        1 DX9      0.138000
     37 H6         -1.9120   -4.0640   -0.0880 ha        1 DX9      0.138000
     38 H5         -4.3510   -3.7560    0.3400 ha        1 DX9      0.140000
     39 H9         -3.5580    0.0470    2.2520 ha        1 DX9      0.150000
     40 H227        5.4650    7.5290    0.7650 h1        1 DX9      0.054200
     41 HN21       -5.7740   -3.3980    2.4680 hn        1 DX9      0.395400
     42 HN12       -7.1010   -0.3930    1.2100 hn        1 DX9      0.397300
     43 HN11       -5.7030   -0.0860    0.3590 hn        1 DX9      0.397300
     44 H141        2.4190    0.3010    2.4550 hc        1 DX9      0.070700
     45 H142        1.0640    1.3410    3.0660 hc        1 DX9      0.070700
     46 H15         0.8030    2.2140    0.6300 hc        1 DX9      0.093700
     47 H127        6.1640    6.1710    1.7680 h1        1 DX9      0.054200
     48 H130        5.1520    8.0330    4.8420 hc        1 DX9      0.069200
     49 H129        6.4970   10.0040    3.0840 h1        1 DX9      0.044700
     50 H229        7.2590    8.7780    4.1920 h1        1 DX9      0.044700
     51 HN31        7.5360    7.3050   -0.1770 hn        1 DX9      0.383400
     52 H230        4.4050    9.3290    3.8160 hc        1 DX9      0.069200
     53 H331        9.1020    9.5090    2.8270 hc        1 DX9      0.057700
     54 H332        9.6270    9.8400    1.1230 hc        1 DX9      0.057700
     55 H333        8.1410   10.6490    1.7790 hc        1 DX9      0.057700
     56 H21         0.8240    4.3850    1.4220 ha        1 DX9      0.147000
     57 H20         1.9880    6.3160    2.4790 ha        1 DX9      0.148500
     58 H17         4.3050    1.9010    2.0820 ha        1 DX9      0.147000
     59 H18         5.4900    3.8470    3.1410 ha        1 DX9      0.148500
     60 H26         3.7120    7.6910    2.2800 h1        1 DX9      0.056700
     61 H13         2.8250    1.2250   -1.9150 ho        1 DX9      0.445000
@<TRIPOS>BOND
     1    1    2 ar  
     2    1   10 ar  
     3    1   34 1   
     4    2    3 ar  
     5    2   14 1   
     6    3    4 ar  
     7    3   35 1   
     8    4    5 ar  
     9    4   36 1   
    10    5    6 ar  
    11    5   10 ar  
    12    6    7 ar  
    13    6   37 1   
    14    7    8 ar  
    15    7   38 1   
    16    8    9 ar  
    17    8   11 1   
    18    9   10 ar  
    19    9   39 1   
    20   11   12 2   
    21   11   13 1   
    22   12   41 1   
    23   13   42 1   
    24   13   43 1   
    25   14   18 1   
    26   14   44 1   
    27   14   45 1   
    28   15   16 1   
    29   15   17 2   
    30   15   18 1   
    31   16   61 1   
    32   18   33 1   
    33   18   46 1   
    34   19   20 1   
    35   19   23 1   
    36   19   24 1   
    37   20   21 1   
    38   20   40 1   
    39   20   47 1   
    40   21   22 1   
    41   21   32 1   
    42   21   60 1   
    43   22   23 1   
    44   22   48 1   
    45   22   52 1   
    46   23   49 1   
    47   23   50 1   
    48   24   25 2   
    49   24   26 1   
    50   25   51 1   
    51   26   53 1   
    52   26   54 1   
    53   26   55 1   
    54   27   28 ar  
    55   27   33 ar  
    56   27   56 1   
    57   28   31 ar  
    58   28   57 1   
    59   29   30 ar  
    60   29   33 ar  
    61   29   58 1   
    62   30   31 ar  
    63   30   59 1   
    64   31   32 1   
@<TRIPOS>SUBSTRUCTURE
     1 DX9         1 TEMP              0 ****  ****    0 ROOT
