@<TRIPOS>MOLECULE
DX9
   60    63     1     0     0
SMALL
bcc


@<TRIPOS>ATOM
      1 C12         3.6840    0.8660    0.2300 ca        1 DX9     -0.128000
      2 C13         2.7040    1.3890    1.0490 ca        1 DX9     -0.043300
      3 C11         2.2560    0.6310    2.1660 ca        1 DX9     -0.104000
      4 C10         2.7800   -0.6090    2.4330 ca        1 DX9     -0.140000
      5 C7          3.7840   -1.1650    1.5970 ca        1 DX9     -0.039000
      6 C6          4.3400   -2.4510    1.8420 ca        1 DX9     -0.122000
      7 C5          5.2950   -2.9740    1.0070 ca        1 DX9     -0.128000
      8 C4          5.7460   -2.2250   -0.1120 ca        1 DX9     -0.162900
      9 C9          5.2440   -0.9680   -0.3610 ca        1 DX9     -0.067000
     10 C8          4.2410   -0.4150    0.4830 ca        1 DX9     -0.040000
     11 C2          6.7710   -2.8240   -1.0240 ce        1 DX9      0.649800
     12 N2          7.8730   -2.1750   -1.2480 n2        1 DX9     -0.822100
     13 N1          6.4290   -4.1140   -1.5050 nh        1 DX9     -0.952800
     14 C14         2.1240    2.7340    0.7840 c3        1 DX9     -0.026100
     15 C22         1.0780    4.2830   -0.8690 c         1 DX9      0.923600
     16 O23         0.6860    5.0970    0.0130 o         1 DX9     -0.828800
     17 O24         1.3790    4.5830   -2.0540 o         1 DX9     -0.828800
     18 C15         1.2430    2.7810   -0.4590 c3        1 DX9     -0.160400
     19 N28        -6.4390   -1.6120    0.0710 nh        1 DX9     -0.716600
     20 C27        -5.9470   -0.2790   -0.2550 c3        1 DX9      0.188800
     21 C26        -4.4200   -0.3770   -0.4980 c3        1 DX9      0.132100
     22 C30        -4.0690   -1.8680   -0.3920 c3        1 DX9     -0.119400
     23 C29        -5.3830   -2.6030   -0.0980 c3        1 DX9      0.194800
     24 C31        -7.7580   -1.9840   -0.2680 c2        1 DX9      0.607200
     25 N32        -8.6350   -1.1040   -0.6620 n2        1 DX9     -0.848100
     26 C33        -8.0820   -3.4540   -0.0460 c3        1 DX9     -0.186400
     27 C21        -0.4090    0.9320   -0.8580 ca        1 DX9     -0.108500
     28 C20        -1.6450    0.3240   -0.6400 ca        1 DX9     -0.176000
     29 C17        -1.0300    2.7510    0.6070 ca        1 DX9     -0.108500
     30 C18        -2.2680    2.1620    0.8310 ca        1 DX9     -0.176000
     31 C19        -2.5670    0.9390    0.2090 ca        1 DX9      0.070100
     32 O25        -3.7940    0.3710    0.5440 os        1 DX9     -0.335900
     33 C16        -0.0820    2.1400   -0.2320 ca        1 DX9     -0.037300
     34 H12         4.0400    1.4410   -0.6390 ha        1 DX9      0.147000
     35 H11         1.4710    1.0580    2.8100 ha        1 DX9      0.139000
     36 H10         2.4290   -1.1940    3.2960 ha        1 DX9      0.122000
     37 H6          3.9870   -3.0190    2.7160 ha        1 DX9      0.125000
     38 H5          5.7290   -3.9660    1.2000 ha        1 DX9      0.131000
     39 H9          5.6070   -0.3710   -1.2120 ha        1 DX9      0.146000
     40 H227       -6.4390    0.1530   -1.1680 h1        1 DX9      0.072200
     41 HN21        8.5210   -2.6070   -1.8730 hn        1 DX9      0.372400
     42 HN12        5.4640   -4.3400   -1.4260 hn        1 DX9      0.390300
     43 HN11        6.8260   -4.3700   -2.3800 hn        1 DX9      0.390300
     44 H141        1.5240    3.0910    1.6630 hc        1 DX9      0.062700
     45 H142        2.9630    3.4690    0.6380 hc        1 DX9      0.062700
     46 H15         1.7730    2.2610   -1.3040 hc        1 DX9      0.049700
     47 H127       -6.1610    0.3940    0.6210 h1        1 DX9      0.072200
     48 H130       -3.6190   -2.2380   -1.3450 hc        1 DX9      0.063200
     49 H129       -5.3030   -3.1890    0.8590 h1        1 DX9      0.035200
     50 H229       -5.6130   -3.3290   -0.9260 h1        1 DX9      0.035200
     51 HN31       -9.5550   -1.4760   -0.7620 hn        1 DX9      0.379400
     52 H230       -3.3330   -2.0300    0.4330 hc        1 DX9      0.063200
     53 H331       -7.6060   -3.8380    0.8890 hc        1 DX9      0.050700
     54 H332       -9.1850   -3.6060    0.0400 hc        1 DX9      0.050700
     55 H333       -7.7080   -4.0530   -0.9120 hc        1 DX9      0.050700
     56 H21         0.3160    0.4550   -1.5350 ha        1 DX9      0.156500
     57 H20        -1.8870   -0.6280   -1.1310 ha        1 DX9      0.124000
     58 H17        -0.7770    3.7350    1.0470 ha        1 DX9      0.156500
     59 H18        -3.0130    2.6380    1.4830 ha        1 DX9      0.124000
     60 H26        -4.1460    0.0410   -1.5020 h1        1 DX9      0.066700
@<TRIPOS>BOND
     1    1    2 ar  
     2    1   10 ar  
     3    1   34 1   
     4    2    3 ar  
     5    2   14 1   
     6    3    4 ar  
     7    3   35 1   
     8    4    5 ar  
     9    4   36 1   
    10    5    6 ar  
    11    5   10 ar  
    12    6    7 ar  
    13    6   37 1   
    14    7    8 ar  
    15    7   38 1   
    16    8    9 ar  
    17    8   11 1   
    18    9   10 ar  
    19    9   39 1   
    20   11   12 2   
    21   11   13 1   
    22   12   41 1   
    23   13   42 1   
    24   13   43 1   
    25   14   18 1   
    26   14   44 1   
    27   14   45 1   
    28   15   16 1   
    29   15   17 1   
    30   15   18 1   
    31   18   33 1   
    32   18   46 1   
    33   19   20 1   
    34   19   23 1   
    35   19   24 1   
    36   20   21 1   
    37   20   40 1   
    38   20   47 1   
    39   21   22 1   
    40   21   32 1   
    41   21   60 1   
    42   22   23 1   
    43   22   48 1   
    44   22   52 1   
    45   23   49 1   
    46   23   50 1   
    47   24   25 2   
    48   24   26 1   
    49   25   51 1   
    50   26   53 1   
    51   26   54 1   
    52   26   55 1   
    53   27   28 ar  
    54   27   33 ar  
    55   27   56 1   
    56   28   31 ar  
    57   28   57 1   
    58   29   30 ar  
    59   29   33 ar  
    60   29   58 1   
    61   30   31 ar  
    62   30   59 1   
    63   31   32 1   
@<TRIPOS>SUBSTRUCTURE
     1 DX9         1 TEMP              0 ****  ****    0 ROOT
