@<TRIPOS>MOLECULE
DX9
   60    52     1     0     0
SMALL
bcc


@<TRIPOS>ATOM
      1 C12        -1.3480   -2.6150   -3.0020 c1        1 DX9     -0.141000
      2 C13        -0.3390   -2.1660   -2.1530 c1        1 DX9     -0.030000
      3 C11        -0.2740   -2.6320   -0.8370 c1        1 DX9     -0.132750
      4 C10        -1.2190   -3.5460   -0.3740 c1        1 DX9     -0.132750
      5 C7         -2.2400   -4.0000   -1.2320 c1        1 DX9     -0.038500
      6 C6         -3.2550   -4.8410   -0.7330 c1        1 DX9     -0.093500
      7 C5         -4.3210   -5.2070   -1.5500 c1        1 DX9     -0.136000
      8 C4         -4.3850   -4.7410   -2.8650 c1        1 DX9     -0.139000
      9 C9         -3.3830   -3.9100   -3.3600 c1        1 DX9     -0.093500
     10 C8         -2.3030   -3.5390   -2.5340 c1        1 DX9     -0.038500
     11 C2         -5.6120   -4.6280   -3.7540 c2        1 DX9      0.126000
     12 N2         -6.5600   -3.7620   -3.4630 n1        1 DX9     -0.325000
     13 N1         -5.7370   -5.4630   -4.9080 n3        1 DX9     -0.337000
     14 C14        -1.4520   -1.1090   -2.2070 c3        1 DX9     -0.098000
     15 C22        -0.1620    0.7030   -3.2910 c1        1 DX9      0.339000
     16 O23        -0.6750    1.5950   -4.0120 o         1 DX9     -0.548000
     17 O24         0.9590    0.1970   -3.6090 os        1 DX9     -0.586000
     18 C15        -0.8460    0.2770   -2.0200 c3        1 DX9     -0.154000
     19 N28         3.4340    4.1400    3.9100 n3        1 DX9     -0.304000
     20 C27         3.0180    4.2050    2.6700 c3        1 DX9     -0.071000
     21 C26         3.1420    2.6950    2.0660 c3        1 DX9      0.024000
     22 C30         4.2320    2.1920    2.5710 c3        1 DX9     -0.169000
     23 C29         4.4320    2.9420    3.9360 c3        1 DX9     -0.047000
     24 C31         3.3550    5.1890    4.8780 c2        1 DX9      0.110000
     25 N32         2.6500    5.0200    5.9770 n1        1 DX9     -0.325000
     26 C33         4.0860    6.5040    4.6370 c3        1 DX9     -0.180000
     27 C21         1.4260   -0.1850   -0.5120 c1        1 DX9     -0.099000
     28 C20         2.0380    0.3710    0.5990 c1        1 DX9     -0.162000
     29 C17        -0.4900    1.2240   -0.1590 c1        1 DX9     -0.132750
     30 C18         0.1220    1.7800    0.9520 c1        1 DX9     -0.132750
     31 C19         1.3860    1.3550    1.3320 c1        1 DX9      0.010000
     32 O25         1.9950    1.9010    2.4670 os        1 DX9     -0.230000
     33 C16         0.1620    0.2390   -0.8920 c1        1 DX9     -0.019000
     34 H12        -1.3940   -2.2870   -3.9290 ha        1 DX9      0.126000
     35 H11         0.4340   -2.3170   -0.2420 ha        1 DX9      0.147250
     36 H10        -1.1710   -3.8750    0.5510 ha        1 DX9      0.147250
     37 H6         -3.2100   -5.1700    0.1920 ha        1 DX9      0.133500
     38 H5         -5.0250   -5.7910   -1.2040 ha        1 DX9      0.124000
     39 H9         -3.4280   -3.5820   -4.2830 ha        1 DX9      0.133500
     40 H227        2.0800    4.5040    2.6430 h1        1 DX9      0.098500
     41 HN21       -6.4800   -3.2270   -2.7230 DU        1 DX9      0.140000
     42 HN12       -6.1050   -5.1270   -5.6800 hn        1 DX9      0.189000
     43 HN11       -5.4850   -6.3420   -4.8660 hn        1 DX9      0.189000
     44 H141       -2.1030   -1.2810   -1.4900 hc        1 DX9      0.081000
     45 H142       -1.9040   -1.1530   -3.0780 hc        1 DX9      0.081000
     46 H15        -1.5570    0.9180   -1.8020 hc        1 DX9      0.095000
     47 H127        3.5830    4.8200    2.1580 h1        1 DX9      0.098500
     48 H130        4.1230    1.2250    2.7240 hc        1 DX9      0.102500
     49 H129        5.3480    3.2690    4.0090 h1        1 DX9      0.076500
     50 H229        4.2240    2.3410    4.6890 h1        1 DX9      0.076500
     51 HN31        2.2110    4.2300    6.1220 DU        1 DX9      0.140000
     52 H230        4.9920    2.3590    1.9750 hc        1 DX9      0.102500
     53 H331        4.2160    6.9690    5.4920 hc        1 DX9      0.097667
     54 H332        4.9600    6.3220    4.2270 hc        1 DX9      0.097667
     55 H333        3.5520    7.0710    4.0330 hc        1 DX9      0.097667
     56 H21         1.8860   -0.8800   -1.0290 ha        1 DX9      0.191000
     57 H20         2.9370    0.0780    0.8620 ha        1 DX9      0.125000
     58 H17        -1.3820    1.5380   -0.4380 ha        1 DX9      0.147250
     59 H18        -0.3410    2.4780    1.4720 ha        1 DX9      0.147250
     60 H26         3.2060    2.7270    1.0860 h1        1 DX9      0.104000
@<TRIPOS>BOND
     1    1    2 1   
     2    1   34 1   
     3    2   14 1   
     4    3    4 1   
     5    3   35 1   
     6    4   36 1   
     7    5    6 1   
     8    5   10 1   
     9    6   37 1   
    10    7    8 1   
    11    7   38 1   
    12    8   11 1   
    13    9   10 1   
    14    9   39 1   
    15   11   12 1   
    16   11   13 1   
    17   13   42 1   
    18   13   43 1   
    19   14   18 1   
    20   14   44 1   
    21   14   45 1   
    22   15   16 1   
    23   15   18 1   
    24   18   33 1   
    25   18   46 1   
    26   19   20 1   
    27   19   23 1   
    28   19   24 1   
    29   20   21 1   
    30   20   40 1   
    31   20   47 1   
    32   21   22 1   
    33   21   32 1   
    34   21   60 1   
    35   22   23 1   
    36   22   48 1   
    37   22   52 1   
    38   23   49 1   
    39   23   50 1   
    40   24   25 1   
    41   24   26 1   
    42   26   53 1   
    43   26   54 1   
    44   26   55 1   
    45   27   33 1   
    46   27   56 1   
    47   28   31 1   
    48   28   57 1   
    49   29   30 1   
    50   29   58 1   
    51   30   59 1   
    52   31   32 1   
@<TRIPOS>SUBSTRUCTURE
     1 DX9         1 TEMP              0 ****  ****    0 ROOT
