@<TRIPOS>MOLECULE
DXA
   61    63     1     0     0
SMALL
bcc


@<TRIPOS>ATOM
      1 C1         -2.1800   -0.4190   -0.5450 c         1 DXA      0.602700
      2 O1         -3.3430   -0.6840   -0.1900 o         1 DXA     -0.586100
      3 C9A        -1.1010   -0.1620    0.4180 ca        1 DXA     -0.284600
      4 C2         -1.8590   -0.3830   -2.0120 c3        1 DXA     -0.174400
      5 C3         -0.7220    0.5640   -2.3300 c3        1 DXA     -0.078700
      6 C4          0.5030    0.1820   -1.5180 c3        1 DXA     -0.046100
      7 C4A         0.2100    0.1500   -0.0580 ca        1 DXA     -0.000300
      8 C10         1.2290    0.4100    0.8220 ca        1 DXA     -0.175000
      9 C5A         1.0260    0.3630    2.2290 ca        1 DXA      0.039000
     10 C5          2.0920    0.6550    3.1140 ca        1 DXA     -0.172000
     11 C6          1.9000    0.6150    4.4750 ca        1 DXA     -0.067000
     12 C7          0.6490    0.2620    5.0260 ca        1 DXA     -0.122300
     13 C8         -0.4110   -0.0330    4.1650 ca        1 DXA      0.174100
     14 O8         -1.6100   -0.3260    4.7680 oh        1 DXA     -0.502100
     15 C8A        -0.2510    0.0300    2.7450 ca        1 DXA     -0.133000
     16 C9         -1.3120   -0.2080    1.7990 ca        1 DXA      0.253100
     17 O9         -2.5170   -0.4680    2.3810 oh        1 DXA     -0.526100
     18 CME        -2.0690    2.1150   -4.5620 c3        1 DXA      0.109700
     19 C6'         0.4790    0.2180    6.5130 c3        1 DXA     -0.017400
     20 C1'        -0.3960    0.5840   -3.8280 c3        1 DXA      0.051100
     21 O1'        -1.5620    0.7920   -4.6250 os        1 DXA     -0.398600
     22 C2'         0.1990   -0.7330   -4.3060 c         1 DXA      0.545100
     23 O2'        -0.4340   -1.7850   -4.3760 o         1 DXA     -0.485100
     24 C3'         1.6640   -0.6660   -4.6960 c3        1 DXA      0.008100
     25 O3'         2.2490   -1.9520   -4.7190 oh        1 DXA     -0.586800
     26 C4'         1.8240    0.0110   -6.0780 c3        1 DXA      0.117100
     27 O4'         2.2790   -0.9410   -7.0210 oh        1 DXA     -0.588800
     28 C5'         2.7610    1.2000   -5.9940 c3        1 DXA     -0.129100
     29 C7'         0.5280    1.6210    7.0890 c3        1 DXA     -0.085100
     30 C8'         1.5380   -0.6770    7.1520 c3        1 DXA     -0.075400
     31 C9'         1.1250   -1.1560    8.5200 c3        1 DXA     -0.092100
     32 H21        -2.7750   -0.0840   -2.5900 hc        1 DXA      0.097700
     33 H22        -1.5960   -1.4290   -2.3390 hc        1 DXA      0.097700
     34 H3         -1.0340    1.6090   -2.0440 hc        1 DXA      0.065700
     35 H4A         1.3340    0.9070   -1.7280 hc        1 DXA      0.060200
     36 H4E         0.8610   -0.8390   -1.8330 hc        1 DXA      0.060200
     37 H10         2.2360    0.6600    0.4540 ha        1 DXA      0.138000
     38 H5          3.0740    0.9170    2.6930 ha        1 DXA      0.138000
     39 H6          2.7290    0.8510    5.1620 ha        1 DXA      0.140000
     40 HO8        -2.0810   -0.9900    4.2430 ho        1 DXA      0.443000
     41 HO9        -3.2220   -0.5880    1.7220 ho        1 DXA      0.478000
     42 H11        -2.8940    2.1220   -5.3190 h1        1 DXA      0.041033
     43 H12        -2.4720    2.3350   -3.5430 h1        1 DXA      0.041033
     44 H13        -1.2810    2.8600   -4.8340 h1        1 DXA      0.041033
     45 H6'        -0.5350   -0.2200    6.7460 hc        1 DXA      0.076700
     46 H1'         0.3430    1.4150   -4.0250 h1        1 DXA      0.049700
     47 H3'         2.2400   -0.1100   -3.9020 h1        1 DXA      0.092700
     48 HO3         1.6840   -2.5170   -5.2700 ho        1 DXA      0.431000
     49 H4'         0.8190    0.3320   -6.4780 h1        1 DXA      0.089700
     50 HO4         3.1400   -1.2610   -6.7180 ho        1 DXA      0.414000
     51 H51         2.9020    1.6400   -7.0110 hc        1 DXA      0.048033
     52 H52         2.3360    1.9790   -5.3180 hc        1 DXA      0.048033
     53 H53         3.7590    0.8870   -5.6030 hc        1 DXA      0.048033
     54 H71         1.5090    2.1060    6.8650 hc        1 DXA      0.035700
     55 H72        -0.2850    2.2470    6.6500 hc        1 DXA      0.035700
     56 H73         0.3940    1.5860    8.1970 hc        1 DXA      0.035700
     57 H81         2.5070   -0.1170    7.2260 hc        1 DXA      0.039700
     58 H82         1.7170   -1.5650    6.4890 hc        1 DXA      0.039700
     59 H91         1.9220   -1.8060    8.9560 hc        1 DXA      0.034033
     60 H92         0.9560   -0.2950    9.2100 hc        1 DXA      0.034033
     61 H93         0.1790   -1.7490    8.4620 hc        1 DXA      0.034033
@<TRIPOS>BOND
     1    1    2 2   
     2    1    3 1   
     3    1    4 1   
     4    3    7 ar  
     5    3   16 ar  
     6    4    5 1   
     7    4   32 1   
     8    4   33 1   
     9    5    6 1   
    10    5   20 1   
    11    5   34 1   
    12    6    7 1   
    13    6   35 1   
    14    6   36 1   
    15    7    8 ar  
    16    8    9 ar  
    17    8   37 1   
    18    9   10 ar  
    19    9   15 ar  
    20   10   11 ar  
    21   10   38 1   
    22   11   12 ar  
    23   11   39 1   
    24   12   13 ar  
    25   12   19 1   
    26   13   14 1   
    27   13   15 ar  
    28   14   40 1   
    29   15   16 ar  
    30   16   17 1   
    31   17   41 1   
    32   18   21 1   
    33   18   42 1   
    34   18   43 1   
    35   18   44 1   
    36   19   29 1   
    37   19   30 1   
    38   19   45 1   
    39   20   21 1   
    40   20   22 1   
    41   20   46 1   
    42   22   23 2   
    43   22   24 1   
    44   24   25 1   
    45   24   26 1   
    46   24   47 1   
    47   25   48 1   
    48   26   27 1   
    49   26   28 1   
    50   26   49 1   
    51   27   50 1   
    52   28   51 1   
    53   28   52 1   
    54   28   53 1   
    55   29   54 1   
    56   29   55 1   
    57   29   56 1   
    58   30   31 1   
    59   30   57 1   
    60   30   58 1   
    61   31   59 1   
    62   31   60 1   
    63   31   61 1   
@<TRIPOS>SUBSTRUCTURE
     1 DXA         1 TEMP              0 ****  ****    0 ROOT
