@<TRIPOS>MOLECULE
DXA
   61    58     1     0     0
SMALL
bcc


@<TRIPOS>ATOM
      1 C1         -2.4640   -1.0580   -1.0380 c1        1 DXA      0.295000
      2 O1         -3.0060   -1.2270   -2.0610 o         1 DXA     -0.350000
      3 C9A        -0.9120   -1.3640   -0.9010 c1        1 DXA     -0.265000
      4 C2         -3.0870   -0.2460   -0.0140 c3        1 DXA     -0.201000
      5 C3         -2.5580   -0.5350    1.3590 c3        1 DXA     -0.099000
      6 C4         -1.1200   -0.4820    1.5410 c3        1 DXA     -0.131000
      7 C4A        -0.2380   -0.9900    0.3580 c2        1 DXA      0.011000
      8 C10         1.1510   -0.8560    0.3940 c1        1 DXA     -0.174000
      9 C5A         1.9250   -1.0830   -0.7970 c1        1 DXA      0.041000
     10 C5          3.2930   -0.7350   -0.8040 c1        1 DXA     -0.171000
     11 C6          4.0200   -0.7450   -2.0190 c1        1 DXA     -0.067000
     12 C7          3.3770   -1.1030   -3.2250 c1        1 DXA     -0.116000
     13 C8          2.0070   -1.4520   -3.2210 c1        1 DXA      0.129000
     14 O8          1.3570   -1.1270   -4.4860 oh        1 DXA     -0.257000
     15 C8A         1.2780   -1.4430   -2.0070 c1        1 DXA     -0.134000
     16 C9         -0.1650   -1.5820   -2.0460 c1        1 DXA      0.208000
     17 O9         -0.8340   -1.5400   -3.2780 oh        1 DXA     -0.280000
     18 CME        -3.0990    2.6070    1.4980 c3        1 DXA     -0.080000
     19 C6'         4.1970   -0.9960   -4.5210 c3        1 DXA     -0.065000
     20 C1'        -3.2200    0.5250    2.3790 c3        1 DXA     -0.018000
     21 O1'        -2.5500    1.6390    2.3430 os        1 DXA     -0.277000
     22 C2'        -3.1790   -0.0320    3.7780 c2        1 DXA      0.191000
     23 O2'        -2.7090   -1.0970    3.9750 o         1 DXA     -0.275000
     24 C3'        -3.8430    0.7320    4.9210 c3        1 DXA     -0.037000
     25 O3'        -4.3260   -0.1920    5.8960 oh        1 DXA     -0.319000
     26 C4'        -2.8460    1.6610    5.5640 c3        1 DXA      0.016000
     27 O4'        -1.9040    0.9250    6.2500 oh        1 DXA     -0.325000
     28 C5'        -3.5910    2.6120    6.5570 c3        1 DXA     -0.244000
     29 C7'         5.0260   -2.2600   -4.7040 c3        1 DXA     -0.205000
     30 C8'         5.1020    0.1920   -4.4410 c3        1 DXA     -0.152000
     31 C9'         5.7040    0.4750   -5.8300 c3        1 DXA     -0.211000
     32 H21        -2.9860    0.7260   -0.2440 hc        1 DXA      0.117000
     33 H22        -4.0700   -0.3410   -0.0310 hc        1 DXA      0.117000
     34 H3         -2.8690   -1.4500    1.6220 hc        1 DXA      0.127000
     35 H4A        -0.8810    0.4180    1.7190 hc        1 DXA      0.109000
     36 H4E        -0.9050   -1.0020    2.3060 hc        1 DXA      0.109000
     37 H10         1.5860   -0.4910    1.1950 ha        1 DXA      0.143000
     38 H5          3.7360   -0.4900    0.0230 ha        1 DXA      0.140000
     39 H6          4.9690   -0.5030   -2.0250 ha        1 DXA      0.139000
     40 HO8         1.2000   -1.8990   -4.9520 ho        1 DXA      0.241000
     41 HO9        -1.1620   -0.7150   -3.4130 ho        1 DXA      0.275000
     42 H11        -3.9470    2.8890    1.8430 h1        1 DXA      0.081000
     43 H12        -3.2250    2.2210    0.5780 h1        1 DXA      0.081000
     44 H13        -2.4790    3.3950    1.4490 h1        1 DXA      0.081000
     45 H6'         3.5970   -0.8920   -5.2740 hc        1 DXA      0.116000
     46 H1'        -4.1750    0.6960    2.1130 h1        1 DXA      0.117000
     47 H3'        -4.5790    1.2490    4.5740 h1        1 DXA      0.136000
     48 HO3        -5.2270   -0.1550    5.9270 ho        1 DXA      0.227000
     49 H4'        -2.3990    2.1970    4.8670 h1        1 DXA      0.124000
     50 HO4        -1.2650    1.4740    6.5610 ho        1 DXA      0.211000
     51 H51        -3.6650    2.1730    7.4420 hc        1 DXA      0.088667
     52 H52        -4.5130    2.8090    6.2040 hc        1 DXA      0.088667
     53 H53        -3.0760    3.4720    6.6500 hc        1 DXA      0.088667
     54 H71         5.2150   -2.3970   -5.6790 hc        1 DXA      0.074000
     55 H72         5.9080   -2.1660   -4.1950 hc        1 DXA      0.074000
     56 H73         4.5120   -3.0550   -4.3460 hc        1 DXA      0.074000
     57 H81         4.5740    0.9910   -4.1350 hc        1 DXA      0.080000
     58 H82         5.8190    0.0130   -3.8070 hc        1 DXA      0.080000
     59 H91         4.9980    0.3690   -6.5250 hc        1 DXA      0.073000
     60 H92         6.4610   -0.1790   -6.0120 hc        1 DXA      0.073000
     61 H93         6.0630    1.4210   -5.8540 hc        1 DXA      0.073000
@<TRIPOS>BOND
     1    1    2 1   
     2    1    4 1   
     3    3    7 1   
     4    3   16 1   
     5    4    5 1   
     6    4   32 1   
     7    4   33 1   
     8    5    6 1   
     9    5   20 1   
    10    5   34 1   
    11    6    7 1   
    12    6   35 1   
    13    6   36 1   
    14    7    8 1   
    15    8   37 1   
    16    9   10 1   
    17    9   15 1   
    18   10   38 1   
    19   11   12 1   
    20   11   39 1   
    21   12   19 1   
    22   13   14 1   
    23   13   15 1   
    24   14   40 1   
    25   16   17 1   
    26   17   41 1   
    27   18   21 1   
    28   18   42 1   
    29   18   43 1   
    30   18   44 1   
    31   19   29 1   
    32   19   30 1   
    33   19   45 1   
    34   20   21 1   
    35   20   22 1   
    36   20   46 1   
    37   22   23 1   
    38   22   24 1   
    39   24   25 1   
    40   24   26 1   
    41   24   47 1   
    42   25   48 1   
    43   26   27 1   
    44   26   28 1   
    45   26   49 1   
    46   27   50 1   
    47   28   51 1   
    48   28   52 1   
    49   28   53 1   
    50   29   54 1   
    51   29   55 1   
    52   29   56 1   
    53   30   31 1   
    54   30   57 1   
    55   30   58 1   
    56   31   59 1   
    57   31   60 1   
    58   31   61 1   
@<TRIPOS>SUBSTRUCTURE
     1 DXA         1 TEMP              0 ****  ****    0 ROOT
