@<TRIPOS>MOLECULE
DXA
   61    63     1     0     0
SMALL
bcc


@<TRIPOS>ATOM
      1 C1          0.0490   -0.0510   -0.0500 c         1 DXA      0.601700
      2 O1         -0.6390   -0.2930   -1.0580 o         1 DXA     -0.586100
      3 C9A         1.5150    0.0350   -0.0990 ca        1 DXA     -0.283600
      4 C2         -0.6380    0.1740    1.2660 c3        1 DXA     -0.174400
      5 C3          0.2080   -0.2820    2.4350 c3        1 DXA     -0.077700
      6 C4          1.5460    0.4330    2.4090 c3        1 DXA     -0.047100
      7 C4A         2.2490    0.2540    1.1070 ca        1 DXA      0.001700
      8 C10         3.6180    0.3350    1.0850 ca        1 DXA     -0.176000
      9 C5A         4.3510    0.1990   -0.1260 ca        1 DXA      0.039000
     10 C5          5.7630    0.3120   -0.1220 ca        1 DXA     -0.172000
     11 C6          6.4760    0.1860   -1.2900 ca        1 DXA     -0.067000
     12 C7          5.8300   -0.0820   -2.5160 ca        1 DXA     -0.123300
     13 C8          4.4380   -0.2010   -2.5350 ca        1 DXA      0.175100
     14 O8          3.8710   -0.4200   -3.7680 oh        1 DXA     -0.502100
     15 C8A         3.6650   -0.0430   -1.3420 ca        1 DXA     -0.133000
     16 C9          2.2260   -0.0970   -1.2960 ca        1 DXA      0.251100
     17 O9          1.6410   -0.2820   -2.5130 oh        1 DXA     -0.527100
     18 CME        -1.8600   -2.0150    3.8240 c3        1 DXA      0.109700
     19 C6'         6.6430   -0.2290   -3.7650 c3        1 DXA     -0.018400
     20 C1'        -0.5020   -0.0570    3.7760 c3        1 DXA      0.049100
     21 O1'        -1.8220   -0.5980    3.7760 os        1 DXA     -0.395600
     22 C2'        -0.6590    1.4240    4.0990 c         1 DXA      0.545100
     23 O2'        -1.4140    2.1760    3.4870 o         1 DXA     -0.478100
     24 C3'         0.2250    1.9270    5.2300 c3        1 DXA      0.054100
     25 O3'         0.4430    3.3150    5.1180 oh        1 DXA     -0.579800
     26 C4'        -0.3930    1.5630    6.5960 c3        1 DXA      0.116100
     27 O4'        -1.4530    2.4880    6.7960 oh        1 DXA     -0.599800
     28 C5'         0.6480    1.6560    7.6940 c3        1 DXA     -0.132100
     29 C7'         7.5840   -1.4140   -3.6500 c3        1 DXA     -0.086100
     30 C8'         7.4060    1.0600   -4.0560 c3        1 DXA     -0.073400
     31 C9'         7.8920    1.1260   -5.4810 c3        1 DXA     -0.093100
     32 H21        -1.6230   -0.3670    1.2760 hc        1 DXA      0.098200
     33 H22        -0.8690    1.2720    1.3590 hc        1 DXA      0.098200
     34 H3          0.3880   -1.3910    2.3370 hc        1 DXA      0.063700
     35 H4A         1.3890    1.5360    2.5800 hc        1 DXA      0.061700
     36 H4E         2.1910    0.0540    3.2470 hc        1 DXA      0.061700
     37 H10         4.1820    0.5140    2.0130 ha        1 DXA      0.138000
     38 H5          6.2750    0.5080    0.8310 ha        1 DXA      0.138000
     39 H6          7.5740    0.2860   -1.2850 ha        1 DXA      0.139000
     40 HO8         3.0890   -0.9820   -3.6680 ho        1 DXA      0.443000
     41 HO9         0.6720   -0.2180   -2.4650 ho        1 DXA      0.478000
     42 H11        -1.2870   -2.4020    4.7020 h1        1 DXA      0.039700
     43 H12        -1.4560   -2.4530    2.8780 h1        1 DXA      0.039700
     44 H13        -2.9490   -2.2510    3.9290 h1        1 DXA      0.039700
     45 H6'         5.9440   -0.4220   -4.6310 hc        1 DXA      0.077700
     46 H1'         0.1040   -0.5530    4.5890 h1        1 DXA      0.045700
     47 H3'         1.2510    1.4670    5.1430 h1        1 DXA      0.088700
     48 HO3        -0.4250    3.7460    5.1610 ho        1 DXA      0.436000
     49 H4'        -0.8210    0.5210    6.5480 h1        1 DXA      0.043700
     50 HO4        -1.7230    2.4170    7.7190 ho        1 DXA      0.413000
     51 H51         0.1780    1.4710    8.6900 hc        1 DXA      0.050700
     52 H52         1.4500    0.8990    7.5300 hc        1 DXA      0.050700
     53 H53         1.1060    2.6750    7.6950 hc        1 DXA      0.050700
     54 H71         8.3170   -1.2610   -2.8210 hc        1 DXA      0.034367
     55 H72         8.1490   -1.5480   -4.6030 hc        1 DXA      0.034367
     56 H73         7.0070   -2.3470   -3.4450 hc        1 DXA      0.034367
     57 H81         6.7310    1.9340   -3.8570 hc        1 DXA      0.040700
     58 H82         8.2770    1.1440   -3.3550 hc        1 DXA      0.040700
     59 H91         8.4200    2.0930   -5.6610 hc        1 DXA      0.034033
     60 H92         8.6020    0.2920   -5.7020 hc        1 DXA      0.034033
     61 H93         7.0350    1.0540   -6.1950 hc        1 DXA      0.034033
@<TRIPOS>BOND
     1    1    2 2   
     2    1    3 1   
     3    1    4 1   
     4    3    7 ar  
     5    3   16 ar  
     6    4    5 1   
     7    4   32 1   
     8    4   33 1   
     9    5    6 1   
    10    5   20 1   
    11    5   34 1   
    12    6    7 1   
    13    6   35 1   
    14    6   36 1   
    15    7    8 ar  
    16    8    9 ar  
    17    8   37 1   
    18    9   10 ar  
    19    9   15 ar  
    20   10   11 ar  
    21   10   38 1   
    22   11   12 ar  
    23   11   39 1   
    24   12   13 ar  
    25   12   19 1   
    26   13   14 1   
    27   13   15 ar  
    28   14   40 1   
    29   15   16 ar  
    30   16   17 1   
    31   17   41 1   
    32   18   21 1   
    33   18   42 1   
    34   18   43 1   
    35   18   44 1   
    36   19   29 1   
    37   19   30 1   
    38   19   45 1   
    39   20   21 1   
    40   20   22 1   
    41   20   46 1   
    42   22   23 2   
    43   22   24 1   
    44   24   25 1   
    45   24   26 1   
    46   24   47 1   
    47   25   48 1   
    48   26   27 1   
    49   26   28 1   
    50   26   49 1   
    51   27   50 1   
    52   28   51 1   
    53   28   52 1   
    54   28   53 1   
    55   29   54 1   
    56   29   55 1   
    57   29   56 1   
    58   30   31 1   
    59   30   57 1   
    60   30   58 1   
    61   31   59 1   
    62   31   60 1   
    63   31   61 1   
@<TRIPOS>SUBSTRUCTURE
     1 DXA         1 TEMP              0 ****  ****    0 ROOT
