@<TRIPOS>MOLECULE
DXA
   61    62     1     0     0
SMALL
bcc


@<TRIPOS>ATOM
      1 C1          0.1780    0.0560   -0.0560 c2        1 DXA      0.276000
      2 O1         -0.0840   -0.9060   -0.7870 o         1 DXA     -0.289000
      3 C9A         1.5320    0.6190    0.0980 ca        1 DXA     -0.214000
      4 C2         -0.8970    0.7130    0.7680 c3        1 DXA     -0.206000
      5 C3         -0.4090    0.9060    2.2000 c3        1 DXA     -0.030000
      6 C4          0.7750    1.8650    2.1740 c3        1 DXA     -0.135000
      7 C4A         1.8320    1.4560    1.2070 ca        1 DXA      0.017000
      8 C10         3.1150    1.9250    1.3870 ca        1 DXA     -0.192000
      9 C5A         4.1490    1.6220    0.4660 ca        1 DXA      0.045000
     10 C5          5.4610    2.1280    0.6830 ca        1 DXA     -0.168000
     11 C6          6.4700    1.8700   -0.2110 ca        1 DXA     -0.070000
     12 C7          6.2150    1.1030   -1.3650 ca        1 DXA     -0.243000
     13 C8          4.9460    0.5990   -1.5910 ca        1 DXA      0.118000
     14 O8          4.6700   -0.1400   -2.7190 oh        1 DXA     -0.285000
     15 C8A         3.8680    0.8250   -0.6760 ca        1 DXA     -0.135000
     16 C9          2.5360    0.3200   -0.8310 ca        1 DXA      0.190000
     17 O9          2.1320   -0.4300   -1.8970 oh        1 DXA     -0.223000
     18 C6'         7.6400   -1.0500   -4.2710 cx        1 DXA     -0.181000
     19 C1'        -1.5060    1.3490    3.0760 c2        1 DXA     -0.413000
     20 O1'        -2.4320   -0.4400    3.4470 oh        1 DXA      0.010000
     21 C2'        -1.3290    1.7780    4.4370 c2        1 DXA      0.247000
     22 O2'        -2.1660    2.4730    5.0410 o         1 DXA     -0.338000
     23 C3'        -0.1440    1.2060    5.2310 c3        1 DXA     -0.049000
     24 O3'         0.6710    2.3040    5.5910 oh        1 DXA     -0.291000
     25 C4'        -0.6810    0.4410    6.4610 c3        1 DXA     -0.015000
     26 O4'        -1.1500   -0.8340    6.0270 oh        1 DXA     -0.359000
     27 C5'         0.3480    0.3030    7.5610 c3        1 DXA     -0.253000
     28 C7'         6.8070   -2.2690   -4.4570 c3        1 DXA     -0.193000
     29 C8'         7.2520    0.2370   -4.9550 cx        1 DXA     -0.215500
     30 C9'         8.4580   -0.5220   -5.4200 cx        1 DXA     -0.215500
     31 H21        -2.4070    1.7400    2.5770 ha        1 DXA      0.142000
     32 H22        -1.8280    0.0890    0.7540 hc        1 DXA      0.112500
     33 H3         -1.1470    1.7060    0.3090 hc        1 DXA      0.112500
     34 H4A         0.4040    2.8850    1.8760 hc        1 DXA      0.110000
     35 H4E         1.2100    1.9670    3.2050 hc        1 DXA      0.110000
     36 H10         3.3560    2.5610    2.2530 ha        1 DXA      0.141000
     37 H5          5.6460    2.7340    1.5820 ha        1 DXA      0.140000
     38 H6          7.4850    2.2610   -0.0440 ha        1 DXA      0.136000
     39 HO8         5.4740   -0.1910   -3.2640 ho        1 DXA      0.246000
     40 HO9         2.8880   -0.8730   -2.3070 ho        1 DXA      0.245000
     41 H11        -1.6990   -1.6950    2.0250 h4        1 DXA      0.157500
     42 H12        -2.3960   -0.2950    4.4290 ho        1 DXA      0.277000
     43 H13        -1.1970   -2.0950    3.8410 h4        1 DXA      0.157500
     44 H6'         7.0240    0.9130   -2.0860 ha        1 DXA      0.139000
     45 H1'        -0.0440   -0.1120    2.5720 hc        1 DXA      0.063000
     46 H3'         0.4470    0.4840    4.5980 h1        1 DXA      0.070000
     47 HO3         1.4450    1.9430    6.0420 ho        1 DXA      0.195000
     48 H4'        -1.6070    0.9600    6.8490 h1        1 DXA      0.155000
     49 HO4        -0.3830   -1.4110    5.9350 ho        1 DXA      0.202000
     50 H51        -0.0400   -0.3760    8.3590 hc        1 DXA      0.090667
     51 H52         0.5560    1.3030    8.0120 hc        1 DXA      0.090667
     52 H53         1.3010   -0.1230    7.1640 hc        1 DXA      0.090667
     53 H71         5.9640   -2.2820   -3.7220 hc        1 DXA      0.081000
     54 H72         6.3750   -2.3110   -5.4870 hc        1 DXA      0.081000
     55 H73         7.4260   -3.1860   -4.2970 hc        1 DXA      0.081000
     56 H81         8.0780   -0.9800   -3.2540 hc        1 DXA      0.117000
     57 H82         7.3930    1.1930   -4.4190 hc        1 DXA      0.112750
     58 H91         6.3510    0.2530   -5.5940 hc        1 DXA      0.112750
     59 H92         8.4170   -1.0490   -6.3890 hc        1 DXA      0.112750
     60 H93         9.4630   -0.1120   -5.2160 hc        1 DXA      0.112750
     61 CME        -1.7520   -1.5030    3.1060 c2        1 DXA     -0.185000
@<TRIPOS>BOND
     1    1    2 1   
     2    1    3 1   
     3    1    4 1   
     4    3    7 1   
     5    3   16 1   
     6    4    5 1   
     7    4   32 1   
     8    4   33 1   
     9    5    6 1   
    10    5   19 1   
    11    5   45 1   
    12    6    7 1   
    13    6   34 1   
    14    6   35 1   
    15    7    8 1   
    16    8    9 1   
    17    8   36 1   
    18    9   10 1   
    19    9   15 1   
    20   10   11 1   
    21   10   37 1   
    22   11   12 1   
    23   11   38 1   
    24   12   13 1   
    25   12   44 1   
    26   13   14 1   
    27   13   15 1   
    28   14   39 1   
    29   15   16 1   
    30   16   17 1   
    31   17   40 1   
    32   18   28 1   
    33   18   29 1   
    34   18   30 1   
    35   18   56 1   
    36   19   21 1   
    37   19   31 1   
    38   20   42 1   
    39   20   61 1   
    40   21   22 1   
    41   21   23 1   
    42   23   24 1   
    43   23   25 1   
    44   23   46 1   
    45   24   47 1   
    46   25   26 1   
    47   25   27 1   
    48   25   48 1   
    49   26   49 1   
    50   27   50 1   
    51   27   51 1   
    52   27   52 1   
    53   28   53 1   
    54   28   54 1   
    55   28   55 1   
    56   29   30 1   
    57   29   57 1   
    58   29   58 1   
    59   30   59 1   
    60   30   60 1   
    61   41   61 1   
    62   43   61 1   
@<TRIPOS>SUBSTRUCTURE
     1 DXA         1 TEMP              0 ****  ****    0 ROOT
