@<TRIPOS>MOLECULE
DXB
   52    54     1     0     0
SMALL
bcc


@<TRIPOS>ATOM
      1 C1         -1.5670    0.1830   -0.2620 c         1 DXB      0.605700
      2 O1         -2.8000    0.0990   -0.4100 o         1 DXB     -0.586100
      3 C9A        -0.6320    0.1930   -1.3920 ca        1 DXB     -0.285600
      4 C2         -1.0200    0.3140    1.1340 c3        1 DXB     -0.178400
      5 C3          0.3940   -0.2140    1.2570 c3        1 DXB     -0.051700
      6 C4          1.2850    0.4830    0.2440 c3        1 DXB     -0.040100
      7 C4A         0.7690    0.3300   -1.1440 ca        1 DXB      0.000700
      8 C10         1.6620    0.3340   -2.1850 ca        1 DXB     -0.173000
      9 C5A         1.2310    0.2220   -3.5360 ca        1 DXB      0.040000
     10 C5          2.1800    0.2120   -4.5870 ca        1 DXB     -0.172000
     11 C6          1.7740    0.0980   -5.8960 ca        1 DXB     -0.069000
     12 C7          0.4060    0.0110   -6.2250 ca        1 DXB     -0.129300
     13 CC7        -0.0150   -0.1090   -7.6380 c3        1 DXB     -0.039800
     14 C8         -0.5450    0.0290   -5.1990 ca        1 DXB      0.173100
     15 O8         -1.8480   -0.0830   -5.6170 oh        1 DXB     -0.500100
     16 C8A        -0.1530    0.1120   -3.8280 ca        1 DXB     -0.134000
     17 C9         -1.0660    0.0710   -2.7150 ca        1 DXB      0.253100
     18 O9         -2.3700   -0.0980   -3.0770 oh        1 DXB     -0.529100
     19 CME         2.9480   -0.2410    3.9080 c3        1 DXB      0.107700
     20 C1S         0.9310    0.0130    2.6780 c3        1 DXB      0.059100
     21 O1S         2.2680   -0.4840    2.6840 os        1 DXB     -0.400600
     22 C2S         0.0740   -0.7200    3.6960 c         1 DXB      0.514100
     23 O2S         0.1310   -1.9350    3.8880 o         1 DXB     -0.502100
     24 C3S        -0.8830    0.1400    4.5100 c3        1 DXB      0.009100
     25 O3S        -1.9910   -0.6160    4.9520 oh        1 DXB     -0.579800
     26 C4S        -0.1350    0.7730    5.7050 c3        1 DXB      0.114100
     27 O4S         0.7920    1.7370    5.2320 oh        1 DXB     -0.602800
     28 C5S        -1.1110    1.3680    6.6990 c3        1 DXB     -0.124100
     29 H21        -1.7030   -0.2310    1.8410 hc        1 DXB      0.077700
     30 H22        -1.0520    1.4040    1.4050 hc        1 DXB      0.077700
     31 H3          0.4060   -1.3220    1.0580 hc        1 DXB      0.090700
     32 H4A         1.3490    1.5790    0.4870 hc        1 DXB      0.068700
     33 H4E         2.3250    0.0630    0.3230 hc        1 DXB      0.068700
     34 H10         2.7430    0.4230   -1.9920 ha        1 DXB      0.142000
     35 H5          3.2480    0.2940   -4.3360 ha        1 DXB      0.139000
     36 H6          2.5160    0.0820   -6.7100 ha        1 DXB      0.138000
     37 HM71       -0.9430    0.4900   -7.8210 hc        1 DXB      0.047367
     38 HM72        0.7880    0.2470   -8.3290 hc        1 DXB      0.047367
     39 HM73       -0.2450   -1.1770   -7.8780 hc        1 DXB      0.047367
     40 HO8        -2.4330    0.3700   -4.9930 ho        1 DXB      0.443000
     41 HO9        -2.9500   -0.2140   -2.3050 ho        1 DXB      0.478000
     42 HM11        3.9960   -0.5740    3.7080 h1        1 DXB      0.043700
     43 HM12        2.9130    0.8450    4.1770 h1        1 DXB      0.043700
     44 HM13        2.4890   -0.8480    4.7280 h1        1 DXB      0.043700
     45 HS1         0.9420    1.1120    2.9330 h1        1 DXB      0.064700
     46 HS3        -1.3260    0.9490    3.8620 h1        1 DXB      0.089700
     47 HO3        -1.6550   -1.4590    5.2900 ho        1 DXB      0.421000
     48 HS4         0.5080   -0.0090    6.2020 h1        1 DXB      0.081700
     49 HO4         0.3010    2.5430    5.0340 ho        1 DXB      0.405000
     50 HM51       -0.5550    1.8150    7.5560 hc        1 DXB      0.054033
     51 HM52       -1.7280    2.1630    6.2130 hc        1 DXB      0.054033
     52 HM53       -1.7980    0.5720    7.0760 hc        1 DXB      0.054033
@<TRIPOS>BOND
     1    1    2 2   
     2    1    3 1   
     3    1    4 1   
     4    3    7 ar  
     5    3   17 ar  
     6    4    5 1   
     7    4   29 1   
     8    4   30 1   
     9    5    6 1   
    10    5   20 1   
    11    5   31 1   
    12    6    7 1   
    13    6   32 1   
    14    6   33 1   
    15    7    8 ar  
    16    8    9 ar  
    17    8   34 1   
    18    9   10 ar  
    19    9   16 ar  
    20   10   11 ar  
    21   10   35 1   
    22   11   12 ar  
    23   11   36 1   
    24   12   13 1   
    25   12   14 ar  
    26   13   37 1   
    27   13   38 1   
    28   13   39 1   
    29   14   15 1   
    30   14   16 ar  
    31   15   40 1   
    32   16   17 ar  
    33   17   18 1   
    34   18   41 1   
    35   19   21 1   
    36   19   42 1   
    37   19   43 1   
    38   19   44 1   
    39   20   21 1   
    40   20   22 1   
    41   20   45 1   
    42   22   23 2   
    43   22   24 1   
    44   24   25 1   
    45   24   26 1   
    46   24   46 1   
    47   25   47 1   
    48   26   27 1   
    49   26   28 1   
    50   26   48 1   
    51   27   49 1   
    52   28   50 1   
    53   28   51 1   
    54   28   52 1   
@<TRIPOS>SUBSTRUCTURE
     1 DXB         1 TEMP              0 ****  ****    0 ROOT
