@<TRIPOS>MOLECULE
DXB
   52    54     1     0     0
SMALL
bcc


@<TRIPOS>ATOM
      1 C1          0.0100   -0.0040   -0.1970 c         1 DXB      0.605700
      2 O1         -0.6530   -0.1050   -1.2460 o         1 DXB     -0.586100
      3 C9A         1.4760    0.0320   -0.1870 ca        1 DXB     -0.284600
      4 C2         -0.7270    0.1190    1.1090 c3        1 DXB     -0.179400
      5 C3          0.0780   -0.3950    2.2840 c3        1 DXB     -0.051700
      6 C4          1.4150    0.3230    2.3320 c3        1 DXB     -0.040100
      7 C4A         2.1680    0.1810    1.0550 ca        1 DXB      0.001700
      8 C10         3.5380    0.2100    1.0890 ca        1 DXB     -0.174000
      9 C5A         4.3150    0.1110   -0.0990 ca        1 DXB      0.040000
     10 C5          5.7290    0.1250   -0.0280 ca        1 DXB     -0.172000
     11 C6          6.4880    0.0240   -1.1700 ca        1 DXB     -0.069000
     12 C7          5.8800   -0.0740   -2.4380 ca        1 DXB     -0.130300
     13 CC7         6.7110   -0.1790   -3.6570 c3        1 DXB     -0.039800
     14 C8          4.4840   -0.0800   -2.5260 ca        1 DXB      0.174100
     15 O8          3.9860   -0.2010   -3.8000 oh        1 DXB     -0.500100
     16 C8A         3.6680   -0.0120   -1.3550 ca        1 DXB     -0.134000
     17 C9          2.2290   -0.0780   -1.3600 ca        1 DXB      0.252100
     18 O9          1.6880   -0.2580   -2.5990 oh        1 DXB     -0.529100
     19 CME        -0.3240   -0.3810    5.9370 c3        1 DXB      0.114700
     20 C1S        -0.6850   -0.1790    3.5990 c3        1 DXB      0.060100
     21 O1S         0.1600   -0.6770    4.6350 os        1 DXB     -0.401600
     22 C2S        -2.0070   -0.9250    3.5780 c         1 DXB      0.520100
     23 O2S        -2.1140   -2.1360    3.7750 o         1 DXB     -0.506100
     24 C3S        -3.2450   -0.0850    3.2980 c3        1 DXB      0.040100
     25 O3S        -4.2380   -0.8470    2.6420 oh        1 DXB     -0.581800
     26 C4S        -3.8090    0.4920    4.6150 c3        1 DXB      0.116100
     27 O4S        -2.7640    1.2630    5.1990 oh        1 DXB     -0.616800
     28 C5S        -5.0430    1.3290    4.3460 c3        1 DXB     -0.132100
     29 H21        -1.7010   -0.4390    1.0290 hc        1 DXB      0.079200
     30 H22        -0.9730    1.2070    1.2540 hc        1 DXB      0.079200
     31 H3          0.2580   -1.5010    2.1680 hc        1 DXB      0.089700
     32 H4A         2.0180   -0.0870    3.1880 hc        1 DXB      0.068700
     33 H4E         1.2500    1.4170    2.5340 hc        1 DXB      0.068700
     34 H10         4.0700    0.3090    2.0480 ha        1 DXB      0.141000
     35 H5          6.2070    0.2160    0.9590 ha        1 DXB      0.138000
     36 H6          7.5880    0.0270   -1.1090 ha        1 DXB      0.137000
     37 HM71        6.2560    0.4120   -4.4920 hc        1 DXB      0.047033
     38 HM72        7.7480    0.1940   -3.4720 hc        1 DXB      0.047033
     39 HM73        6.7690   -1.2480   -3.9870 hc        1 DXB      0.047033
     40 HO8         3.1240    0.2360   -3.8590 ho        1 DXB      0.443000
     41 HO9         0.7250   -0.3870   -2.5610 ho        1 DXB      0.478000
     42 HM11       -0.4280    0.7230    6.0780 h1        1 DXB      0.040367
     43 HM12        0.4520   -0.8060    6.6210 h1        1 DXB      0.040367
     44 HM13       -1.3150   -0.8730    6.1030 h1        1 DXB      0.040367
     45 HS1        -0.8860    0.9180    3.7730 h1        1 DXB      0.073700
     46 HS3        -3.0020    0.7540    2.5860 h1        1 DXB      0.099700
     47 HO3        -4.3030   -1.6990    3.0990 ho        1 DXB      0.421000
     48 HS4        -4.0590   -0.3590    5.3100 h1        1 DXB      0.046700
     49 HO4        -3.1710    1.8390    5.8570 ho        1 DXB      0.414000
     50 HM51       -4.7700    2.2550    3.7850 hc        1 DXB      0.054367
     51 HM52       -5.7680    0.7390    3.7330 hc        1 DXB      0.054367
     52 HM53       -5.5300    1.6210    5.3070 hc        1 DXB      0.054367
@<TRIPOS>BOND
     1    1    2 2   
     2    1    3 1   
     3    1    4 1   
     4    3    7 ar  
     5    3   17 ar  
     6    4    5 1   
     7    4   29 1   
     8    4   30 1   
     9    5    6 1   
    10    5   20 1   
    11    5   31 1   
    12    6    7 1   
    13    6   32 1   
    14    6   33 1   
    15    7    8 ar  
    16    8    9 ar  
    17    8   34 1   
    18    9   10 ar  
    19    9   16 ar  
    20   10   11 ar  
    21   10   35 1   
    22   11   12 ar  
    23   11   36 1   
    24   12   13 1   
    25   12   14 ar  
    26   13   37 1   
    27   13   38 1   
    28   13   39 1   
    29   14   15 1   
    30   14   16 ar  
    31   15   40 1   
    32   16   17 ar  
    33   17   18 1   
    34   18   41 1   
    35   19   21 1   
    36   19   42 1   
    37   19   43 1   
    38   19   44 1   
    39   20   21 1   
    40   20   22 1   
    41   20   45 1   
    42   22   23 2   
    43   22   24 1   
    44   24   25 1   
    45   24   26 1   
    46   24   46 1   
    47   25   47 1   
    48   26   27 1   
    49   26   28 1   
    50   26   48 1   
    51   27   49 1   
    52   28   50 1   
    53   28   51 1   
    54   28   52 1   
@<TRIPOS>SUBSTRUCTURE
     1 DXB         1 TEMP              0 ****  ****    0 ROOT
