@<TRIPOS>MOLECULE
DXB
   52    49     1     0     0
SMALL
bcc


@<TRIPOS>ATOM
      1 C1         -1.6260   -0.3710   -1.7160 c1        1 DXB      0.289000
      2 O1         -2.2190    0.0270   -2.6950 o         1 DXB     -0.287000
      3 C9A        -0.0420   -0.2340   -1.6330 c1        1 DXB     -0.199000
      4 C2         -2.2890   -1.2560   -0.7730 c3        1 DXB     -0.208000
      5 C3         -1.6240   -1.2370    0.5880 c3        1 DXB     -0.097000
      6 C4         -0.2030   -1.4860    0.6330 c3        1 DXB     -0.117000
      7 C4A         0.6560   -0.8830   -0.5280 c2        1 DXB      0.027000
      8 C10         2.0260   -1.1570   -0.6350 c1        1 DXB     -0.186000
      9 C5A         2.7490   -0.7950   -1.8440 c1        1 DXB      0.040000
     10 C5          4.0610   -1.2630   -2.0160 c1        1 DXB     -0.162000
     11 C6          4.7000   -1.1110   -3.2410 c1        1 DXB     -0.071000
     12 C7          4.0320   -0.4880   -4.3110 c1        1 DXB     -0.177000
     13 CC7         4.9860   -0.6670   -5.3780 c2        1 DXB     -0.177000
     14 C8          2.7070   -0.0130   -4.1380 c2        1 DXB      0.113000
     15 O8          2.0930   -0.3820   -5.3930 oh        1 DXB     -0.275000
     16 C8A         2.0740   -0.1660   -2.9160 c1        1 DXB     -0.125000
     17 C9          0.6630    0.1160   -2.8080 c1        1 DXB      0.181000
     18 O9         -0.0700   -0.5200   -3.9060 oh        1 DXB     -0.235000
     19 CME        -1.2430    2.4550    0.9930 c3        1 DXB     -0.088000
     20 C1S        -1.8930    0.2280    1.2450 c3        1 DXB     -0.012000
     21 O1S        -0.8960    1.0740    0.8880 os        1 DXB     -0.270000
     22 C2S        -1.9350    0.1020    2.7510 c2        1 DXB      0.235000
     23 O2S        -1.4950   -0.9310    3.3040 o         1 DXB     -0.286000
     24 C3S        -2.6450    1.1630    3.5840 c3        1 DXB     -0.014000
     25 O3S        -3.9860    0.7910    3.7770 oh        1 DXB     -0.330000
     26 C4S        -1.9410    1.2960    4.9510 c3        1 DXB      0.002000
     27 O4S        -1.6930    2.6360    5.2150 oh        1 DXB     -0.346000
     28 C5S        -2.8360    0.7280    6.0530 c3        1 DXB     -0.250000
     29 H21        -3.2690   -1.2010   -0.6530 hc        1 DXB      0.110500
     30 H22        -2.2130   -2.2050   -1.2090 hc        1 DXB      0.110500
     31 H3         -2.0760   -1.9240    1.1610 hc        1 DXB      0.113000
     32 H4A         0.1550   -1.1190    1.5060 hc        1 DXB      0.106500
     33 H4E        -0.0720   -2.4260    0.6340 hc        1 DXB      0.106500
     34 H10         2.4950   -1.5340    0.1050 ha        1 DXB      0.139000
     35 H5          4.5150   -1.6890   -1.2860 ha        1 DXB      0.139000
     36 H6          5.6170   -1.4790   -3.3700 ha        1 DXB      0.135000
     37 HM71        5.7140   -1.2240   -5.0700 ha        1 DXB      0.084333
     38 HM72        5.3380    0.2090   -5.6550 ha        1 DXB      0.084333
     39 HM73        4.5540   -1.0890   -6.1260 ha        1 DXB      0.084333
     40 HO8         2.4470    0.0960   -6.0450 ho        1 DXB      0.235000
     41 HO9        -0.2210    0.0890   -4.5620 ho        1 DXB      0.245000
     42 HM11       -0.7350    2.9550    0.3720 h1        1 DXB      0.087667
     43 HM12       -1.0580    2.7610    1.8710 h1        1 DXB      0.087667
     44 HM13       -2.2370    2.5730    0.7940 h1        1 DXB      0.087667
     45 HS1        -2.7810    0.5910    0.9110 h1        1 DXB      0.131000
     46 HS3        -2.6050    2.0660    3.0890 h1        1 DXB      0.123000
     47 HO3        -4.4980    1.5190    3.7860 ho        1 DXB      0.228000
     48 HS4        -1.0590    0.7830    4.9320 h1        1 DXB      0.100000
     49 HO4        -1.0210    2.7080    5.8600 ho        1 DXB      0.211000
     50 HM51       -3.7400    1.2420    6.0630 hc        1 DXB      0.091667
     51 HM52       -2.9970   -0.1980    5.8870 hc        1 DXB      0.091667
     52 HM53       -2.3700    0.8370    6.9550 hc        1 DXB      0.091667
@<TRIPOS>BOND
     1    1    2 1   
     2    1    4 1   
     3    3    7 1   
     4    3   17 1   
     5    4    5 1   
     6    4   29 1   
     7    4   30 1   
     8    5    6 1   
     9    5   20 1   
    10    5   31 1   
    11    6    7 1   
    12    6   32 1   
    13    6   33 1   
    14    7    8 1   
    15    8   34 1   
    16    9   10 1   
    17    9   16 1   
    18   10   35 1   
    19   11   12 1   
    20   11   36 1   
    21   12   14 1   
    22   13   37 1   
    23   13   38 1   
    24   13   39 1   
    25   14   15 1   
    26   14   16 1   
    27   15   40 1   
    28   17   18 1   
    29   18   41 1   
    30   19   21 1   
    31   19   42 1   
    32   19   43 1   
    33   19   44 1   
    34   20   21 1   
    35   20   22 1   
    36   20   45 1   
    37   22   23 1   
    38   22   24 1   
    39   24   25 1   
    40   24   26 1   
    41   24   46 1   
    42   25   47 1   
    43   26   27 1   
    44   26   28 1   
    45   26   48 1   
    46   27   49 1   
    47   28   50 1   
    48   28   51 1   
    49   28   52 1   
@<TRIPOS>SUBSTRUCTURE
     1 DXB         1 TEMP              0 ****  ****    0 ROOT
