@<TRIPOS>MOLECULE
DXB
   52    54     1     0     0
SMALL
bcc


@<TRIPOS>ATOM
      1 C1          0.0210    0.0540   -0.2290 c         1 DXB      0.605700
      2 O1         -0.6380   -0.0170   -1.2820 o         1 DXB     -0.586100
      3 C9A         1.4870    0.0700   -0.2120 ca        1 DXB     -0.284600
      4 C2         -0.7210    0.1640    1.0760 c3        1 DXB     -0.179400
      5 C3          0.0720   -0.3830    2.2440 c3        1 DXB     -0.051700
      6 C4          1.4190    0.3140    2.3120 c3        1 DXB     -0.040100
      7 C4A         2.1750    0.1850    1.0360 ca        1 DXB      0.001700
      8 C10         3.5460    0.1940    1.0760 ca        1 DXB     -0.174000
      9 C5A         4.3260    0.1050   -0.1100 ca        1 DXB      0.040000
     10 C5          5.7400    0.0980   -0.0330 ca        1 DXB     -0.172000
     11 C6          6.5030    0.0060   -1.1730 ca        1 DXB     -0.069000
     12 C7          5.8990   -0.0580   -2.4450 ca        1 DXB     -0.130300
     13 CC7         6.7350   -0.1530   -3.6630 c3        1 DXB     -0.039800
     14 C8          4.5030   -0.0430   -2.5400 ca        1 DXB      0.174100
     15 O8          4.0100   -0.1330   -3.8180 oh        1 DXB     -0.500100
     16 C8A         3.6830    0.0150   -1.3710 ca        1 DXB     -0.134000
     17 C9          2.2440   -0.0290   -1.3830 ca        1 DXB      0.252100
     18 O9          1.7060   -0.1790   -2.6280 oh        1 DXB     -0.529100
     19 CME        -0.3470   -0.4310    5.8960 c3        1 DXB      0.114700
     20 C1S        -0.6940   -0.1800    3.5600 c3        1 DXB      0.060100
     21 O1S         0.1390   -0.7100    4.5900 os        1 DXB     -0.401600
     22 C2S        -2.0270   -0.9070    3.5190 c         1 DXB      0.520100
     23 O2S        -2.1510   -2.1200    3.6940 o         1 DXB     -0.506100
     24 C3S        -3.2510   -0.0440    3.2490 c3        1 DXB      0.040100
     25 O3S        -4.2510   -0.7800    2.5750 oh        1 DXB     -0.581800
     26 C4S        -3.8130    0.5160    4.5750 c3        1 DXB      0.116100
     27 O4S        -2.7600    1.2610    5.1780 oh        1 DXB     -0.616800
     28 C5S        -5.0340    1.3750    4.3160 c3        1 DXB     -0.132100
     29 H21        -0.9510    1.2530    1.2400 hc        1 DXB      0.079200
     30 H22        -1.7010   -0.3780    0.9810 hc        1 DXB      0.079200
     31 H3          0.2360   -1.4890    2.1090 hc        1 DXB      0.089700
     32 H4A         1.2690    1.4070    2.5340 hc        1 DXB      0.068700
     33 H4E         2.0120   -0.1200    3.1630 hc        1 DXB      0.068700
     34 H10         4.0750    0.2670    2.0390 ha        1 DXB      0.141000
     35 H5          6.2160    0.1630    0.9570 ha        1 DXB      0.138000
     36 H6          7.6020   -0.0070   -1.1080 ha        1 DXB      0.137000
     37 HM71        6.2920    0.4600   -4.4880 hc        1 DXB      0.047033
     38 HM72        7.7760    0.2010   -3.4660 hc        1 DXB      0.047033
     39 HM73        6.7780   -1.2160   -4.0130 hc        1 DXB      0.047033
     40 HO8         3.1550    0.3180   -3.8720 ho        1 DXB      0.443000
     41 HO9         0.7410   -0.2950   -2.5960 ho        1 DXB      0.478000
     42 HM11       -0.4360    0.6720    6.0570 h1        1 DXB      0.040367
     43 HM12       -1.3460   -0.9120    6.0480 h1        1 DXB      0.040367
     44 HM13        0.4200   -0.8790    6.5740 h1        1 DXB      0.040367
     45 HS1        -0.8800    0.9150    3.7530 h1        1 DXB      0.073700
     46 HS3        -2.9930    0.8040    2.5550 h1        1 DXB      0.099700
     47 HO3        -4.3310   -1.6400    3.0150 ho        1 DXB      0.421000
     48 HS4        -4.0790   -0.3450    5.2530 h1        1 DXB      0.046700
     49 HO4        -3.1620    1.8310    5.8440 ho        1 DXB      0.414000
     50 HM51       -4.7460    2.3070    3.7730 hc        1 DXB      0.054367
     51 HM52       -5.7640    0.8060    3.6890 hc        1 DXB      0.054367
     52 HM53       -5.5210    1.6560    5.2800 hc        1 DXB      0.054367
@<TRIPOS>BOND
     1    1    2 2   
     2    1    3 1   
     3    1    4 1   
     4    3    7 ar  
     5    3   17 ar  
     6    4    5 1   
     7    4   29 1   
     8    4   30 1   
     9    5    6 1   
    10    5   20 1   
    11    5   31 1   
    12    6    7 1   
    13    6   32 1   
    14    6   33 1   
    15    7    8 ar  
    16    8    9 ar  
    17    8   34 1   
    18    9   10 ar  
    19    9   16 ar  
    20   10   11 ar  
    21   10   35 1   
    22   11   12 ar  
    23   11   36 1   
    24   12   13 1   
    25   12   14 ar  
    26   13   37 1   
    27   13   38 1   
    28   13   39 1   
    29   14   15 1   
    30   14   16 ar  
    31   15   40 1   
    32   16   17 ar  
    33   17   18 1   
    34   18   41 1   
    35   19   21 1   
    36   19   42 1   
    37   19   43 1   
    38   19   44 1   
    39   20   21 1   
    40   20   22 1   
    41   20   45 1   
    42   22   23 2   
    43   22   24 1   
    44   24   25 1   
    45   24   26 1   
    46   24   46 1   
    47   25   47 1   
    48   26   27 1   
    49   26   28 1   
    50   26   48 1   
    51   27   49 1   
    52   28   50 1   
    53   28   51 1   
    54   28   52 1   
@<TRIPOS>SUBSTRUCTURE
     1 DXB         1 TEMP              0 ****  ****    0 ROOT
