@<TRIPOS>MOLECULE
DXC
   67    70     1     0     0
SMALL
bcc


@<TRIPOS>ATOM
      1 C1         -0.0100   -0.1320   -0.1610 c3        1 DXC      0.142100
      2 C2          1.5120   -0.0830   -0.1790 c3        1 DXC     -0.074400
      3 C3          2.0840   -0.0590    1.2310 c3        1 DXC     -0.049700
      4 C4          1.5220    1.0920    2.0920 c3        1 DXC     -0.035000
      5 C5         -0.0110    1.0420    2.0300 c3        1 DXC     -0.067400
      6 C6         -0.5670    1.0480    0.6260 c3        1 DXC     -0.114400
      7 C7          3.6040   -0.0250    1.1710 c3        1 DXC     -0.070400
      8 C8          4.1370    1.3110    0.7050 c3        1 DXC     -0.074400
      9 C9          3.6070    2.4470    1.5640 c3        1 DXC     -0.046700
     10 C10         2.0700    2.4380    1.5880 c3        1 DXC     -0.046700
     11 C11         4.0560    3.7880    1.0190 c3        1 DXC     -0.066700
     12 C12         3.6160    4.9660    1.9220 c3        1 DXC     -0.079000
     13 C13         2.0830    4.9860    1.9270 c3        1 DXC      0.155100
     14 C14         1.5180    3.6270    2.3630 c3        1 DXC     -0.067400
     15 C15         5.5440    4.0210    0.7990 c3        1 DXC     -0.074400
     16 C16         5.7090    5.5410    0.8300 c3        1 DXC     -0.078400
     17 C17         4.3510    6.1480    1.2380 c3        1 DXC     -0.050700
     18 C18         1.9020    0.8470    3.5510 c3        1 DXC     -0.088100
     19 C19         4.5140    7.4320    2.0430 c3        1 DXC     -0.064700
     20 O1          1.5190    5.2620    0.6510 oh        1 DXC     -0.611800
     21 O2         -0.4370   -0.1140   -1.5190 oh        1 DXC     -0.603800
     22 C20         4.1120    4.8270    3.3530 c3        1 DXC     -0.081100
     23 C21         5.2820    8.4710    1.2260 c3        1 DXC     -0.068400
     24 C22         5.8180    9.6030    2.0680 c3        1 DXC     -0.196400
     25 C23         6.8610   10.4290    1.2910 c         1 DXC      0.908600
     26 O3          7.7320    9.8150    0.6100 o         1 DXC     -0.850800
     27 O4          6.8020   11.6880    1.3910 o         1 DXC     -0.850800
     28 C24         3.1720    8.0010    2.4630 c3        1 DXC     -0.088100
     29 H1         -0.3600   -1.0970    0.3060 h1        1 DXC      0.025700
     30 H22         1.8390    0.8220   -0.7550 hc        1 DXC      0.056700
     31 H21         1.8990   -0.9830   -0.7250 hc        1 DXC      0.056700
     32 H3          1.7800   -1.0240    1.7320 hc        1 DXC      0.035700
     33 H52        -0.3490    0.1020    2.5460 hc        1 DXC      0.038700
     34 H51        -0.4390    1.9020    2.6060 hc        1 DXC      0.038700
     35 H62        -0.3060    2.0050    0.1030 hc        1 DXC      0.049700
     36 H61        -1.6860    0.9800    0.6650 hc        1 DXC      0.049700
     37 H72         4.0140   -0.2550    2.1900 hc        1 DXC      0.035700
     38 H71         3.9630   -0.8310    0.4770 hc        1 DXC      0.035700
     39 H82         5.2580    1.3070    0.7550 hc        1 DXC      0.043200
     40 H81         3.8530    1.4850   -0.3660 hc        1 DXC      0.043200
     41 H9          4.0060    2.3140    2.6070 hc        1 DXC      0.049700
     42 H10         1.7240    2.5620    0.5190 hc        1 DXC      0.064700
     43 H11         3.5390    3.9340    0.0240 hc        1 DXC      0.058700
     44 H13         1.7210    5.7710    2.6530 h1        1 DXC      0.033700
     45 H142        0.4060    3.6730    2.2160 hc        1 DXC      0.043700
     46 H141        1.7200    3.5060    3.4570 hc        1 DXC      0.043700
     47 H152        5.8770    3.5920   -0.1770 hc        1 DXC      0.034200
     48 H151        6.1470    3.5360    1.6060 hc        1 DXC      0.034200
     49 H162        6.0160    5.9290   -0.1720 hc        1 DXC      0.057700
     50 H161        6.5020    5.8340    1.5620 hc        1 DXC      0.057700
     51 H17         3.7940    6.4080    0.2950 hc        1 DXC      0.037700
     52 H183        1.6060   -0.1850    3.8590 hc        1 DXC      0.033033
     53 H182        3.0010    0.9570    3.7080 hc        1 DXC      0.033033
     54 H181        1.3750    1.5740    4.2150 hc        1 DXC      0.033033
     55 H19         5.1140    7.2040    2.9690 hc        1 DXC      0.046700
     56 H1O1        1.8510    6.1270    0.3810 ho        1 DXC      0.409000
     57 H2         -1.3720    0.1190   -1.5150 ho        1 DXC      0.396000
     58 H203        3.7670    5.6960    3.9660 hc        1 DXC      0.035033
     59 H202        5.2290    4.8040    3.3690 hc        1 DXC      0.035033
     60 H201        3.7330    3.8940    3.8340 hc        1 DXC      0.035033
     61 H212        4.6100    8.8800    0.4280 hc        1 DXC      0.048200
     62 H211        6.1570    7.9890    0.7100 hc        1 DXC      0.048200
     63 H222        4.9930   10.2800    2.4020 hc        1 DXC      0.019700
     64 H221        6.3230    9.1980    2.9820 hc        1 DXC      0.019700
     65 H243        2.4430    7.9620    1.6170 hc        1 DXC      0.025367
     66 H242        2.7450    7.4350    3.3250 hc        1 DXC      0.025367
     67 H241        3.2910    9.0680    2.7750 hc        1 DXC      0.025367
@<TRIPOS>BOND
     1    1    2 1   
     2    1    6 1   
     3    1   21 1   
     4    1   29 1   
     5    2    3 1   
     6    2   30 1   
     7    2   31 1   
     8    3    4 1   
     9    3    7 1   
    10    3   32 1   
    11    4    5 1   
    12    4   10 1   
    13    4   18 1   
    14    5    6 1   
    15    5   33 1   
    16    5   34 1   
    17    6   35 1   
    18    6   36 1   
    19    7    8 1   
    20    7   37 1   
    21    7   38 1   
    22    8    9 1   
    23    8   39 1   
    24    8   40 1   
    25    9   10 1   
    26    9   11 1   
    27    9   41 1   
    28   10   14 1   
    29   10   42 1   
    30   11   12 1   
    31   11   15 1   
    32   11   43 1   
    33   12   13 1   
    34   12   17 1   
    35   12   22 1   
    36   13   14 1   
    37   13   20 1   
    38   13   44 1   
    39   14   45 1   
    40   14   46 1   
    41   15   16 1   
    42   15   47 1   
    43   15   48 1   
    44   16   17 1   
    45   16   49 1   
    46   16   50 1   
    47   17   19 1   
    48   17   51 1   
    49   18   52 1   
    50   18   53 1   
    51   18   54 1   
    52   19   23 1   
    53   19   28 1   
    54   19   55 1   
    55   20   56 1   
    56   21   57 1   
    57   22   58 1   
    58   22   59 1   
    59   22   60 1   
    60   23   24 1   
    61   23   61 1   
    62   23   62 1   
    63   24   25 1   
    64   24   63 1   
    65   24   64 1   
    66   25   26 1   
    67   25   27 1   
    68   28   65 1   
    69   28   66 1   
    70   28   67 1   
@<TRIPOS>SUBSTRUCTURE
     1 DXC         1 TEMP              0 ****  ****    0 ROOT
