@<TRIPOS>MOLECULE
DXC
   67    70     1     0     0
SMALL
bcc


@<TRIPOS>ATOM
      1 C1         -3.3280   -0.5730   -3.4380 c3        1 DXC      0.146100
      2 C2         -1.9320   -1.1940   -3.3960 c3        1 DXC     -0.106400
      3 C3         -1.0760   -0.7880   -2.0760 c3        1 DXC     -0.043700
      4 C4         -2.0150   -1.4310   -1.0250 c3        1 DXC     -0.034000
      5 C5         -3.4700   -0.8210   -1.0780 c3        1 DXC     -0.068400
      6 C6         -3.7080   -0.1700   -2.2830 c3        1 DXC     -0.072400
      7 C7         -0.8690    0.6380   -1.8810 c3        1 DXC     -0.074400
      8 C8         -0.4290    0.9760   -0.3970 c3        1 DXC     -0.075400
      9 C9         -1.2860    0.4210    0.5370 c3        1 DXC     -0.046700
     10 C10        -1.5510   -1.1590    0.3210 c3        1 DXC     -0.041700
     11 C11        -0.6810    0.3160    2.1120 c3        1 DXC     -0.052700
     12 C12         0.5340   -0.4250    2.2290 c3        1 DXC     -0.033000
     13 C13         0.7400   -1.2770    1.1220 c3        1 DXC      0.152100
     14 C14        -0.2550   -1.9920    0.4620 c3        1 DXC     -0.101400
     15 C15        -0.3900    1.7270    2.7180 c3        1 DXC     -0.078400
     16 C16         1.1110    1.9430    2.6470 c3        1 DXC     -0.081400
     17 C17         1.7060    0.6680    2.2190 c3        1 DXC     -0.042700
     18 C18        -2.0800   -2.9360   -1.2500 c3        1 DXC     -0.089100
     19 C19         2.2650    0.8030    0.8560 c3        1 DXC     -0.063700
     20 O1          1.8190   -2.3920    1.6220 oh        1 DXC     -0.604800
     21 O2         -3.3090    0.6320   -4.4050 oh        1 DXC     -0.607800
     22 C20         0.5560   -1.2400    3.5620 c3        1 DXC     -0.078100
     23 C21         2.7930    2.2310    0.6580 c3        1 DXC     -0.066400
     24 C22         3.8340    2.2380   -0.4740 c3        1 DXC     -0.195400
     25 C23         4.7760    3.4320   -0.2960 c         1 DXC      0.907600
     26 O3          5.9540    3.2520    0.1630 o         1 DXC     -0.852300
     27 O4          4.4230    4.5750   -0.6920 o         1 DXC     -0.852300
     28 C24         3.4110   -0.1940    0.6750 c3        1 DXC     -0.095100
     29 H1         -3.9680   -1.2430   -3.7710 h1        1 DXC      0.025700
     30 H22        -2.0230   -2.1670   -3.4200 hc        1 DXC      0.042700
     31 H21        -1.4340   -0.9040   -4.1960 hc        1 DXC      0.042700
     32 H3         -0.2150   -1.2530   -2.0810 hc        1 DXC      0.045700
     33 H52        -3.5740   -0.1850   -0.3460 hc        1 DXC      0.040200
     34 H51        -4.1230   -1.5420   -0.9700 hc        1 DXC      0.040200
     35 H62        -3.3380    0.7270   -2.1790 hc        1 DXC      0.051700
     36 H61        -4.6790   -0.0670   -2.3430 hc        1 DXC      0.051700
     37 H72        -1.7070    1.1120   -2.0810 hc        1 DXC      0.042200
     38 H71        -0.1730    0.9460   -2.4990 hc        1 DXC      0.042200
     39 H82        -0.4190    1.9530   -0.2810 hc        1 DXC      0.058200
     40 H81         0.4690    0.6310   -0.2470 hc        1 DXC      0.058200
     41 H9         -2.1360    0.9040    0.5390 hc        1 DXC      0.039700
     42 H10        -2.2120   -1.4710    0.9640 hc        1 DXC      0.039700
     43 H11        -1.3560   -0.1190    2.6660 hc        1 DXC      0.031700
     44 H13         1.1830   -0.7380    0.4440 h1        1 DXC      0.052700
     45 H142        0.0660   -2.2370   -0.4300 hc        1 DXC      0.037700
     46 H141       -0.4520   -2.8070    0.9670 hc        1 DXC      0.037700
     47 H152       -0.6900    1.7580    3.6560 hc        1 DXC      0.047200
     48 H151       -0.8540    2.4200    2.1940 hc        1 DXC      0.047200
     49 H162        1.4560    2.1940    3.5320 hc        1 DXC      0.048700
     50 H161        1.3180    2.6460    1.9960 hc        1 DXC      0.048700
     51 H17         2.4100    0.4050    2.8420 hc        1 DXC      0.046700
     52 H183       -1.2560   -3.2370   -1.6960 hc        1 DXC      0.031033
     53 H182       -2.8580   -3.1510   -1.8160 hc        1 DXC      0.031033
     54 H181       -2.1690   -3.3920   -0.3850 hc        1 DXC      0.031033
     55 H19         1.5700    0.6210    0.2010 hc        1 DXC      0.037700
     56 H1O1        1.7520   -3.1190    1.1140 ho        1 DXC      0.388000
     57 H2         -3.7520    0.4200   -5.1560 ho        1 DXC      0.395000
     58 H203       -0.0280   -2.0270    3.4740 hc        1 DXC      0.032367
     59 H202        1.4720   -1.5330    3.7510 hc        1 DXC      0.032367
     60 H201        0.2310   -0.6670    4.3060 hc        1 DXC      0.032367
     61 H212        3.2100    2.5410    1.4860 hc        1 DXC      0.047700
     62 H211        2.0490    2.8250    0.4240 hc        1 DXC      0.047700
     63 H222        4.3510    1.4090   -0.4470 hc        1 DXC      0.019700
     64 H221        3.3740    2.3100   -1.3410 hc        1 DXC      0.019700
     65 H243        3.5310   -0.3830   -0.2750 hc        1 DXC      0.029367
     66 H242        4.2370    0.1890    1.0380 hc        1 DXC      0.029367
     67 H241        3.1990   -1.0300    1.1540 hc        1 DXC      0.029367
@<TRIPOS>BOND
     1    1    2 1   
     2    1    6 1   
     3    1   21 1   
     4    1   29 1   
     5    2    3 1   
     6    2   30 1   
     7    2   31 1   
     8    3    4 1   
     9    3    7 1   
    10    3   32 1   
    11    4    5 1   
    12    4   10 1   
    13    4   18 1   
    14    5    6 1   
    15    5   33 1   
    16    5   34 1   
    17    6   35 1   
    18    6   36 1   
    19    7    8 1   
    20    7   37 1   
    21    7   38 1   
    22    8    9 1   
    23    8   39 1   
    24    8   40 1   
    25    9   10 1   
    26    9   11 1   
    27    9   41 1   
    28   10   14 1   
    29   10   42 1   
    30   11   12 1   
    31   11   15 1   
    32   11   43 1   
    33   12   13 1   
    34   12   17 1   
    35   12   22 1   
    36   13   14 1   
    37   13   20 1   
    38   13   44 1   
    39   14   45 1   
    40   14   46 1   
    41   15   16 1   
    42   15   47 1   
    43   15   48 1   
    44   16   17 1   
    45   16   49 1   
    46   16   50 1   
    47   17   19 1   
    48   17   51 1   
    49   18   52 1   
    50   18   53 1   
    51   18   54 1   
    52   19   23 1   
    53   19   28 1   
    54   19   55 1   
    55   20   56 1   
    56   21   57 1   
    57   22   58 1   
    58   22   59 1   
    59   22   60 1   
    60   23   24 1   
    61   23   61 1   
    62   23   62 1   
    63   24   25 1   
    64   24   63 1   
    65   24   64 1   
    66   25   26 1   
    67   25   27 1   
    68   28   65 1   
    69   28   66 1   
    70   28   67 1   
@<TRIPOS>SUBSTRUCTURE
     1 DXC         1 TEMP              0 ****  ****    0 ROOT
