@<TRIPOS>MOLECULE
DXC
   67    70     1     0     0
SMALL
bcc


@<TRIPOS>ATOM
      1 C1          0.6840   -1.0490   -5.5880 c3        1 DXC      0.142100
      2 C2         -0.6300   -1.0700   -4.8190 c3        1 DXC     -0.074400
      3 C3         -1.0430    0.3310   -4.3900 c3        1 DXC     -0.049700
      4 C4          0.0440    1.0580   -3.5700 c3        1 DXC     -0.035000
      5 C5          1.3630    0.9970   -4.3520 c3        1 DXC     -0.068400
      6 C6          1.7780   -0.4000   -4.7490 c3        1 DXC     -0.112400
      7 C7         -2.3670    0.2720   -3.6420 c3        1 DXC     -0.071400
      8 C8         -2.2280   -0.3360   -2.2640 c3        1 DXC     -0.074400
      9 C9         -1.1790    0.3920   -1.4420 c3        1 DXC     -0.045700
     10 C10         0.1710    0.4110   -2.1800 c3        1 DXC     -0.043700
     11 C11        -0.9700   -0.2940   -0.1070 c3        1 DXC     -0.069700
     12 C12         0.0250    0.4750    0.7960 c3        1 DXC     -0.038000
     13 C13         1.3810    0.4580    0.0850 c3        1 DXC      0.151100
     14 C14         1.2620    1.0480   -1.3280 c3        1 DXC     -0.103400
     15 C15        -2.1740   -0.5360    0.7920 c3        1 DXC     -0.072400
     16 C16        -1.5800   -0.6950    2.1940 c3        1 DXC     -0.079400
     17 C17        -0.0830   -0.3330    2.1140 c3        1 DXC     -0.048700
     18 C18        -0.3250    2.5360   -3.4640 c3        1 DXC     -0.088100
     19 C19         0.4120    0.3440    3.3880 c3        1 DXC     -0.060700
     20 O1          1.8440   -0.8880    0.0260 oh        1 DXC     -0.590800
     21 O2          0.9950   -2.4020   -5.9030 oh        1 DXC     -0.601800
     22 C20        -0.3910    1.9170    1.0410 c3        1 DXC     -0.086100
     23 C21         0.1880   -0.5680    4.5930 c3        1 DXC     -0.067400
     24 C22         0.2750    0.1680    5.9090 c3        1 DXC     -0.195400
     25 C23        -0.2830   -0.6840    7.0640 c         1 DXC      0.907600
     26 O3         -1.3840   -1.2850    6.8950 o         1 DXC     -0.852300
     27 O4          0.3810   -0.7220    8.1400 o         1 DXC     -0.852300
     28 C24         1.8810    0.7060    3.2860 c3        1 DXC     -0.087100
     29 H1          0.5580   -0.4780   -6.5530 h1        1 DXC      0.025700
     30 H22        -0.5190   -1.7410   -3.9280 hc        1 DXC      0.057200
     31 H21        -1.4280   -1.5120   -5.4710 hc        1 DXC      0.057200
     32 H3         -1.2050    0.9350   -5.3300 hc        1 DXC      0.035700
     33 H52         2.1800    1.4740   -3.7500 hc        1 DXC      0.038200
     34 H51         1.2430    1.6140   -5.2850 hc        1 DXC      0.038200
     35 H62         1.9730   -1.0270   -3.8410 hc        1 DXC      0.046200
     36 H61         2.7300   -0.3570   -5.3400 hc        1 DXC      0.046200
     37 H72        -3.1020   -0.3270   -4.2420 hc        1 DXC      0.035700
     38 H71        -2.7790    1.3120   -3.5510 hc        1 DXC      0.035700
     39 H82        -1.9550   -1.4210   -2.3500 hc        1 DXC      0.044200
     40 H81        -3.2130   -0.2840   -1.7290 hc        1 DXC      0.044200
     41 H9         -1.5350    1.4440   -1.2720 hc        1 DXC      0.049700
     42 H10         0.4720   -0.6670   -2.3370 hc        1 DXC      0.058700
     43 H11        -0.5040   -1.3030   -0.3180 hc        1 DXC      0.065700
     44 H13         2.1240    1.0750    0.6670 h1        1 DXC      0.036700
     45 H142        2.2520    0.9050   -1.8370 hc        1 DXC      0.036200
     46 H141        1.0830    2.1490   -1.2350 hc        1 DXC      0.036200
     47 H152       -2.7340   -1.4490    0.4780 hc        1 DXC      0.032200
     48 H151       -2.8820    0.3280    0.7530 hc        1 DXC      0.032200
     49 H162       -1.6980   -1.7450    2.5580 hc        1 DXC      0.056200
     50 H161       -2.1070   -0.0250    2.9180 hc        1 DXC      0.056200
     51 H17         0.5130   -1.2780    1.9750 hc        1 DXC      0.064700
     52 H183       -0.5370    2.9550   -4.4780 hc        1 DXC      0.033700
     53 H182       -1.2300    2.6840   -2.8290 hc        1 DXC      0.033700
     54 H181        0.5190    3.1150   -3.0170 hc        1 DXC      0.033700
     55 H19        -0.1820    1.2870    3.5510 hc        1 DXC      0.040700
     56 H1O1        2.7460   -0.8480   -0.3110 ho        1 DXC      0.388000
     57 H2          1.9090   -2.4130   -6.2090 ho        1 DXC      0.395000
     58 H203       -0.4850    2.4930    0.0890 hc        1 DXC      0.035367
     59 H202       -1.3770    1.9400    1.5660 hc        1 DXC      0.035367
     60 H201        0.3640    2.4330    1.6820 hc        1 DXC      0.035367
     61 H212       -0.8280   -1.0440    4.5380 hc        1 DXC      0.048700
     62 H211        0.9430   -1.3960    4.5730 hc        1 DXC      0.048700
     63 H222        1.3330    0.4470    6.1420 hc        1 DXC      0.018700
     64 H221       -0.3280    1.1100    5.8640 hc        1 DXC      0.018700
     65 H243        2.4570   -0.1210    2.8040 hc        1 DXC      0.025033
     66 H242        2.0270    1.6350    2.6840 hc        1 DXC      0.025033
     67 H241        2.3040    0.8850    4.3050 hc        1 DXC      0.025033
@<TRIPOS>BOND
     1    1    2 1   
     2    1    6 1   
     3    1   21 1   
     4    1   29 1   
     5    2    3 1   
     6    2   30 1   
     7    2   31 1   
     8    3    4 1   
     9    3    7 1   
    10    3   32 1   
    11    4    5 1   
    12    4   10 1   
    13    4   18 1   
    14    5    6 1   
    15    5   33 1   
    16    5   34 1   
    17    6   35 1   
    18    6   36 1   
    19    7    8 1   
    20    7   37 1   
    21    7   38 1   
    22    8    9 1   
    23    8   39 1   
    24    8   40 1   
    25    9   10 1   
    26    9   11 1   
    27    9   41 1   
    28   10   14 1   
    29   10   42 1   
    30   11   12 1   
    31   11   15 1   
    32   11   43 1   
    33   12   13 1   
    34   12   17 1   
    35   12   22 1   
    36   13   14 1   
    37   13   20 1   
    38   13   44 1   
    39   14   45 1   
    40   14   46 1   
    41   15   16 1   
    42   15   47 1   
    43   15   48 1   
    44   16   17 1   
    45   16   49 1   
    46   16   50 1   
    47   17   19 1   
    48   17   51 1   
    49   18   52 1   
    50   18   53 1   
    51   18   54 1   
    52   19   23 1   
    53   19   28 1   
    54   19   55 1   
    55   20   56 1   
    56   21   57 1   
    57   22   58 1   
    58   22   59 1   
    59   22   60 1   
    60   23   24 1   
    61   23   61 1   
    62   23   62 1   
    63   24   25 1   
    64   24   63 1   
    65   24   64 1   
    66   25   26 1   
    67   25   27 1   
    68   28   65 1   
    69   28   66 1   
    70   28   67 1   
@<TRIPOS>SUBSTRUCTURE
     1 DXC         1 TEMP              0 ****  ****    0 ROOT
