@<TRIPOS>MOLECULE
DXC
   67    70     1     0     0
SMALL
bcc


@<TRIPOS>ATOM
      1 C1          0.0020   -0.1250   -0.1660 c3        1 DXC      0.142100
      2 C2          1.5240   -0.0780   -0.1750 c3        1 DXC     -0.074400
      3 C3          2.0860   -0.0460    1.2390 c3        1 DXC     -0.049700
      4 C4          1.5220    1.1140    2.0870 c3        1 DXC     -0.035000
      5 C5         -0.0110    1.0680    2.0150 c3        1 DXC     -0.068400
      6 C6         -0.5580    1.0630    0.6080 c3        1 DXC     -0.112400
      7 C7          3.6060   -0.0180    1.1890 c3        1 DXC     -0.071400
      8 C8          4.1480    1.3120    0.7180 c3        1 DXC     -0.074400
      9 C9          3.6190    2.4560    1.5660 c3        1 DXC     -0.045700
     10 C10         2.0800    2.4550    1.5780 c3        1 DXC     -0.043700
     11 C11         4.0790    3.7920    1.0170 c3        1 DXC     -0.069700
     12 C12         3.6360    4.9750    1.9110 c3        1 DXC     -0.038000
     13 C13         2.1040    5.0030    1.8900 c3        1 DXC      0.151100
     14 C14         1.5280    3.6530    2.3400 c3        1 DXC     -0.103400
     15 C15         5.5670    4.0260    0.8050 c3        1 DXC     -0.072400
     16 C16         5.7190    5.5490    0.8030 c3        1 DXC     -0.079400
     17 C17         4.3650    6.1570    1.2240 c3        1 DXC     -0.048700
     18 C18         1.8900    0.8780    3.5510 c3        1 DXC     -0.088100
     19 C19         4.5390    7.4350    2.0380 c3        1 DXC     -0.060700
     20 O1          1.6760    5.3120    0.5670 oh        1 DXC     -0.590800
     21 O2         -0.4170   -0.1120   -1.5270 oh        1 DXC     -0.601800
     22 C20         4.1110    4.8410    3.3490 c3        1 DXC     -0.086100
     23 C21         5.3180    8.4740    1.2320 c3        1 DXC     -0.067400
     24 C22         5.8690    9.5880    2.0900 c3        1 DXC     -0.195400
     25 C23         6.9170   10.4170    1.3230 c         1 DXC      0.907600
     26 O3          7.8040    9.8060    0.6600 o         1 DXC     -0.852300
     27 O4          6.8490   11.6770    1.4160 o         1 DXC     -0.852300
     28 C24         3.1990    8.0100    2.4550 c3        1 DXC     -0.087100
     29 H1         -0.3530   -1.0850    0.3070 h1        1 DXC      0.025700
     30 H22         1.9130   -0.9830   -0.7110 hc        1 DXC      0.057200
     31 H21         1.8570    0.8210   -0.7550 hc        1 DXC      0.057200
     32 H3          1.7750   -1.0050    1.7460 hc        1 DXC      0.035700
     33 H52        -0.4410    1.9330    2.5820 hc        1 DXC      0.038200
     34 H51        -0.3550    0.1330    2.5370 hc        1 DXC      0.038200
     35 H62        -0.2910    2.0130    0.0760 hc        1 DXC      0.046200
     36 H61        -1.6770    0.9980    0.6390 hc        1 DXC      0.046200
     37 H72         4.0080   -0.2430    2.2130 hc        1 DXC      0.035700
     38 H71         3.9660   -0.8310    0.5040 hc        1 DXC      0.035700
     39 H82         5.2690    1.3040    0.7740 hc        1 DXC      0.044200
     40 H81         3.8720    1.4800   -0.3570 hc        1 DXC      0.044200
     41 H9          4.0080    2.3260    2.6120 hc        1 DXC      0.049700
     42 H10         1.7450    2.5720    0.5050 hc        1 DXC      0.058700
     43 H11         3.5730    3.9340    0.0150 hc        1 DXC      0.065700
     44 H13         1.7280    5.8030    2.5910 h1        1 DXC      0.036700
     45 H142        1.7260    3.5350    3.4370 hc        1 DXC      0.036200
     46 H141        0.4160    3.6960    2.1960 hc        1 DXC      0.036200
     47 H152        5.9120    3.5780   -0.1590 hc        1 DXC      0.032200
     48 H151        6.1660    3.5650    1.6280 hc        1 DXC      0.032200
     49 H162        6.0020    5.9180   -0.2130 hc        1 DXC      0.056200
     50 H161        6.5250    5.8610    1.5130 hc        1 DXC      0.056200
     51 H17         3.7790    6.4170    0.2980 hc        1 DXC      0.064700
     52 H183        1.3620    1.6120    4.2060 hc        1 DXC      0.033700
     53 H182        2.9880    0.9850    3.7150 hc        1 DXC      0.033700
     54 H181        1.5880   -0.1500    3.8640 hc        1 DXC      0.033700
     55 H19         5.1340    7.1960    2.9640 hc        1 DXC      0.040700
     56 H1O1        0.7230    5.4450    0.6160 ho        1 DXC      0.388000
     57 H2         -1.3650    0.0590   -1.5240 ho        1 DXC      0.395000
     58 H203        3.7530    5.7080    3.9560 hc        1 DXC      0.035367
     59 H202        5.2280    4.8270    3.3760 hc        1 DXC      0.035367
     60 H201        3.7350    3.9070    3.8290 hc        1 DXC      0.035367
     61 H212        6.1850    7.9890    0.7070 hc        1 DXC      0.048700
     62 H211        4.6480    8.9020    0.4410 hc        1 DXC      0.048700
     63 H222        5.0510   10.2670    2.4380 hc        1 DXC      0.018700
     64 H221        6.3720    9.1630    2.9950 hc        1 DXC      0.018700
     65 H243        3.3160    9.0820    2.7470 hc        1 DXC      0.025033
     66 H242        2.7780    7.4590    3.3310 hc        1 DXC      0.025033
     67 H241        2.4660    7.9500    1.6140 hc        1 DXC      0.025033
@<TRIPOS>BOND
     1    1    2 1   
     2    1    6 1   
     3    1   21 1   
     4    1   29 1   
     5    2    3 1   
     6    2   30 1   
     7    2   31 1   
     8    3    4 1   
     9    3    7 1   
    10    3   32 1   
    11    4    5 1   
    12    4   10 1   
    13    4   18 1   
    14    5    6 1   
    15    5   33 1   
    16    5   34 1   
    17    6   35 1   
    18    6   36 1   
    19    7    8 1   
    20    7   37 1   
    21    7   38 1   
    22    8    9 1   
    23    8   39 1   
    24    8   40 1   
    25    9   10 1   
    26    9   11 1   
    27    9   41 1   
    28   10   14 1   
    29   10   42 1   
    30   11   12 1   
    31   11   15 1   
    32   11   43 1   
    33   12   13 1   
    34   12   17 1   
    35   12   22 1   
    36   13   14 1   
    37   13   20 1   
    38   13   44 1   
    39   14   45 1   
    40   14   46 1   
    41   15   16 1   
    42   15   47 1   
    43   15   48 1   
    44   16   17 1   
    45   16   49 1   
    46   16   50 1   
    47   17   19 1   
    48   17   51 1   
    49   18   52 1   
    50   18   53 1   
    51   18   54 1   
    52   19   23 1   
    53   19   28 1   
    54   19   55 1   
    55   20   56 1   
    56   21   57 1   
    57   22   58 1   
    58   22   59 1   
    59   22   60 1   
    60   23   24 1   
    61   23   61 1   
    62   23   62 1   
    63   24   25 1   
    64   24   63 1   
    65   24   64 1   
    66   25   26 1   
    67   25   27 1   
    68   28   65 1   
    69   28   66 1   
    70   28   67 1   
@<TRIPOS>SUBSTRUCTURE
     1 DXC         1 TEMP              0 ****  ****    0 ROOT
