@<TRIPOS>MOLECULE
DXD
   24    24     1     0     0
SMALL
bcc


@<TRIPOS>ATOM
      1 P           1.4110    3.4880   -2.4620 p5        1 DXD      1.329900
      2 OP1         2.5210    4.4960   -2.4960 o         1 DXD     -0.931833
      3 OP2         0.0400    3.9790   -2.0860 o         1 DXD     -0.931833
      4 O5'         1.8250    2.4920   -1.0990 os        1 DXD     -0.565200
      5 C5'         0.8590    1.5880   -0.7490 c3        1 DXD      0.242400
      6 C4'         1.2890    0.1390   -1.0590 c3        1 DXD     -0.142700
      7 C1'         0.4420   -2.1610   -0.8960 c3        1 DXD      0.136100
      8 C6'         0.6550   -0.8660   -0.1060 c3        1 DXD     -0.100400
      9 O6'         1.4680   -3.1110   -0.6260 oh        1 DXD     -0.640800
     10 C2'         0.4170   -1.7710   -2.3760 c3        1 DXD     -0.124400
     11 C3'         0.8950   -0.3100   -2.4800 c3        1 DXD      0.177100
     12 O3'         2.0000   -0.2770   -3.3570 oh        1 DXD     -0.687800
     13 OP3         1.4230    2.4290   -3.5450 o         1 DXD     -0.931833
     14 H5'1        0.6900    1.6410    0.3720 h1        1 DXD     -0.014300
     15 H5'2       -0.1190    1.8170   -1.2620 h1        1 DXD     -0.014300
     16 H4'         2.4070    0.0920   -0.9740 hc        1 DXD      0.058700
     17 H1'        -0.4970   -2.6920   -0.5850 h1        1 DXD      0.031700
     18 H6'1        1.3040   -1.0510    0.7840 hc        1 DXD      0.029200
     19 H6'2       -0.3320   -0.4880    0.2600 hc        1 DXD      0.029200
     20 H7'         2.2980   -2.6910   -0.8840 ho        1 DXD      0.407000
     21 H2'1        1.0840   -2.4420   -2.9710 hc        1 DXD      0.033200
     22 H2'2       -0.6200   -1.8640   -2.7790 hc        1 DXD      0.033200
     23 H3'         0.0770    0.3460   -2.8860 h1        1 DXD      0.075700
     24 HO3'        2.1270    0.6770   -3.5810 ho        1 DXD      0.502000
@<TRIPOS>BOND
     1    1    2 1   
     2    1    3 1   
     3    1    4 1   
     4    1   13 1   
     5    4    5 1   
     6    5    6 1   
     7    5   14 1   
     8    5   15 1   
     9    6    8 1   
    10    6   11 1   
    11    6   16 1   
    12    7    8 1   
    13    7    9 1   
    14    7   10 1   
    15    7   17 1   
    16    8   18 1   
    17    8   19 1   
    18    9   20 1   
    19   10   11 1   
    20   10   21 1   
    21   10   22 1   
    22   11   12 1   
    23   11   23 1   
    24   12   24 1   
@<TRIPOS>SUBSTRUCTURE
     1 DXD         1 TEMP              0 ****  ****    0 ROOT
