@<TRIPOS>MOLECULE
DXD
   24    23     1     0     0
SMALL
bcc


@<TRIPOS>ATOM
      1 P           1.9120    3.1940    0.5540 p4        1 DXD      1.695200
      2 OP1         2.9960    2.4060    1.2490 o         1 DXD     -0.925500
      3 OP2         1.0750    3.9160    1.5830 os        1 DXD     -1.264000
      4 O5'         0.9940    2.2090   -0.2760 os        1 DXD     -0.567200
      5 C5'         0.6770    0.9550    0.2840 c3        1 DXD      0.228400
      6 C4'        -0.1390    0.1310   -0.7290 c3        1 DXD     -0.140700
      7 C1'        -0.1110   -2.0480    0.2300 c3        1 DXD      0.137100
      8 C6'         0.4270   -1.4300   -0.7820 c3        1 DXD     -0.098400
      9 O6'        -0.3810   -3.4450   -0.1140 oh        1 DXD     -0.644800
     10 C2'        -1.4740   -1.2760    0.5080 c3        1 DXD     -0.119400
     11 C3'        -1.3870    0.0560   -0.3450 c3        1 DXD      0.143100
     12 O3'        -2.2710   -0.0290   -1.5080 oh        1 DXD     -0.685800
     13 OP3         2.5420    4.2010   -0.3790 o         1 DXD     -0.974300
     14 H5'1        1.5030    0.4770    0.5030 h1        1 DXD     -0.010300
     15 H5'2        0.1500    1.0850    1.0990 h1        1 DXD     -0.010300
     16 H4'        -0.0840    0.5390   -1.6160 hc        1 DXD      0.051700
     17 H1'         0.4750   -1.9970    1.0110 h1        1 DXD      0.028700
     18 H6'1        1.4040   -1.4370   -0.7000 hc        1 DXD      0.025200
     19 H6'2        0.1560   -1.8590   -1.6210 hc        1 DXD      0.025200
     20 H7'        -0.0130   -3.9760    0.4960 ho        1 DXD      0.413000
     21 H2'1       -2.2350   -1.8160    0.2160 hc        1 DXD      0.037200
     22 H2'2       -1.5540   -1.0630    1.4600 hc        1 DXD      0.037200
     23 H3'        -1.6210    0.8290    0.2050 h1        1 DXD      0.135700
     24 HO3'       -3.0400    0.3790   -1.3270 ho        1 DXD      0.483000
@<TRIPOS>BOND
     1    1    2 1   
     2    1    4 1   
     3    1   13 2   
     4    4    5 1   
     5    5    6 1   
     6    5   14 1   
     7    5   15 1   
     8    6    8 1   
     9    6   11 1   
    10    6   16 1   
    11    7    8 1   
    12    7    9 1   
    13    7   10 1   
    14    7   17 1   
    15    8   18 1   
    16    8   19 1   
    17    9   20 1   
    18   10   11 1   
    19   10   21 1   
    20   10   22 1   
    21   11   12 1   
    22   11   23 1   
    23   12   24 1   
@<TRIPOS>SUBSTRUCTURE
     1 DXD         1 TEMP              0 ****  ****    0 ROOT
