@<TRIPOS>MOLECULE
DXE
   16    15     1     0     0
SMALL
bcc


@<TRIPOS>ATOM
      1 C4          0.2290    0.0350    2.8480 c3        1 DXE      0.117700
      2 O2          0.0310    0.5710    1.5510 os        1 DXE     -0.425600
      3 C3         -0.6760   -0.3220    0.6910 c3        1 DXE      0.123400
      4 C2         -0.6760    0.3210   -0.6920 c3        1 DXE      0.123400
      5 O1          0.0310   -0.5710   -1.5520 os        1 DXE     -0.425600
      6 C1          0.2290   -0.0350   -2.8480 c3        1 DXE      0.117700
      7 H41         0.8410   -0.8990    2.8000 h1        1 DXE      0.033033
      8 H42         0.7790    0.8370    3.4000 h1        1 DXE      0.033033
      9 H43        -0.7520   -0.1780    3.3400 h1        1 DXE      0.033033
     10 H31        -1.7230   -0.4470    1.0710 h1        1 DXE      0.042700
     11 H32        -0.1640   -1.3210    0.6660 h1        1 DXE      0.042700
     12 H21        -0.1660    1.3210   -0.6660 h1        1 DXE      0.042700
     13 H22        -1.7240    0.4450   -1.0710 h1        1 DXE      0.042700
     14 H11         0.7800   -0.8360   -3.4010 h1        1 DXE      0.033033
     15 H12        -0.7520    0.1780   -3.3400 h1        1 DXE      0.033033
     16 H13         0.8400    0.9000   -2.7990 h1        1 DXE      0.033033
@<TRIPOS>BOND
     1    1    2 1   
     2    1    7 1   
     3    1    8 1   
     4    1    9 1   
     5    2    3 1   
     6    3    4 1   
     7    3   10 1   
     8    3   11 1   
     9    4    5 1   
    10    4   12 1   
    11    4   13 1   
    12    5    6 1   
    13    6   14 1   
    14    6   15 1   
    15    6   16 1   
@<TRIPOS>SUBSTRUCTURE
     1 DXE         1 TEMP              0 ****  ****    0 ROOT
