@<TRIPOS>MOLECULE
DXE
   16    15     1     0     0
SMALL
bcc


@<TRIPOS>ATOM
      1 C4         -0.0700   -0.1850    0.0240 c3        1 DXE      0.117700
      2 O2          1.3170   -0.4360    0.1730 os        1 DXE     -0.425600
      3 C3          1.8560    0.1540    1.3550 c3        1 DXE      0.123400
      4 C2          3.3640   -0.0680    1.2980 c3        1 DXE      0.123400
      5 O1          3.9610    1.2280    1.2570 os        1 DXE     -0.425600
      6 C1          5.3630    1.1740    1.0640 c3        1 DXE      0.117700
      7 H41        -0.3470   -0.7060   -0.9260 h1        1 DXE      0.033033
      8 H42        -0.2660    0.9130   -0.0590 h1        1 DXE      0.033033
      9 H43        -0.6420   -0.6090    0.8860 h1        1 DXE      0.033033
     10 H31         1.4140   -0.3520    2.2530 h1        1 DXE      0.042700
     11 H32         1.6150    1.2500    1.3860 h1        1 DXE      0.042700
     12 H21         3.7210   -0.6090    2.2130 h1        1 DXE      0.042700
     13 H22         3.6460   -0.6530    0.3820 h1        1 DXE      0.042700
     14 H11         5.6090    0.6880    0.0870 h1        1 DXE      0.033033
     15 H12         5.6860    2.2450    1.0610 h1        1 DXE      0.033033
     16 H13         5.8560    0.6180    1.8990 h1        1 DXE      0.033033
@<TRIPOS>BOND
     1    1    2 1   
     2    1    7 1   
     3    1    8 1   
     4    1    9 1   
     5    2    3 1   
     6    3    4 1   
     7    3   10 1   
     8    3   11 1   
     9    4    5 1   
    10    4   12 1   
    11    4   13 1   
    12    5    6 1   
    13    6   14 1   
    14    6   15 1   
    15    6   16 1   
@<TRIPOS>SUBSTRUCTURE
     1 DXE         1 TEMP              0 ****  ****    0 ROOT
