@<TRIPOS>MOLECULE
DXE
   16    15     1     0     0
SMALL
bcc


@<TRIPOS>ATOM
      1 C4         -2.7350    0.0000   -1.2300 c3        1 DXE      0.118700
      2 O2         -1.3250    0.0000   -1.2300 os        1 DXE     -0.425600
      3 C3         -0.7540    0.0000    0.0580 c3        1 DXE      0.125400
      4 C2          0.7540    0.0000   -0.0580 c3        1 DXE      0.125400
      5 O1          1.3250   -0.0010    1.2300 os        1 DXE     -0.425600
      6 C1          2.7350   -0.0000    1.2300 c3        1 DXE      0.118700
      7 H41        -3.0600    0.7970   -0.7690 h1        1 DXE      0.033700
      8 H42        -3.0600   -0.7970   -0.7690 h1        1 DXE      0.033700
      9 H43        -3.0600    0.0000   -2.1500 h1        1 DXE      0.033700
     10 H31        -1.0430   -0.7970    0.5420 h1        1 DXE      0.039700
     11 H32        -1.0430    0.7970    0.5420 h1        1 DXE      0.039700
     12 H21         1.0430    0.7980   -0.5410 h1        1 DXE      0.039700
     13 H22         1.0430   -0.7960   -0.5430 h1        1 DXE      0.039700
     14 H11         3.0600   -0.0020    2.1500 h1        1 DXE      0.033700
     15 H12         3.0610   -0.7970    0.7680 h1        1 DXE      0.033700
     16 H13         3.0600    0.7970    0.7700 h1        1 DXE      0.033700
@<TRIPOS>BOND
     1    1    2 1   
     2    1    7 1   
     3    1    8 1   
     4    1    9 1   
     5    2    3 1   
     6    3    4 1   
     7    3   10 1   
     8    3   11 1   
     9    4    5 1   
    10    4   12 1   
    11    4   13 1   
    12    5    6 1   
    13    6   14 1   
    14    6   15 1   
    15    6   16 1   
@<TRIPOS>SUBSTRUCTURE
     1 DXE         1 TEMP              0 ****  ****    0 ROOT
