@<TRIPOS>MOLECULE
DXE
   16    15     1     0     0
SMALL
bcc


@<TRIPOS>ATOM
      1 C4         -0.0650   -0.1900    0.0170 c3        1 DXE      0.117700
      2 O2          1.3230   -0.4350    0.1650 os        1 DXE     -0.425600
      3 C3          1.8570    0.1420    1.3560 c3        1 DXE      0.123400
      4 C2          3.3660   -0.0680    1.2980 c3        1 DXE      0.123400
      5 O1          3.9540    1.2320    1.2650 os        1 DXE     -0.425600
      6 C1          5.3560    1.1900    1.0710 c3        1 DXE      0.117700
      7 H41        -0.3380   -0.7010   -0.9400 h1        1 DXE      0.033033
      8 H42        -0.2670    0.9070   -0.0530 h1        1 DXE      0.033033
      9 H43        -0.6360   -0.6290    0.8720 h1        1 DXE      0.033033
     10 H31         1.4170   -0.3790    2.2460 h1        1 DXE      0.042700
     11 H32         1.6080    1.2360    1.4010 h1        1 DXE      0.042700
     12 H21         3.7260   -0.6120    2.2100 h1        1 DXE      0.042700
     13 H22         3.6530   -0.6460    0.3790 h1        1 DXE      0.042700
     14 H11         5.6050    0.7120    0.0910 h1        1 DXE      0.033033
     15 H12         5.6710    2.2630    1.0750 h1        1 DXE      0.033033
     16 H13         5.8530    0.6320    1.9020 h1        1 DXE      0.033033
@<TRIPOS>BOND
     1    1    2 1   
     2    1    7 1   
     3    1    8 1   
     4    1    9 1   
     5    2    3 1   
     6    3    4 1   
     7    3   10 1   
     8    3   11 1   
     9    4    5 1   
    10    4   12 1   
    11    4   13 1   
    12    5    6 1   
    13    6   14 1   
    14    6   15 1   
    15    6   16 1   
@<TRIPOS>SUBSTRUCTURE
     1 DXE         1 TEMP              0 ****  ****    0 ROOT
