@<TRIPOS>MOLECULE
DXF
   46    47     1     0     0
SMALL
bcc


@<TRIPOS>ATOM
      1 C           0.1520    1.8810   -0.0280 c         1 DXF      0.547900
      2 N           1.8940    0.1230   -0.3160 n         1 DXF     -0.527900
      3 O           0.7510    2.3460    0.9420 o         1 DXF     -0.547100
      4 CA          0.6530    0.6680   -0.8120 c3        1 DXF     -0.049300
      5 CB         -0.4560   -0.4370   -0.8860 c3        1 DXF      0.286600
      6 CAA         5.0660    1.9170    1.9970 c3        1 DXF      0.132700
      7 NAB        -5.9730   -0.5640   -0.3000 n         1 DXF     -0.660000
      8 OAD        -6.8700   -1.5040    1.6340 o         1 DXF     -0.610000
      9 OAE        -4.6100    1.9030   -1.2170 o         1 DXF     -0.810300
     10 OAF         3.0130    0.1920   -2.3350 o         1 DXF     -0.593100
     11 OAG        -2.5580    2.7350   -1.5660 o         1 DXF     -0.810300
     12 CAI         5.8860   -3.7000   -1.4130 cc        1 DXF     -0.282300
     13 CAJ         4.6370   -3.7190   -2.0030 cd        1 DXF      0.257600
     14 CAK         5.9780   -2.4610   -0.6780 cc        1 DXF     -0.218300
     15 CAM        -2.3550   -1.2270    1.0500 c3        1 DXF      0.080900
     16 NAN         4.8910    0.1080    0.5520 n2        1 DXF     -0.411200
     17 NAP        -1.7020   -0.0060   -1.4730 nh        1 DXF     -0.696000
     18 OAQ         4.3530    1.2500    0.9300 os        1 DXF     -0.172300
     19 OAR        -5.0250   -0.3760    1.9070 os        1 DXF     -0.421900
     20 OAS         3.9310   -2.5640   -1.6870 os        1 DXF     -0.330800
     21 SAT        -0.6030   -1.2110    0.7370 ss        1 DXF     -0.374200
     22 CAU        -6.0100   -0.8150    1.0460 c         1 DXF      0.731100
     23 CAX        -3.0310   -0.0130    0.5540 c2        1 DXF     -0.244400
     24 CAY         4.2530   -0.5260   -0.4030 cf        1 DXF      0.291300
     25 CAZ        -2.6920    0.5490   -0.6370 ce        1 DXF      0.014800
     26 CBA         4.7760   -1.7980   -0.8690 cd        1 DXF      0.222400
     27 H1         -0.7900    2.3320   -0.4330 h4        1 DXF      0.089200
     28 H3          1.9850    0.0790    0.6750 hn        1 DXF      0.336500
     29 H5          0.8290    1.0330   -1.8750 h1        1 DXF      0.104700
     30 H6         -0.0590   -1.2480   -1.5650 h2        1 DXF      0.085700
     31 H7          5.1130    1.2740    2.9070 h1        1 DXF      0.051033
     32 H8          6.0900    2.2060    1.6620 h1        1 DXF      0.051033
     33 H9          4.4260    2.8180    2.1710 h1        1 DXF      0.051033
     34 H10        -6.7990   -0.7590   -0.8090 hn        1 DXF      0.334500
     35 H11        -5.3450    0.1230   -0.6710 hn        1 DXF      0.334500
     36 H13         6.6610   -4.4580   -1.4760 ha        1 DXF      0.157000
     37 H14         4.0940   -4.4100   -2.6410 h4        1 DXF      0.055100
     38 H15         6.8270   -2.1210   -0.0930 ha        1 DXF      0.166000
     39 H16        -4.5750    1.4600    0.9820 h1        1 DXF      0.074700
     40 H17        -2.7930   -2.1350    0.5640 h1        1 DXF      0.075200
     41 H18        -2.4650   -1.3340    2.1580 h1        1 DXF      0.075200
     42 H2         -3.5770    0.8980    2.4220 h1        1 DXF      0.074700
     43 H4         -1.5350    0.5930   -2.2670 hn        1 DXF      0.409800
     44 CAL        -4.0590    0.5800    1.4530 c3        1 DXF      0.181600
     45 CAV        -3.3530    1.8350   -1.1810 c         1 DXF      0.910800
     46 CAW         3.0030   -0.0290   -1.1100 c         1 DXF      0.574800
@<TRIPOS>BOND
     1    1    3 2   
     2    1    4 1   
     3    1   27 1   
     4    2    4 1   
     5    2   28 1   
     6    2   46 1   
     7    4    5 1   
     8    4   29 1   
     9    5   17 1   
    10    5   21 1   
    11    5   30 1   
    12    6   18 1   
    13    6   31 1   
    14    6   32 1   
    15    6   33 1   
    16    7   22 1   
    17    7   34 1   
    18    7   35 1   
    19    8   22 2   
    20    9   45 1   
    21   10   46 2   
    22   11   45 1   
    23   12   13 2   
    24   12   14 1   
    25   12   36 1   
    26   13   20 1   
    27   13   37 1   
    28   14   26 2   
    29   14   38 1   
    30   15   21 1   
    31   15   23 1   
    32   15   40 1   
    33   15   41 1   
    34   16   18 1   
    35   16   24 2   
    36   17   25 1   
    37   17   43 1   
    38   19   22 1   
    39   19   44 1   
    40   20   26 1   
    41   23   25 2   
    42   23   44 1   
    43   24   26 1   
    44   24   46 1   
    45   25   45 1   
    46   39   44 1   
    47   42   44 1   
@<TRIPOS>SUBSTRUCTURE
     1 DXF         1 TEMP              0 ****  ****    0 ROOT
