@<TRIPOS>MOLECULE
DXF
   48    45     1     0     0
SMALL
bcc


@<TRIPOS>ATOM
      1 C          -0.4170    0.6650   -1.2160 c2        1 DXF      0.183000
      2 N           0.8070    1.0580    2.3880 n4        1 DXF     -0.065000
      3 O          -0.4760    1.4900   -0.2980 o         1 DXF     -0.379000
      4 CA         -0.3600    0.9650    3.2370 c1        1 DXF     -0.159000
      5 CB         -1.3430    1.8450    3.3740 c2        1 DXF     -0.585000
      6 CAA         1.1270   -5.4290    3.8560 c1        1 DXF      0.015000
      7 NAB        -6.5530    5.4310   -0.9720 n4        1 DXF     -0.135000
      8 OAD        -4.2230    5.7840   -0.9660 o         1 DXF     -0.319000
      9 OAF         0.9730   -0.8250    1.0390 o         1 DXF     -0.242000
     10 CAI         4.5240    0.3790    5.7570 c1        1 DXF     -0.174000
     11 CAJ         5.3740    1.0070    6.3240 c1        1 DXF     -0.156000
     12 CAK         3.5280   -0.3870    5.1390 c2        1 DXF     -0.093000
     13 CAM        -2.8660    4.1910    3.5920 cy        1 DXF     -0.323000
     14 NAN         1.9510   -2.2790    3.5280 n2        1 DXF      0.109000
     15 NAP        -3.1120    2.8430    0.3270 n2        1 DXF     -0.193000
     16 OAQ         1.0730   -2.9840    2.9570 oh        1 DXF     -0.320000
     17 OAS         3.5590    0.8310    3.0530 oh        1 DXF     -0.307000
     18 SAT        -1.5220    3.3870    2.6800 s4        1 DXF      0.719000
     19 CAU        -5.1940    5.5400   -0.2630 c2        1 DXF      0.197000
     20 CAX        -3.8320    4.1160    2.4040 cy        1 DXF     -0.013000
     21 CAY         2.0780   -1.0040    3.1940 c2        1 DXF     -0.167000
     22 CAZ        -2.9240    3.3010    1.4710 cv        1 DXF     -0.130000
     23 CBA         3.0970   -0.1850    3.8730 c2        1 DXF      0.080000
     24 H1         -1.1970    0.6280   -2.0070 h4        1 DXF      0.105000
     25 H3          0.4110   -0.0730   -1.2800 h4        1 DXF      0.105000
     26 H5          0.6450    1.5210    1.4800 hn        1 DXF      0.229500
     27 H6         -2.4050    2.3370   -0.1670 hn        1 DXF      0.223000
     28 H7          0.5510   -5.7530    4.7320 ha        1 DXF      0.082500
     29 H8          1.1360   -4.0060    3.3790 ho        1 DXF      0.335000
     30 H9          1.6880   -6.2210    3.3450 ha        1 DXF      0.082500
     31 H10        -6.7900    4.4400   -1.0280 hn        1 DXF      0.228333
     32 H11        -6.5250    5.8210   -1.9150 hn        1 DXF      0.228333
     33 H13         6.1270    1.5590    6.8300 ha        1 DXF      0.236000
     34 H14         4.3640    1.1990    3.4500 ho        1 DXF      0.252000
     35 H15         3.0960   -1.2000    5.7510 ha        1 DXF      0.173000
     36 H16        -4.7550    3.5210    2.6380 hc        1 DXF      0.138000
     37 H17        -2.5870    5.2300    3.8760 h1        1 DXF      0.157000
     38 H18        -3.2160    3.6360    4.4870 h1        1 DXF      0.157000
     39 H2         -3.4260    6.2320    1.8390 h4        1 DXF      0.127000
     40 H4         -2.1410    1.5410    4.0750 h4        1 DXF      0.186000
     41 CAL        -4.1820    5.4420    1.8770 c2        1 DXF     -0.331000
     42 CAV        -4.4570    2.3020   -2.2230 c1        1 DXF      0.464000
     43 H21         1.5490    1.5640    2.8940 hn        1 DXF      0.229500
     44 HAB3       -7.2560    5.9130   -0.4140 hn        1 DXF      0.228333
     45 CAW         1.2820   -0.3510    2.1270 c2        1 DXF      0.372000
     46 OAE        -3.4600    1.6650   -2.3350 o         1 DXF     -0.231000
     47 OAG        -5.4630    2.9330   -2.1180 o         1 DXF     -0.231000
     48 OAR        -5.2790    5.5770    1.1620 os        1 DXF     -0.085000
@<TRIPOS>BOND
     1    1    3 1   
     2    1   24 1   
     3    1   25 1   
     4    2    4 1   
     5    2   26 1   
     6    2   43 1   
     7    2   45 1   
     8    4    5 1   
     9    5   18 1   
    10    5   40 1   
    11    6   28 1   
    12    6   30 1   
    13    7   19 1   
    14    7   31 1   
    15    7   32 1   
    16    7   44 1   
    17    8   19 1   
    18    9   45 1   
    19   10   11 1   
    20   10   12 1   
    21   11   33 1   
    22   12   23 1   
    23   12   35 1   
    24   13   18 1   
    25   13   20 1   
    26   13   37 1   
    27   13   38 1   
    28   14   16 1   
    29   14   21 1   
    30   15   22 1   
    31   15   27 1   
    32   16   29 1   
    33   17   23 1   
    34   17   34 1   
    35   18   22 1   
    36   19   48 1   
    37   20   22 1   
    38   20   36 1   
    39   20   41 1   
    40   21   23 1   
    41   21   45 1   
    42   39   41 1   
    43   41   48 1   
    44   42   46 1   
    45   42   47 1   
@<TRIPOS>SUBSTRUCTURE
     1 DXF         1 TEMP              0 ****  ****    0 ROOT
