@<TRIPOS>MOLECULE
DXF
   46    39     1     0     0
SMALL
bcc


@<TRIPOS>ATOM
      1 C           0.8930    0.3590   -2.0340 c1        1 DXF      0.168000
      2 N           0.5830   -1.2430   -0.2340 n3        1 DXF     -0.341000
      3 O           2.0610    0.0220   -2.0600 o         1 DXF     -0.304000
      4 CA         -0.0080   -0.0960   -0.8830 c2        1 DXF     -0.072000
      5 CB         -0.1490    0.9850    0.0810 c3        1 DXF     -0.097000
      6 CAA         0.3260   -6.7900   -1.0100 c3        1 DXF     -0.057000
      7 NAB        -1.0130    8.0460   -0.7680 n         1 DXF     -0.420000
      8 OAD         0.0980    6.8690   -2.3820 o         1 DXF     -0.421000
      9 OAE        -3.7170    2.9880   -0.9780 o         1 DXF     -0.544500
     10 OAF        -1.4380   -2.0840    0.4410 o         1 DXF     -0.354000
     11 OAG        -3.4620    3.1300    1.2120 o         1 DXF     -0.544500
     12 CAI         1.6750   -4.9960    3.8130 c1        1 DXF     -0.183000
     13 CAJ         0.3070   -4.8060    3.9950 c1        1 DXF     -0.054500
     14 CAK         2.0170   -4.4860    2.5800 c1        1 DXF     -0.183000
     15 CAL        -0.2740    4.4400   -1.3690 c3        1 DXF      0.026000
     16 CAM         1.3020    2.3050   -0.4100 c3        1 DXF     -0.183000
     17 NAN         0.3560   -4.5780   -0.3670 n1        1 DXF     -0.010000
     18 NAP        -1.5410    1.8020   -0.2390 n3        1 DXF     -0.251000
     19 OAQ         0.8780   -5.8160   -0.0970 o         1 DXF     -0.217000
     20 OAR        -0.5550    5.6200   -0.5880 os        1 DXF     -0.260000
     21 OAS        -0.1890   -4.1810    2.8730 os        1 DXF     -0.077000
     22 SAT         1.2660    1.9650    0.0250 ss        1 DXF     -0.013000
     23 CAU        -0.4710    6.8410   -1.3220 c2        1 DXF      0.385000
     24 CAV        -2.9910    2.8410    0.0760 c1        1 DXF      0.361000
     25 CAW        -0.2610   -2.2860    0.2840 c1        1 DXF      0.372000
     26 CAX        -0.1330    3.2130   -0.4200 c2        1 DXF     -0.237000
     27 CAY         0.3180   -3.6570    0.5800 c1        1 DXF     -0.037000
     28 CAZ        -1.5850    2.1840   -0.0390 c1        1 DXF     -0.048000
     29 CBA         0.8650   -3.9790    1.9930 c1        1 DXF     -0.054500
     30 H1          0.5070    0.8500   -2.7910 ha        1 DXF      0.182000
     31 H3          1.4930   -1.2930   -0.1270 hn        1 DXF      0.253000
     32 H5         -0.8980   -0.3400   -1.2370 h4        1 DXF      0.143000
     33 H6         -0.2200    0.5860    0.9990 h2        1 DXF      0.126000
     34 H7          0.7280   -6.6590   -1.9220 h1        1 DXF      0.087667
     35 H8          0.5370   -7.7140   -0.6820 h1        1 DXF      0.087667
     36 H9         -0.6660   -6.6740   -1.0630 h1        1 DXF      0.087667
     37 H10        -0.8280    8.8480   -1.1540 hn        1 DXF      0.248500
     38 H11        -1.5500    8.0070   -0.0170 hn        1 DXF      0.248500
     39 H13         2.2760   -5.4090    4.4390 DU        1 DXF      0.174333
     40 H14        -0.2160   -5.1070    4.7600 DU        1 DXF      0.174333
     41 H15         2.9140   -4.4810    2.1860 DU        1 DXF      0.174333
     42 H16         0.5750    4.5690   -1.8730 h1        1 DXF      0.115000
     43 H17         2.1390    2.8100   -0.5230 h1        1 DXF      0.115000
     44 H18         1.3210    1.7490   -1.2230 h1        1 DXF      0.115000
     45 H2         -1.0120    4.2830   -2.0030 h1        1 DXF      0.115000
     46 H4         -2.2590    1.3630   -0.5200 hn        1 DXF      0.205000
@<TRIPOS>BOND
     1    1    3 1   
     2    1   30 1   
     3    2    4 1   
     4    2   25 1   
     5    2   31 1   
     6    4    5 1   
     7    4   32 1   
     8    5   18 1   
     9    5   22 1   
    10    5   33 1   
    11    6   19 1   
    12    6   34 1   
    13    6   35 1   
    14    6   36 1   
    15    7   23 1   
    16    7   37 1   
    17    7   38 1   
    18    8   23 1   
    19    9   24 1   
    20   10   25 1   
    21   11   24 1   
    22   12   13 1   
    23   12   14 1   
    24   13   21 1   
    25   14   29 1   
    26   15   20 1   
    27   15   26 1   
    28   15   42 1   
    29   15   45 1   
    30   16   22 1   
    31   16   26 1   
    32   16   43 1   
    33   16   44 1   
    34   17   27 1   
    35   18   28 1   
    36   18   46 1   
    37   20   23 1   
    38   21   29 1   
    39   26   28 1   
@<TRIPOS>SUBSTRUCTURE
     1 DXF         1 TEMP              0 ****  ****    0 ROOT
