@<TRIPOS>MOLECULE
DXG
   21    20     1     0     0
SMALL
bcc


@<TRIPOS>ATOM
      1 O1B        -0.1460    0.6730    0.2070 o         1 DXG     -0.855800
      2 O1A         1.5040   -0.3570   -0.8920 o         1 DXG     -0.855800
      3 C1          0.9920    0.1330    0.1640 c         1 DXG      0.887600
      4 C2          1.8530    0.0610    1.4480 c3        1 DXG     -0.010900
      5 O2          3.1670    0.5220    1.1610 oh        1 DXG     -0.623800
      6 C3          1.8970   -1.3830    1.9860 c3        1 DXG      0.129100
      7 O3          2.6040   -2.2250    1.0790 oh        1 DXG     -0.638800
      8 C4          2.5970   -1.4700    3.3380 c3        1 DXG     -0.077400
      9 O5          0.9040   -2.8600    4.3720 oh        1 DXG     -0.643800
     10 C5          2.2940   -2.7650    4.0840 c3        1 DXG      0.026100
     11 C6          3.1200   -2.8540    5.3880 c         1 DXG      0.888600
     12 O6A         2.5140   -2.5830    6.4720 o         1 DXG     -0.858300
     13 O6B         4.3310   -3.2080    5.3380 o         1 DXG     -0.858300
     14 H21         1.4600    0.7570    2.2320 h1        1 DXG      0.060700
     15 HO21        3.4430    0.0380    0.3700 ho        1 DXG      0.406000
     16 H31         0.8400   -1.7610    2.0830 h1        1 DXG      0.044700
     17 HO31        2.2850   -1.9990    0.1910 ho        1 DXG      0.421000
     18 H41         2.2660   -0.6020    3.9630 hc        1 DXG      0.047200
     19 H42         3.7040   -1.4000    3.1880 hc        1 DXG      0.047200
     20 H51         2.5200   -3.6430    3.4200 h1        1 DXG      0.055700
     21 HO51        0.7850   -2.5020    5.2660 ho        1 DXG      0.409000
@<TRIPOS>BOND
     1    1    3 1   
     2    2    3 1   
     3    3    4 1   
     4    4    5 1   
     5    4    6 1   
     6    4   14 1   
     7    5   15 1   
     8    6    7 1   
     9    6    8 1   
    10    6   16 1   
    11    7   17 1   
    12    8   10 1   
    13    8   18 1   
    14    8   19 1   
    15    9   10 1   
    16    9   21 1   
    17   10   11 1   
    18   10   20 1   
    19   11   12 1   
    20   11   13 1   
@<TRIPOS>SUBSTRUCTURE
     1 DXG         1 TEMP              0 ****  ****    0 ROOT
