@<TRIPOS>MOLECULE
DXG
   21    20     1     0     0
SMALL
bcc


@<TRIPOS>ATOM
      1 O1B         3.1310   -1.4800   -0.9870 o         1 DXG     -0.850800
      2 O1A         4.0460    0.2010    0.1640 o         1 DXG     -0.850800
      3 C1          3.0720   -0.3450   -0.4390 c         1 DXG      0.896600
      4 C2          1.7630    0.4750   -0.5350 c3        1 DXG     -0.007900
      5 O2          1.9660    1.8070   -0.0800 oh        1 DXG     -0.650800
      6 C3          0.6020   -0.1480    0.2660 c3        1 DXG      0.136100
      7 O3          0.6010    0.3490    1.5980 oh        1 DXG     -0.615800
      8 C4         -0.7360    0.1320   -0.4170 c3        1 DXG     -0.114400
      9 O5         -1.9670   -1.8800    0.1280 oh        1 DXG     -0.639800
     10 C5         -1.9270   -0.4710    0.3190 c3        1 DXG      0.026100
     11 C6         -3.2490    0.1790   -0.1510 c         1 DXG      0.887600
     12 O6A        -3.9880   -0.5080   -0.9240 o         1 DXG     -0.858300
     13 O6B        -3.5510    1.3350    0.2550 o         1 DXG     -0.858300
     14 H21         1.4720    0.5620   -1.6160 h1        1 DXG      0.043700
     15 HO21        2.7580    1.7890    0.4820 ho        1 DXG      0.420000
     16 H31         0.7620   -1.2560    0.3750 h1        1 DXG      0.089700
     17 HO31        0.5360    1.3100    1.5290 ho        1 DXG      0.394000
     18 H41        -0.8900    1.2410   -0.4800 hc        1 DXG      0.043700
     19 H42        -0.7000   -0.2810   -1.4570 hc        1 DXG      0.043700
     20 H51        -1.7980   -0.3240    1.4260 h1        1 DXG      0.057700
     21 HO51       -2.5720   -2.0380   -0.6130 ho        1 DXG      0.409000
@<TRIPOS>BOND
     1    1    3 1   
     2    2    3 1   
     3    3    4 1   
     4    4    5 1   
     5    4    6 1   
     6    4   14 1   
     7    5   15 1   
     8    6    7 1   
     9    6    8 1   
    10    6   16 1   
    11    7   17 1   
    12    8   10 1   
    13    8   18 1   
    14    8   19 1   
    15    9   10 1   
    16    9   21 1   
    17   10   11 1   
    18   10   20 1   
    19   11   12 1   
    20   11   13 1   
@<TRIPOS>SUBSTRUCTURE
     1 DXG         1 TEMP              0 ****  ****    0 ROOT
