@<TRIPOS>MOLECULE
DXG
   21    20     1     0     0
SMALL
bcc


@<TRIPOS>ATOM
      1 O1B        -0.1650    0.7100    0.2570 o         1 DXG     -0.855800
      2 O1A         1.4650   -0.3190   -0.8730 o         1 DXG     -0.855800
      3 C1          0.9700    0.1640    0.1940 c         1 DXG      0.887600
      4 C2          1.8470    0.0740    1.4660 c3        1 DXG     -0.010900
      5 O2          3.1590    0.5300    1.1670 oh        1 DXG     -0.623800
      6 C3          1.8890   -1.3750    1.9900 c3        1 DXG      0.129100
      7 O3          2.5790   -2.2130    1.0650 oh        1 DXG     -0.638800
      8 C4          2.6050   -1.4800    3.3320 c3        1 DXG     -0.077400
      9 O5          0.9180   -2.8710    4.3730 oh        1 DXG     -0.643800
     10 C5          2.3050   -2.7810    4.0680 c3        1 DXG      0.026100
     11 C6          3.1470   -2.8870    5.3610 c         1 DXG      0.888600
     12 O6A         2.5570   -2.6240    6.4550 o         1 DXG     -0.858300
     13 O6B         4.3560   -3.2460    5.2910 o         1 DXG     -0.858300
     14 H21         1.4680    0.7650    2.2620 h1        1 DXG      0.060700
     15 HO21        3.4220    0.0520    0.3680 ho        1 DXG      0.406000
     16 H31         0.8310   -1.7480    2.0960 h1        1 DXG      0.044700
     17 HO31        2.2500   -1.9760    0.1840 ho        1 DXG      0.421000
     18 H41         2.2870   -0.6160    3.9700 hc        1 DXG      0.047200
     19 H42         3.7110   -1.4130    3.1680 hc        1 DXG      0.047200
     20 H51         2.5180   -3.6520    3.3930 h1        1 DXG      0.055700
     21 HO51        0.8130   -2.5220    5.2720 ho        1 DXG      0.409000
@<TRIPOS>BOND
     1    1    3 1   
     2    2    3 1   
     3    3    4 1   
     4    4    5 1   
     5    4    6 1   
     6    4   14 1   
     7    5   15 1   
     8    6    7 1   
     9    6    8 1   
    10    6   16 1   
    11    7   17 1   
    12    8   10 1   
    13    8   18 1   
    14    8   19 1   
    15    9   10 1   
    16    9   21 1   
    17   10   11 1   
    18   10   20 1   
    19   11   12 1   
    20   11   13 1   
@<TRIPOS>SUBSTRUCTURE
     1 DXG         1 TEMP              0 ****  ****    0 ROOT
