@<TRIPOS>MOLECULE
DXL
   18    17     1     0     0
SMALL
bcc


@<TRIPOS>ATOM
      1 OAA        -3.0940   -1.4540    0.0200 o         1 DXL     -0.860300
      2 OAB        -1.3930    1.3720    1.1250 oh        1 DXL     -0.641300
      3 OAC         1.5570    1.7350   -0.7140 oh        1 DXL     -0.641300
      4 CAF        -2.5990   -0.3020   -0.1220 c         1 DXL      0.898100
      5 CAG        -1.2710    0.0590    0.5890 c3        1 DXL     -0.002400
      6 CAH        -0.0570   -0.0190   -0.3620 c3        1 DXL      0.131100
      7 CAI         1.1750    0.7180    0.2070 c3        1 DXL     -0.002400
      8 CAJ         2.3760   -0.1940    0.5410 c         1 DXL      0.898100
      9 OAK         3.4850    0.0830   -0.0120 o         1 DXL     -0.860300
     10 OAL         0.2330   -1.3660   -0.6840 oh        1 DXL     -0.618800
     11 HAG        -1.1020   -0.6090    1.4740 h1        1 DXL      0.059700
     12 HAH        -0.3420    0.4510   -1.3460 h1        1 DXL      0.065700
     13 HAI         0.8770    1.2660    1.1450 h1        1 DXL      0.059700
     14 HOAL        0.5580   -1.7860    0.1270 ho        1 DXL      0.420000
     15 HOAB       -1.8460    1.8930    0.4450 ho        1 DXL      0.408500
     16 OAD         2.2280   -1.1470    1.3590 o         1 DXL     -0.860300
     17 OAE        -3.1670    0.6290   -0.7740 o         1 DXL     -0.860300
     18 HOAC        2.3810    1.4400   -1.1310 ho        1 DXL      0.408500
@<TRIPOS>BOND
     1    1    4 1   
     2    2    5 1   
     3    2   15 1   
     4    3    7 1   
     5    3   18 1   
     6    4    5 1   
     7    4   17 1   
     8    5    6 1   
     9    5   11 1   
    10    6    7 1   
    11    6   10 1   
    12    6   12 1   
    13    7    8 1   
    14    7   13 1   
    15    8    9 1   
    16    8   16 1   
    17   10   14 1   
@<TRIPOS>SUBSTRUCTURE
     1 DXL         1 TEMP              0 ****  ****    0 ROOT
