@<TRIPOS>MOLECULE
DXL
   18    16     1     0     0
SMALL
bcc


@<TRIPOS>ATOM
      1 OAA      -304.4270  333.6330 -904.3960 o         1 DXL     -0.573000
      2 OAB      -302.4860  334.3880 -902.0330 oh        1 DXL     -0.313000
      3 OAC       247.6130 -268.3240  725.2540 oh        1 DXL     -0.347000
      4 CAF      -303.1990  333.4740 -904.1550 c2        1 DXL      0.344000
      5 CAG      -302.7920  333.1700 -902.6900 c3        1 DXL     -0.097000
      6 CAH       245.3680 -269.0580  725.4680 c1        1 DXL     -0.046000
      7 CAI       246.4560 -268.2350  726.0670 c3        1 DXL     -0.133000
      8 CAJ       246.7460 -268.7620  727.5210 c2        1 DXL      0.337000
      9 OAK       247.8570 -269.3370  727.6790 o         1 DXL     -0.549500
     10 OAL       244.1740 -268.4860  725.5900 oh        1 DXL     -0.238000
     11 HAG      -303.6390  332.6600 -902.1590 h1        1 DXL      0.032000
     12 HAH      -301.8930  332.4990 -902.6780 h1        1 DXL      0.032000
     13 HAI       246.2160 -267.1380  726.1390 h1        1 DXL      0.089000
     14 HOAL      243.5280 -269.1240  725.2490 ho        1 DXL      0.215000
     15 HOAB     -302.2290  334.1470 -901.1360 ho        1 DXL      0.148000
     16 OAD       245.8810 -268.5540  728.4080 o         1 DXL     -0.549500
     17 OAE      -302.2860  333.4780 -905.0260 o         1 DXL     -0.573000
     18 HOAC      248.1810 -269.0060  725.6490 ho        1 DXL      0.223000
@<TRIPOS>BOND
     1    1    4 1   
     2    2    5 1   
     3    2   15 1   
     4    3    7 1   
     5    3   18 1   
     6    4    5 1   
     7    4   17 1   
     8    5   11 1   
     9    5   12 1   
    10    6    7 1   
    11    6   10 1   
    12    7    8 1   
    13    7   13 1   
    14    8    9 1   
    15    8   16 1   
    16   10   14 1   
@<TRIPOS>SUBSTRUCTURE
     1 DXL         1 TEMP              0 ****  ****    0 ROOT
