@<TRIPOS>MOLECULE
DXL
   18    17     1     0     0
SMALL
bcc


@<TRIPOS>ATOM
      1 OAA        -0.9760   -0.7160   -2.9810 o         1 DXL     -0.860800
      2 OAB        -0.9760   -1.9590    0.2810 oh        1 DXL     -0.621300
      3 OAC         1.0630   -0.0370    1.9150 oh        1 DXL     -0.621300
      4 OAD         2.1280    2.3530   -0.4060 o         1 DXL     -0.860800
      5 OAE        -2.6610   -1.0440   -1.6360 o         1 DXL     -0.860800
      6 CAF        -1.4220   -0.9260   -1.8220 c         1 DXL      0.889100
      7 CAG        -0.4680   -1.0370   -0.6540 c3        1 DXL      0.015100
      8 CAH        -0.3180    0.3160    0.0030 c3        1 DXL      0.114100
      9 CAI         1.0700    0.4400    0.5910 c3        1 DXL      0.015100
     10 CAJ         1.4950    1.8910    0.5790 c         1 DXL      0.889100
     11 OAK         1.2160    2.6360    1.5540 o         1 DXL     -0.860800
     12 OAL        -1.2750    0.4500    1.0280 oh        1 DXL     -0.637800
     13 HOAB       -0.6410   -2.7650    0.1130 ho        1 DXL      0.407500
     14 HOAC        1.8570   -0.3860    2.1090 ho        1 DXL      0.407500
     15 HAG         0.4040   -1.3430   -0.9730 h1        1 DXL      0.058700
     16 HAH        -0.4530    1.0190   -0.6630 h1        1 DXL      0.045700
     17 HAI         1.6970   -0.0880    0.0580 h1        1 DXL      0.058700
     18 HOAL       -1.7410    1.1970    0.9030 ho        1 DXL      0.423000
@<TRIPOS>BOND
     1    1    6 1   
     2    2    7 1   
     3    2   13 1   
     4    3    9 1   
     5    3   14 1   
     6    4   10 1   
     7    5    6 1   
     8    6    7 1   
     9    7    8 1   
    10    7   15 1   
    11    8    9 1   
    12    8   12 1   
    13    8   16 1   
    14    9   10 1   
    15    9   17 1   
    16   10   11 1   
    17   12   18 1   
@<TRIPOS>SUBSTRUCTURE
     1 DXL         1 TEMP              0 ****  ****    0 ROOT
