@<TRIPOS>MOLECULE
DXL
   18    16     1     0     0
SMALL
bcc


@<TRIPOS>ATOM
      1 OAA       -11.3530  223.2580 -305.9050 o         1 DXL     -0.572000
      2 OAB       -12.5240  222.9400 -308.7800 oh        1 DXL     -0.213000
      3 OAC         9.5820 -114.6240  157.2230 oh        1 DXL     -0.369000
      4 CAF       -11.4880  222.3130 -306.7360 c2        1 DXL      0.294000
      5 CAG       -12.7130  222.3310 -307.6260 c1        1 DXL     -0.124000
      6 CAH        10.3510 -112.4140  156.7180 c3        1 DXL     -0.006000
      7 CAI         9.2860 -113.2540  157.4260 c3        1 DXL     -0.084000
      8 CAJ         7.8730 -112.8760  156.9180 c2        1 DXL      0.311000
      9 OAK         7.1680 -113.8060  156.4340 o         1 DXL     -0.570000
     10 OAL        10.3070 -111.0590  157.1170 oh        1 DXL     -0.378000
     11 HAG        11.3800 -112.7720  156.9860 h1        1 DXL      0.059000
     12 HAH        10.2160 -112.4860  155.6060 h1        1 DXL      0.059000
     13 HAI         9.3400 -113.0690  158.5340 h1        1 DXL      0.082000
     14 HOAL        9.3710 -110.7940  157.1180 ho        1 DXL      0.243000
     15 HOAB      -13.3640  222.8950 -309.2700 ho        1 DXL      0.187000
     16 OAD         7.5150 -111.6680  157.0130 o         1 DXL     -0.570000
     17 OAE       -10.7140  221.3160 -306.8240 o         1 DXL     -0.572000
     18 HOAC        8.8400 -114.9990  156.7200 ho        1 DXL      0.224000
@<TRIPOS>BOND
     1    1    4 1   
     2    2    5 1   
     3    2   15 1   
     4    3    7 1   
     5    3   18 1   
     6    4    5 1   
     7    4   17 1   
     8    6    7 1   
     9    6   10 1   
    10    6   11 1   
    11    6   12 1   
    12    7    8 1   
    13    7   13 1   
    14    8    9 1   
    15    8   16 1   
    16   10   14 1   
@<TRIPOS>SUBSTRUCTURE
     1 DXL         1 TEMP              0 ****  ****    0 ROOT
