@<TRIPOS>MOLECULE
DXO
   43    45     1     0     0
SMALL
bcc


@<TRIPOS>ATOM
      1 C11         0.3890   -1.5970   -0.0650 c3        1 DXO     -0.062300
      2 C10         1.6330   -0.7940   -0.0010 ca        1 DXO     -0.036800
      3 C9          2.3450   -0.6960    1.2000 ca        1 DXO     -0.140000
      4 C8          3.5120    0.0610    1.2680 ca        1 DXO     -0.113000
      5 C7          3.9830    0.7280    0.1390 ca        1 DXO     -0.140000
      6 C5          3.2890    0.6440   -1.0740 ca        1 DXO     -0.036800
      7 C6          3.7950    1.3540   -2.2720 c3        1 DXO     -0.062300
      8 C4          2.1150   -0.1210   -1.1330 cp        1 DXO     -0.138500
      9 C3          1.3690   -0.2210   -2.4210 cp        1 DXO      0.768500
     10 N2          1.7460   -1.2130   -3.2890 nb        1 DXO     -0.779000
     11 C1          1.0190   -1.2680   -4.4500 ca        1 DXO      0.766300
     12 S           1.3860   -2.4820   -5.6140 ss        1 DXO     -0.185400
     13 C           2.7030   -3.4040   -4.9260 c3        1 DXO     -0.070000
     14 N1          0.3680    0.6780   -2.6310 nb        1 DXO     -0.777000
     15 C2         -0.2990    0.5590   -3.8540 ca        1 DXO      0.897900
     16 N          -0.0070   -0.4330   -4.7870 nb        1 DXO     -0.773000
     17 N3         -1.2610    1.5320   -4.1880 nh        1 DXO     -0.727300
     18 C15        -2.1760    1.2330   -5.2790 c3        1 DXO      0.202800
     19 C14        -3.0030    2.4550   -5.7300 c3        1 DXO      0.152800
     20 N4         -3.6110    3.1670   -4.6260 n3        1 DXO     -0.820200
     21 C13        -2.6460    3.5360   -3.6120 c3        1 DXO      0.152800
     22 C12        -1.8110    2.3390   -3.1100 c3        1 DXO      0.202800
     23 H111        0.1950   -2.1200    0.9040 hc        1 DXO      0.050533
     24 H112       -0.4850   -0.9360   -0.2890 hc        1 DXO      0.050533
     25 H113        0.4640   -2.3680   -0.8720 hc        1 DXO      0.050533
     26 H9          1.9770   -1.2200    2.0950 ha        1 DXO      0.134000
     27 H8          4.0650    0.1330    2.2160 ha        1 DXO      0.132000
     28 H7          4.9050    1.3250    0.1980 ha        1 DXO      0.134000
     29 H61C        4.0610    0.6190   -3.0730 hc        1 DXO      0.050533
     30 H62C        4.7060    1.9560   -2.0310 hc        1 DXO      0.050533
     31 H63C        3.0120    2.0450   -2.6740 hc        1 DXO      0.050533
     32 HC1         3.6150   -2.7900   -4.7520 h1        1 DXO      0.078367
     33 HC2         2.9270   -4.1870   -5.6900 h1        1 DXO      0.078367
     34 HC3         2.4290   -3.8960   -3.9660 h1        1 DXO      0.078367
     35 H151       -2.8800    0.4050   -4.9780 h1        1 DXO      0.063950
     36 H152       -1.5870    0.8900   -6.1760 h1        1 DXO      0.063950
     37 H121       -2.4540    1.7010   -2.4380 h1        1 DXO      0.063950
     38 H122       -0.9690    2.7660   -2.4950 h1        1 DXO      0.063950
     39 H141       -3.8300    2.0740   -6.3930 h1        1 DXO      0.039700
     40 H142       -2.3380    3.1220   -6.3540 h1        1 DXO      0.039700
     41 H4         -4.0930    3.9810   -4.9600 hn        1 DXO      0.367800
     42 H131       -1.9350    4.3380   -3.9700 h1        1 DXO      0.039700
     43 H132       -3.2110    3.9450   -2.7290 h1        1 DXO      0.039700
@<TRIPOS>BOND
     1    1    2 1   
     2    1   23 1   
     3    1   24 1   
     4    1   25 1   
     5    2    3 ar  
     6    2    8 ar  
     7    3    4 ar  
     8    3   26 1   
     9    4    5 ar  
    10    4   27 1   
    11    5    6 ar  
    12    5   28 1   
    13    6    7 1   
    14    6    8 ar  
    15    7   29 1   
    16    7   30 1   
    17    7   31 1   
    18    8    9 1   
    19    9   10 ar  
    20    9   14 ar  
    21   10   11 ar  
    22   11   12 1   
    23   11   16 ar  
    24   12   13 1   
    25   13   32 1   
    26   13   33 1   
    27   13   34 1   
    28   14   15 ar  
    29   15   16 ar  
    30   15   17 1   
    31   17   18 1   
    32   17   22 1   
    33   18   19 1   
    34   18   35 1   
    35   18   36 1   
    36   19   20 1   
    37   19   39 1   
    38   19   40 1   
    39   20   21 1   
    40   20   41 1   
    41   21   22 1   
    42   21   42 1   
    43   21   43 1   
    44   22   37 1   
    45   22   38 1   
@<TRIPOS>SUBSTRUCTURE
     1 DXO         1 TEMP              0 ****  ****    0 ROOT
