@<TRIPOS>MOLECULE
DXO
   43    45     1     0     0
SMALL
bcc


@<TRIPOS>ATOM
      1 C11         0.4180   -1.6050   -0.0690 c3        1 DXO     -0.062300
      2 C10         1.6560   -0.7930   -0.0090 ca        1 DXO     -0.036800
      3 C9          2.3740   -0.6910    1.1880 ca        1 DXO     -0.140000
      4 C8          3.5350    0.0740    1.2520 ca        1 DXO     -0.113000
      5 C7          3.9950    0.7470    0.1220 ca        1 DXO     -0.140000
      6 C5          3.2960    0.6610   -1.0880 ca        1 DXO     -0.036800
      7 C6          3.7910    1.3780   -2.2860 c3        1 DXO     -0.062300
      8 C4          2.1270   -0.1130   -1.1420 cp        1 DXO     -0.138500
      9 C3          1.3750   -0.2160   -2.4270 cp        1 DXO      0.768500
     10 N2          1.7560   -1.2020   -3.3000 nb        1 DXO     -0.779000
     11 C1          1.0230   -1.2600   -4.4570 ca        1 DXO      0.766300
     12 S           1.3940   -2.4680   -5.6260 ss        1 DXO     -0.185400
     13 C           2.7210   -3.3820   -4.9470 c3        1 DXO     -0.070000
     14 N1          0.3660    0.6760   -2.6290 nb        1 DXO     -0.777000
     15 C2         -0.3060    0.5550   -3.8490 ca        1 DXO      0.897900
     16 N          -0.0110   -0.4320   -4.7860 nb        1 DXO     -0.773000
     17 N3         -1.2770    1.5210   -4.1760 nh        1 DXO     -0.727300
     18 C15        -2.1950    1.2180   -5.2630 c3        1 DXO      0.202800
     19 C14        -3.0340    2.4350   -5.7070 c3        1 DXO      0.152800
     20 N4         -3.6420    3.1390   -4.5980 n7        1 DXO     -0.820200
     21 C13        -2.6740    3.5130   -3.5880 c3        1 DXO      0.152800
     22 C12        -1.8270    2.3220   -3.0930 c3        1 DXO      0.202800
     23 H111        0.2340   -2.1320    0.8990 hc        1 DXO      0.050533
     24 H112       -0.4620   -0.9490   -0.2860 hc        1 DXO      0.050533
     25 H113        0.4940   -2.3720   -0.8790 hc        1 DXO      0.050533
     26 H9          2.0150   -1.2200    2.0840 ha        1 DXO      0.134000
     27 H8          4.0920    0.1480    2.1980 ha        1 DXO      0.132000
     28 H7          4.9130    1.3510    0.1770 ha        1 DXO      0.134000
     29 H61C        4.6970    1.9860   -2.0490 hc        1 DXO      0.050533
     30 H62C        3.0000    2.0630   -2.6840 hc        1 DXO      0.050533
     31 H63C        4.0580    0.6460   -3.0900 hc        1 DXO      0.050533
     32 HC1         2.4560   -3.8780   -3.9860 h1        1 DXO      0.078367
     33 HC2         3.6290   -2.7610   -4.7760 h1        1 DXO      0.078367
     34 HC3         2.9470   -4.1610   -5.7130 h1        1 DXO      0.078367
     35 H151       -1.6090    0.8810   -6.1640 h1        1 DXO      0.063950
     36 H152       -2.8910    0.3840   -4.9600 h1        1 DXO      0.063950
     37 H121       -2.4620    1.6770   -2.4200 h1        1 DXO      0.063950
     38 H122       -0.9850    2.7530   -2.4810 h1        1 DXO      0.063950
     39 H141       -2.3770    3.1080   -6.3330 h1        1 DXO      0.039700
     40 H142       -3.8610    2.0490   -6.3670 h1        1 DXO      0.039700
     41 H4         -4.1320    3.9500   -4.9270 hn        1 DXO      0.367800
     42 H131       -3.2380    3.9160   -2.7000 h1        1 DXO      0.039700
     43 H132       -1.9710    4.3210   -3.9480 h1        1 DXO      0.039700
@<TRIPOS>BOND
     1    1    2 1   
     2    1   23 1   
     3    1   24 1   
     4    1   25 1   
     5    2    3 ar  
     6    2    8 ar  
     7    3    4 ar  
     8    3   26 1   
     9    4    5 ar  
    10    4   27 1   
    11    5    6 ar  
    12    5   28 1   
    13    6    7 1   
    14    6    8 ar  
    15    7   29 1   
    16    7   30 1   
    17    7   31 1   
    18    8    9 1   
    19    9   10 ar  
    20    9   14 ar  
    21   10   11 ar  
    22   11   12 1   
    23   11   16 ar  
    24   12   13 1   
    25   13   32 1   
    26   13   33 1   
    27   13   34 1   
    28   14   15 ar  
    29   15   16 ar  
    30   15   17 1   
    31   17   18 1   
    32   17   22 1   
    33   18   19 1   
    34   18   35 1   
    35   18   36 1   
    36   19   20 1   
    37   19   39 1   
    38   19   40 1   
    39   20   21 1   
    40   20   41 1   
    41   21   22 1   
    42   21   42 1   
    43   21   43 1   
    44   22   37 1   
    45   22   38 1   
@<TRIPOS>SUBSTRUCTURE
     1 DXO         1 TEMP              0 ****  ****    0 ROOT
