@<TRIPOS>MOLECULE
DXP
   22    21     1     0     0
SMALL
bcc


@<TRIPOS>ATOM
      1 C1          0.1930    0.5040    0.6030 c3        1 DXP     -0.204100
      2 C2          1.3760   -0.3420    0.2850 c         1 DXP      0.561100
      3 C3          2.5890   -0.2120    1.1890 c3        1 DXP      0.051100
      4 C4          2.7520    1.1970    1.7710 c3        1 DXP      0.084100
      5 C5          3.8990    1.2640    2.8150 c3        1 DXP      0.214400
      6 O2          1.3780   -1.1420   -0.6670 o         1 DXP     -0.624100
      7 O3          3.7730   -0.6040    0.5110 oh        1 DXP     -0.578800
      8 O4          2.9580    2.1220    0.7120 oh        1 DXP     -0.657800
      9 O5          4.0640    2.5560    3.2350 os        1 DXP     -0.566200
     10 P           3.3330    2.8530    4.8080 p5        1 DXP      1.312900
     11 O2P         3.5580    4.3240    5.0020 o         1 DXP     -0.930500
     12 O1P         1.9290    2.4070    4.4760 o         1 DXP     -0.930500
     13 O3P         4.1060    1.9120    5.6880 o         1 DXP     -0.930500
     14 HC11       -0.6790    0.2420   -0.0420 hc        1 DXP      0.071033
     15 HC12       -0.0860    0.3890    1.6800 hc        1 DXP      0.071033
     16 HC13        0.4760    1.5780    0.4370 hc        1 DXP      0.071033
     17 HC3         2.4250   -0.9160    2.0600 h1        1 DXP      0.054700
     18 HC4         1.7940    1.4790    2.3050 h1        1 DXP      0.102700
     19 H51         3.6390    0.5810    3.6720 h1        1 DXP      0.001700
     20 H52         4.8390    0.8970    2.3100 h1        1 DXP      0.001700
     21 HO3         3.5330   -1.3350   -0.0730 ho        1 DXP      0.382000
     22 HO4         3.4830    2.8380    1.1050 ho        1 DXP      0.441000
@<TRIPOS>BOND
     1    1    2 1   
     2    1   14 1   
     3    1   15 1   
     4    1   16 1   
     5    2    3 1   
     6    2    6 2   
     7    3    4 1   
     8    3    7 1   
     9    3   17 1   
    10    4    5 1   
    11    4    8 1   
    12    4   18 1   
    13    5    9 1   
    14    5   19 1   
    15    5   20 1   
    16    7   21 1   
    17    8   22 1   
    18    9   10 1   
    19   10   11 1   
    20   10   12 1   
    21   10   13 1   
@<TRIPOS>SUBSTRUCTURE
     1 DXP         1 TEMP              0 ****  ****    0 ROOT
