@<TRIPOS>MOLECULE
DXP
   22    21     1     0     0
SMALL
bcc


@<TRIPOS>ATOM
      1 C1          0.1860    0.5400    0.6120 c3        1 DXP     -0.204100
      2 C2          1.3710   -0.2880    0.2540 c         1 DXP      0.561100
      3 C3          2.5920   -0.1810    1.1500 c3        1 DXP      0.051100
      4 C4          2.7530    1.2090    1.7770 c3        1 DXP      0.084100
      5 C5          3.9100    1.2470    2.8110 c3        1 DXP      0.214400
      6 O2          1.3680   -1.0560   -0.7240 o         1 DXP     -0.624100
      7 O3          3.7720   -0.5420    0.4470 oh        1 DXP     -0.578800
      8 O4          2.9420    2.1700    0.7480 oh        1 DXP     -0.657800
      9 O5          4.0720    2.5260    3.2730 os        1 DXP     -0.566200
     10 P           3.3550    2.7650    4.8620 p5        1 DXP      1.312900
     11 O2P         3.5740    4.2290    5.1040 o         1 DXP     -0.930500
     12 O1P         1.9510    2.3210    4.5300 o         1 DXP     -0.930500
     13 O3P         4.1430    1.7990    5.7020 o         1 DXP     -0.930500
     14 HC11        0.4620    1.6200    0.4790 hc        1 DXP      0.071033
     15 HC12       -0.0810    0.3860    1.6870 hc        1 DXP      0.071033
     16 HC13       -0.6900    0.2940   -0.0330 hc        1 DXP      0.071033
     17 HC3         2.4420   -0.9150    1.9980 h1        1 DXP      0.054700
     18 HC4         1.7990    1.4660    2.3300 h1        1 DXP      0.102700
     19 H51         3.6630    0.5350    3.6470 h1        1 DXP      0.001700
     20 H52         4.8470    0.9040    2.2840 h1        1 DXP      0.001700
     21 HO3         3.5300   -1.2550   -0.1590 ho        1 DXP      0.382000
     22 HO4         3.4660    2.8760    1.1600 ho        1 DXP      0.441000
@<TRIPOS>BOND
     1    1    2 1   
     2    1   14 1   
     3    1   15 1   
     4    1   16 1   
     5    2    3 1   
     6    2    6 2   
     7    3    4 1   
     8    3    7 1   
     9    3   17 1   
    10    4    5 1   
    11    4    8 1   
    12    4   18 1   
    13    5    9 1   
    14    5   19 1   
    15    5   20 1   
    16    7   21 1   
    17    8   22 1   
    18    9   10 1   
    19   10   11 1   
    20   10   12 1   
    21   10   13 1   
@<TRIPOS>SUBSTRUCTURE
     1 DXP         1 TEMP              0 ****  ****    0 ROOT
