@<TRIPOS>MOLECULE
DXP
   22    21     1     0     0
SMALL
bcc


@<TRIPOS>ATOM
      1 C1          1.8450   -0.0590    3.3590 c3        1 DXP     -0.212100
      2 C2          0.3600   -0.0740    3.5590 c         1 DXP      0.558100
      3 C3         -0.4340   -0.5900    2.3750 c3        1 DXP      0.033100
      4 C4         -0.2880    0.3810    1.1690 c3        1 DXP      0.110100
      5 C5          0.6700   -0.2390    0.1190 c3        1 DXP      0.206400
      6 O2         -0.1440    0.3080    4.6240 o         1 DXP     -0.582100
      7 O3         -1.7680   -0.8330    2.7720 oh        1 DXP     -0.621800
      8 O4         -1.5650    0.6530    0.6610 oh        1 DXP     -0.701800
      9 O5          0.8900    0.6280   -0.9140 os        1 DXP     -0.558200
     10 P           0.2100    0.0820   -2.4250 p5        1 DXP      1.323900
     11 O2P         0.6320    1.1350   -3.4020 o         1 DXP     -0.917167
     12 O1P         0.8240   -1.2820   -2.5510 o         1 DXP     -0.917167
     13 O3P        -1.2470    0.0780   -2.0060 o         1 DXP     -0.917167
     14 HC11        2.3750    0.2530    4.2900 hc        1 DXP      0.058033
     15 HC12        2.1980   -1.0740    3.0550 hc        1 DXP      0.058033
     16 HC13        2.0940    0.6560    2.5330 hc        1 DXP      0.058033
     17 HC3        -0.0140   -1.6010    2.0970 h1        1 DXP      0.062700
     18 HC4         0.1360    1.3580    1.5380 h1        1 DXP      0.012700
     19 H51         1.6410   -0.4570    0.6600 h1        1 DXP     -0.005800
     20 H52         0.2320   -1.2120   -0.2470 h1        1 DXP     -0.005800
     21 HO3        -2.3440   -0.2260    2.2820 ho        1 DXP      0.435000
     22 HO4        -1.5490    0.4700   -0.3320 ho        1 DXP      0.523000
@<TRIPOS>BOND
     1    1    2 1   
     2    1   14 1   
     3    1   15 1   
     4    1   16 1   
     5    2    3 1   
     6    2    6 2   
     7    3    4 1   
     8    3    7 1   
     9    3   17 1   
    10    4    5 1   
    11    4    8 1   
    12    4   18 1   
    13    5    9 1   
    14    5   19 1   
    15    5   20 1   
    16    7   21 1   
    17    8   22 1   
    18    9   10 1   
    19   10   11 1   
    20   10   12 1   
    21   10   13 1   
@<TRIPOS>SUBSTRUCTURE
     1 DXP         1 TEMP              0 ****  ****    0 ROOT
