@<TRIPOS>MOLECULE
DXP
   22    21     1     0     0
SMALL
bcc


@<TRIPOS>ATOM
      1 C1         -2.5960   -1.2240   -2.0230 c3        1 DXP     -0.257100
      2 C2         -1.1000   -1.0500   -1.8830 c         1 DXP      0.562100
      3 C3         -0.4690   -1.0100   -0.5090 c3        1 DXP      0.043100
      4 C4          0.3990    0.2210   -0.3890 c3        1 DXP      0.062100
      5 C5          0.6090    0.5490    1.0720 c3        1 DXP      0.214400
      6 O2         -0.4050   -0.9460   -2.8730 o         1 DXP     -0.615100
      7 O3          0.3210   -2.1610   -0.3220 oh        1 DXP     -0.608800
      8 O4          1.6440   -0.0210   -1.0000 oh        1 DXP     -0.658800
      9 O5          1.4730    1.6550    1.1860 os        1 DXP     -0.563200
     10 P           1.8140    2.2000    2.6300 p5        1 DXP      1.322900
     11 O2P         2.5880    1.1520    3.3930 o         1 DXP     -0.928500
     12 O1P         2.6470    3.4540    2.5110 o         1 DXP     -0.928500
     13 O3P         0.5330    2.5140    3.3650 o         1 DXP     -0.928500
     14 HC11       -3.0370   -0.3550   -1.9250 hc        1 DXP      0.097700
     15 HC12       -2.9200   -1.8350   -1.3290 hc        1 DXP      0.097700
     16 HC13       -2.8000   -1.5960   -2.9070 hc        1 DXP      0.097700
     17 HC3        -1.1710   -0.9820    0.1710 h1        1 DXP      0.072700
     18 HC4        -0.0410    0.9740   -0.8310 h1        1 DXP      0.086700
     19 H51         1.0060   -0.2230    1.5260 h1        1 DXP     -0.004300
     20 H52        -0.2520    0.7640    1.4860 h1        1 DXP     -0.004300
     21 HO3        -0.1730   -2.8020    0.0460 ho        1 DXP      0.409000
     22 HO4         1.9290    0.7230   -1.3960 ho        1 DXP      0.430000
@<TRIPOS>BOND
     1    1    2 1   
     2    1   14 1   
     3    1   15 1   
     4    1   16 1   
     5    2    3 1   
     6    2    6 2   
     7    3    4 1   
     8    3    7 1   
     9    3   17 1   
    10    4    5 1   
    11    4    8 1   
    12    4   18 1   
    13    5    9 1   
    14    5   19 1   
    15    5   20 1   
    16    7   21 1   
    17    8   22 1   
    18    9   10 1   
    19   10   11 1   
    20   10   12 1   
    21   10   13 1   
@<TRIPOS>SUBSTRUCTURE
     1 DXP         1 TEMP              0 ****  ****    0 ROOT
