@<TRIPOS>MOLECULE
DXQ
   79    82     1     0     0
SMALL
bcc


@<TRIPOS>ATOM
      1 N1          0.1790    0.5270   -0.1580 nb        1 DXQ     -0.810000
      2 C2          1.5790    0.6070   -0.1540 ca        1 DXQ      0.913900
      3 N3          2.3630    0.3350    0.9340 nb        1 DXQ     -0.793000
      4 C4          1.7220    0.0430    2.1090 ca        1 DXQ      0.486600
      5 C5          0.3020   -0.0020    2.2340 ca        1 DXQ     -0.316600
      6 C6         -0.4500    0.2500    1.0010 ca        1 DXQ      0.730200
      7 CAB         7.5450    0.3820    8.9620 c3        1 DXQ      0.081100
      8 CAC         5.4020    1.3410    9.6460 c3        1 DXQ      0.081100
      9 CAF         2.5190   -0.2330    3.2690 ca        1 DXQ     -0.246300
     10 CAG        -0.2950   -0.2640    3.4870 ca        1 DXQ     -0.124000
     11 CAH         4.2310   -0.2510    7.2130 c3        1 DXQ     -0.124400
     12 CAI         3.8630   -0.6390   -2.1750 c3        1 DXQ     -0.112400
     13 CAK        -4.1080    0.7360    0.2310 c3        1 DXQ     -0.094900
     14 CAL        -2.7100   -0.9400   -0.9750 c3        1 DXQ     -0.094900
     15 CAM         5.6340    0.2970    7.4190 c3        1 DXQ      0.107800
     16 CAN         3.5840   -0.6680   -3.6720 c3        1 DXQ      0.175800
     17 CAO         3.6030    0.7330   -1.5540 c3        1 DXQ      0.185800
     18 CAP        -4.9480    0.8890   -1.0340 c3        1 DXQ      0.171300
     19 CAQ        -3.5970   -0.7480   -2.2020 c3        1 DXQ      0.171300
     20 CAR         1.1820   -0.3010   -3.2050 c3        1 DXQ      0.149800
     21 CAS         1.4250    1.0850   -2.5680 c3        1 DXQ      0.159800
     22 NAV        -1.8410    0.2560    1.0530 nh        1 DXQ     -0.835900
     23 CAY         0.4870   -0.5040    4.5990 ca        1 DXQ      0.077100
     24 CAZ         1.9130   -0.4980    4.4740 ca        1 DXQ      0.121100
     25 CBE        -2.6660    0.3510   -0.1420 c3        1 DXQ      0.208500
     26 NBF         6.0670    0.2690    8.8580 n4        1 DXQ     -0.680400
     27 NBG         2.2000   -0.8240   -4.0900 n3        1 DXQ     -0.747600
     28 NBH        -4.9430   -0.3010   -1.8720 n3        1 DXQ     -0.735600
     29 NBI         2.2060    1.0770   -1.3420 nh        1 DXQ     -0.707300
     30 HAA        -1.6700   -1.8580    5.3160 h1        1 DXQ      0.048033
     31 HAAA       -1.5050   -1.2920    7.0590 h1        1 DXQ      0.048033
     32 HAAB       -1.9750   -0.0970    5.7430 h1        1 DXQ      0.048033
     33 HAB         8.0250   -0.4900    8.4430 hx        1 DXQ      0.107033
     34 HABA        7.8820    1.3390    8.4810 hx        1 DXQ      0.107033
     35 HABB        7.8420    0.3830   10.0460 hx        1 DXQ      0.107033
     36 HAC         5.7160    2.3450    9.2540 hx        1 DXQ      0.107033
     37 HACA        4.2880    1.2340    9.5540 hx        1 DXQ      0.107033
     38 HACB        5.7020    1.2500   10.7240 hx        1 DXQ      0.107033
     39 HAD         2.7850   -0.9780   -6.0990 h1        1 DXQ      0.033033
     40 HADA        0.9990   -0.7770   -5.8090 h1        1 DXQ      0.033033
     41 HADB        2.1150    0.6570   -5.6540 h1        1 DXQ      0.033033
     42 HAE        -5.8030   -1.1340   -3.5920 h1        1 DXQ      0.035700
     43 HAEA       -6.8210    0.0970   -2.7130 h1        1 DXQ      0.035700
     44 HAEB       -5.4230    0.6430   -3.7490 h1        1 DXQ      0.035700
     45 HAF         3.6150   -0.2300    3.1700 ha        1 DXQ      0.151000
     46 HAG        -1.3890   -0.2590    3.5990 ha        1 DXQ      0.144000
     47 HAH         4.1380   -1.2970    7.6100 hc        1 DXQ      0.084200
     48 HAHA        3.4620    0.3790    7.7340 hc        1 DXQ      0.084200
     49 HAI         3.2790   -1.4330   -1.6420 hc        1 DXQ      0.059700
     50 HAIA        4.9520   -0.8730   -2.0330 hc        1 DXQ      0.059700
     51 HAJ         4.6320   -0.9300    5.1640 h1        1 DXQ      0.055200
     52 HAJA        3.9480    0.7690    5.2900 h1        1 DXQ      0.055200
     53 HAK        -4.1200    1.7110    0.7830 hc        1 DXQ      0.054950
     54 HAKA       -4.5590   -0.0460    0.8940 hc        1 DXQ      0.054950
     55 HAL        -1.6810   -1.2110   -1.3260 hc        1 DXQ      0.054950
     56 HALA       -3.1000   -1.7850   -0.3520 hc        1 DXQ      0.054950
     57 HAM         6.3710   -0.3230    6.8300 hx        1 DXQ      0.105700
     58 HAMA        5.6950    1.3640    7.0600 hx        1 DXQ      0.105700
     59 HAN         4.0440    0.2620   -4.1270 h1        1 DXQ      0.033200
     60 HANA        4.1310   -1.5540   -4.1110 h1        1 DXQ      0.033200
     61 HAO         4.1690    0.8080   -0.5850 h1        1 DXQ      0.067200
     62 HAOA        4.0160    1.5300   -2.2400 h1        1 DXQ      0.067200
     63 HAP        -6.0150    1.0860   -0.7310 h1        1 DXQ      0.036450
     64 HAPA       -4.5820    1.7980   -1.6000 h1        1 DXQ      0.036450
     65 HAQ        -3.0820   -0.0280   -2.9060 h1        1 DXQ      0.036450
     66 HAQA       -3.6900   -1.7370   -2.7340 h1        1 DXQ      0.036450
     67 HAR         0.2110   -0.2380   -3.7750 h1        1 DXQ      0.058200
     68 HARA        1.0380   -1.0650   -2.3880 h1        1 DXQ      0.058200
     69 HAS         1.9790    1.7480   -3.2940 h1        1 DXQ      0.070200
     70 HASA        0.4280    1.5690   -2.3710 h1        1 DXQ      0.070200
     71 HNAV       -2.2340   -0.3130    1.7720 hn        1 DXQ      0.415800
     72 HBE        -2.2420    1.1770   -0.7880 h1        1 DXQ      0.085700
     73 OAW         0.0160   -0.7350    5.8770 os        1 DXQ     -0.318900
     74 OAX         2.6060   -0.8240    5.6310 os        1 DXQ     -0.310900
     75 CAE        -5.7800   -0.1570   -3.0420 c3        1 DXQ      0.157100
     76 CAJ         3.9180   -0.2660    5.7200 c3        1 DXQ      0.132400
     77 HBF1        5.7820   -0.6390    9.2530 hn        1 DXQ      0.453800
     78 CAD         2.0180   -0.4490   -5.4750 c3        1 DXQ      0.159100
     79 CAA        -1.3780   -1.0110    5.9830 c3        1 DXQ      0.109700
@<TRIPOS>BOND
     1    1    2 ar  
     2    1    6 ar  
     3    2    3 ar  
     4    2   29 1   
     5    3    4 ar  
     6    4    5 ar  
     7    4    9 ar  
     8    5    6 ar  
     9    5   10 ar  
    10    6   22 1   
    11    7   26 1   
    12    7   33 1   
    13    7   34 1   
    14    7   35 1   
    15    8   26 1   
    16    8   36 1   
    17    8   37 1   
    18    8   38 1   
    19    9   24 ar  
    20    9   45 1   
    21   10   23 ar  
    22   10   46 1   
    23   11   15 1   
    24   11   47 1   
    25   11   48 1   
    26   11   76 1   
    27   12   16 1   
    28   12   17 1   
    29   12   49 1   
    30   12   50 1   
    31   13   18 1   
    32   13   25 1   
    33   13   53 1   
    34   13   54 1   
    35   14   19 1   
    36   14   25 1   
    37   14   55 1   
    38   14   56 1   
    39   15   26 1   
    40   15   57 1   
    41   15   58 1   
    42   16   27 1   
    43   16   59 1   
    44   16   60 1   
    45   17   29 1   
    46   17   61 1   
    47   17   62 1   
    48   18   28 1   
    49   18   63 1   
    50   18   64 1   
    51   19   28 1   
    52   19   65 1   
    53   19   66 1   
    54   20   21 1   
    55   20   27 1   
    56   20   67 1   
    57   20   68 1   
    58   21   29 1   
    59   21   69 1   
    60   21   70 1   
    61   22   25 1   
    62   22   71 1   
    63   23   24 ar  
    64   23   73 1   
    65   24   74 1   
    66   25   72 1   
    67   26   77 1   
    68   27   78 1   
    69   28   75 1   
    70   30   79 1   
    71   31   79 1   
    72   32   79 1   
    73   39   78 1   
    74   40   78 1   
    75   41   78 1   
    76   42   75 1   
    77   43   75 1   
    78   44   75 1   
    79   51   76 1   
    80   52   76 1   
    81   73   79 1   
    82   74   76 1   
@<TRIPOS>SUBSTRUCTURE
     1 DXQ         1 TEMP              0 ****  ****    0 ROOT
