@<TRIPOS>MOLECULE
DXQ
   78    81     1     0     0
SMALL
bcc


@<TRIPOS>ATOM
      1 N1         -1.9510   -0.3540   -0.7720 nb        1 DXQ     -0.813000
      2 C2         -1.1110   -1.4700   -0.8930 ca        1 DXQ      0.892900
      3 N3          0.2400   -1.4420   -0.7110 nb        1 DXQ     -0.779000
      4 C4          0.8180   -0.2190   -0.4740 ca        1 DXQ      0.487600
      5 C5          0.0640    0.9890   -0.3990 ca        1 DXQ     -0.318600
      6 C6         -1.3810    0.8470   -0.5510 ca        1 DXQ      0.719200
      7 CAA         2.1270    4.6340    0.1620 c3        1 DXQ      0.109700
      8 CAB         9.5460   -1.6460    0.5490 c3        1 DXQ      0.155100
      9 CAC         9.3780    0.6580   -0.1330 c3        1 DXQ      0.155100
     10 CAF         2.2400   -0.1590   -0.2960 ca        1 DXQ     -0.271300
     11 CAG         0.7260    2.2230   -0.1930 ca        1 DXQ     -0.146000
     12 CAH         6.4390    0.4940    0.2930 c3        1 DXQ     -0.088400
     13 CAI        -1.1050   -4.4710    0.3850 c3        1 DXQ     -0.113400
     14 CAK        -4.2370    3.2950   -0.8580 c3        1 DXQ     -0.095400
     15 CAL        -4.2140    1.4860    0.8530 c3        1 DXQ     -0.095400
     16 CAM         7.3790   -0.6970    0.1150 c3        1 DXQ      0.172800
     17 CAN        -2.4200   -5.2000    0.6310 c3        1 DXQ      0.176800
     18 CAO        -0.9910   -3.9250   -1.0380 c3        1 DXQ      0.183800
     19 CAP        -5.7590    3.1910   -0.8970 c3        1 DXQ      0.171800
     20 CAQ        -5.7370    1.4380    0.7780 c3        1 DXQ      0.171800
     21 CAR        -3.6030   -3.0420    0.3500 c3        1 DXQ      0.148800
     22 CAS        -3.1520   -2.8330   -1.1120 c3        1 DXQ      0.157800
     23 NAV        -2.1750    1.9990   -0.5210 nh        1 DXQ     -0.834900
     24 CAY         2.0930    2.2640   -0.0340 ca        1 DXQ      0.085100
     25 CAZ         2.8610    1.0480   -0.0790 ca        1 DXQ      0.157100
     26 CBE        -3.6270    1.9290   -0.4960 c3        1 DXQ      0.206500
     27 NBF         8.7440   -0.4430    0.5550 n3        1 DXQ     -0.736600
     28 NBG        -3.6050   -4.3920    0.8690 n3        1 DXQ     -0.748600
     29 NBH        -6.3350    2.6940    0.3450 n3        1 DXQ     -0.735600
     30 NBI        -1.7190   -2.6970   -1.3100 nh        1 DXQ     -0.705300
     31 HAA         2.9280    5.4000    0.3190 h1        1 DXQ      0.043700
     32 HAAA        1.6220    4.7880   -0.8230 h1        1 DXQ      0.043700
     33 HAAB        1.3820    4.6680    0.9940 h1        1 DXQ      0.043700
     34 HAB        10.5550   -1.4090    0.9790 h1        1 DXQ      0.031867
     35 HABA        9.0530   -2.4170    1.1970 h1        1 DXQ      0.031867
     36 HABB        9.6880   -2.0810   -0.4780 h1        1 DXQ      0.031867
     37 HAC         9.4310    0.5150   -1.2470 h1        1 DXQ      0.031867
     38 HACA        8.8040    1.5980    0.0810 h1        1 DXQ      0.031867
     39 HACB       10.4220    0.7830    0.2590 h1        1 DXQ      0.031867
     40 HAD        -4.7800   -6.1150    1.1030 h1        1 DXQ      0.029367
     41 HADA       -5.6960   -4.5460    0.9700 h1        1 DXQ      0.029367
     42 HADB       -4.9750   -5.3100   -0.5200 h1        1 DXQ      0.029367
     43 HAE        -8.1650    1.8970   -0.4670 h1        1 DXQ      0.032033
     44 HAEA       -8.1610    2.3270    1.3040 h1        1 DXQ      0.032033
     45 HAEB       -8.1770    3.6470    0.0460 h1        1 DXQ      0.032033
     46 HAF         2.8120   -1.0970   -0.3440 ha        1 DXQ      0.159000
     47 HAG         0.1570    3.1630   -0.1760 ha        1 DXQ      0.136000
     48 HAH         6.6890    1.3080   -0.4360 hc        1 DXQ      0.066700
     49 HAHA        6.5300    0.9250    1.3230 hc        1 DXQ      0.066700
     50 HAI        -0.9510   -3.6550    1.1360 hc        1 DXQ      0.059700
     51 HAIA       -0.2790   -5.2180    0.5300 hc        1 DXQ      0.059700
     52 HAJ         4.8970   -0.4530   -0.9460 h1        1 DXQ      0.043200
     53 HAJA        4.6740   -0.6740    0.8620 h1        1 DXQ      0.043200
     54 HAK        -3.8800    3.6250   -1.8670 hc        1 DXQ      0.054950
     55 HAKA       -3.9270    4.0680   -0.1080 hc        1 DXQ      0.054950
     56 HAL        -3.8950    2.1940    1.6610 hc        1 DXQ      0.054950
     57 HALA       -3.8450    0.4630    1.1210 hc        1 DXQ      0.054950
     58 HAM         6.9860   -1.5570    0.7300 h1        1 DXQ      0.029700
     59 HAMA        7.3460   -1.0160   -0.9700 h1        1 DXQ      0.029700
     60 HAN        -2.5830   -5.9120   -0.2350 h1        1 DXQ      0.030200
     61 HANA       -2.2990   -5.8330    1.5590 h1        1 DXQ      0.030200
     62 HAO         0.0980   -3.7840   -1.2880 h1        1 DXQ      0.067700
     63 HAOA       -1.3970   -4.6930   -1.7600 h1        1 DXQ      0.067700
     64 HAP        -6.1820    4.2200   -1.0770 h1        1 DXQ      0.033200
     65 HAPA       -6.0510    2.5450   -1.7780 h1        1 DXQ      0.033200
     66 HAQ        -6.0350    0.5840    0.1000 h1        1 DXQ      0.033200
     67 HAQA       -6.1390    1.2120    1.8060 h1        1 DXQ      0.033200
     68 HAR        -2.9440   -2.4310    1.0330 h1        1 DXQ      0.056700
     69 HARA       -4.6470   -2.6280    0.4400 h1        1 DXQ      0.056700
     70 HAS        -3.4790   -3.7110   -1.7400 h1        1 DXQ      0.066700
     71 HASA       -3.6730   -1.9220   -1.5200 h1        1 DXQ      0.066700
     72 HNAV       -1.8020    2.7310    0.0450 hn        1 DXQ      0.410800
     73 HBE        -3.9500    1.1860   -1.2850 h1        1 DXQ      0.084700
     74 OAW         2.8430    3.4050    0.1770 os        1 DXQ     -0.301900
     75 OAX         4.2130    1.2260    0.1050 os        1 DXQ     -0.303900
     76 CAD        -4.8180   -5.1240    0.5780 c3        1 DXQ      0.161100
     77 CAE        -7.7770    2.6290    0.2950 c3        1 DXQ      0.158100
     78 CAJ         5.0110    0.0330    0.0590 c3        1 DXQ      0.123400
@<TRIPOS>BOND
     1    1    2 ar  
     2    1    6 ar  
     3    2    3 ar  
     4    2   30 1   
     5    3    4 ar  
     6    4    5 ar  
     7    4   10 ar  
     8    5    6 ar  
     9    5   11 ar  
    10    6   23 1   
    11    7   31 1   
    12    7   32 1   
    13    7   33 1   
    14    7   74 1   
    15    8   27 1   
    16    8   34 1   
    17    8   35 1   
    18    8   36 1   
    19    9   27 1   
    20    9   37 1   
    21    9   38 1   
    22    9   39 1   
    23   10   25 ar  
    24   10   46 1   
    25   11   24 ar  
    26   11   47 1   
    27   12   16 1   
    28   12   48 1   
    29   12   49 1   
    30   12   78 1   
    31   13   17 1   
    32   13   18 1   
    33   13   50 1   
    34   13   51 1   
    35   14   19 1   
    36   14   26 1   
    37   14   54 1   
    38   14   55 1   
    39   15   20 1   
    40   15   26 1   
    41   15   56 1   
    42   15   57 1   
    43   16   27 1   
    44   16   58 1   
    45   16   59 1   
    46   17   28 1   
    47   17   60 1   
    48   17   61 1   
    49   18   30 1   
    50   18   62 1   
    51   18   63 1   
    52   19   29 1   
    53   19   64 1   
    54   19   65 1   
    55   20   29 1   
    56   20   66 1   
    57   20   67 1   
    58   21   22 1   
    59   21   28 1   
    60   21   68 1   
    61   21   69 1   
    62   22   30 1   
    63   22   70 1   
    64   22   71 1   
    65   23   26 1   
    66   23   72 1   
    67   24   25 ar  
    68   24   74 1   
    69   25   75 1   
    70   26   73 1   
    71   28   76 1   
    72   29   77 1   
    73   40   76 1   
    74   41   76 1   
    75   42   76 1   
    76   43   77 1   
    77   44   77 1   
    78   45   77 1   
    79   52   78 1   
    80   53   78 1   
    81   75   78 1   
@<TRIPOS>SUBSTRUCTURE
     1 DXQ         1 TEMP              0 ****  ****    0 ROOT
