@<TRIPOS>MOLECULE
DXQ
   79    70     1     0     0
SMALL
bcc


@<TRIPOS>ATOM
      1 N1         -0.2830    1.6410    0.3340 n2        1 DXQ     -0.338000
      2 C2          1.0050    1.9760    0.3630 c2        1 DXQ      0.199000
      3 N3          1.9150    1.6700    1.4260 n2        1 DXQ     -0.234000
      4 C4          1.4250    1.1190    2.5060 c2        1 DXQ      0.134000
      5 C5         -0.0220    0.6830    2.6880 c3        1 DXQ     -0.074000
      6 C6         -0.8700    1.0120    1.4570 c2        1 DXQ      0.090000
      7 CAB         6.3790   -3.1380   11.5200 c1        1 DXQ      0.221000
      8 CAC         6.5860   -0.7510   10.7450 c1        1 DXQ      0.080000
      9 CAF         2.2830    0.8400    3.6510 c2        1 DXQ     -0.283000
     10 CAG        -0.5570    1.1310    4.0140 c2        1 DXQ     -0.098000
     11 CAH         4.2820    0.2100    7.4100 c3        1 DXQ     -0.164000
     12 CAI         4.2140    1.1350   -2.4960 c1        1 DXQ     -0.206000
     13 CAK        -5.8530   -1.2000    0.9140 c2        1 DXQ     -0.230000
     14 CAL        -1.3770   -0.6120   -3.9400 c1        1 DXQ      0.014000
     15 CAM         5.7580   -0.0900    7.4290 c3        1 DXQ     -0.235000
     16 CAN         3.5240    1.3640   -1.2630 c3        1 DXQ     -0.075000
     17 CAO         4.8080    0.9270   -3.5130 c1        1 DXQ     -0.159000
     18 CAP        -6.4560   -0.0190    0.8770 c2        1 DXQ     -0.230000
     19 CAQ        -1.6010   -0.3780   -2.7840 c1        1 DXQ     -0.272000
     20 CAR        -0.8390   -1.3320   -6.8350 c1        1 DXQ      0.023000
     21 CAS         2.5810    2.5280   -1.3540 c2        1 DXQ      0.036000
     22 NAV        -2.1230    0.6290    1.4460 n2        1 DXQ     -0.226000
     23 CAY         0.2970    1.1080    5.0780 c2        1 DXQ      0.045000
     24 CAZ         1.7270    0.8340    4.8920 c2        1 DXQ      0.139000
     25 CBE        -3.0290    1.0050    0.4090 c3        1 DXQ     -0.108000
     26 NBF         6.4830   -1.9700   11.2380 n2        1 DXQ     -0.360000
     27 NBG        -0.6590   -1.6270   -7.9580 n2        1 DXQ     -0.273000
     28 NBH        -1.8320   -0.1360   -1.4650 n7        1 DXQ      0.033000
     29 NBI         1.5100    2.7850   -0.6980 n2        1 DXQ     -0.146000
     30 HAA        -2.2630    2.3190    3.4990 hc        1 DXQ      0.100667
     31 HAAA       -2.1580    1.8520    5.2450 hc        1 DXQ      0.100667
     32 HAAB       -2.6390    0.6120    4.0170 hc        1 DXQ      0.100667
     33 HAB         5.1890   -2.2970    4.5350 ha        1 DXQ      0.001714
     34 HABA        5.5250   -2.4260    5.1070 ha        1 DXQ      0.001714
     35 HABB        6.3430    0.7660    7.0150 hc        1 DXQ      0.093000
     36 HAC         4.3780    0.1340   10.8090 ha        1 DXQ      0.001714
     37 HACA        4.4490    0.0390   10.1390 ha        1 DXQ      0.001714
     38 HACB        6.7840    0.0370   11.5130 ha        1 DXQ      0.051000
     39 HAD        -0.0610   -1.0900   -9.8670 h1        1 DXQ      0.110333
     40 HADA        0.3120   -2.8100   -9.3540 h1        1 DXQ      0.110333
     41 HADB       -1.4090   -2.3270   -9.7570 h1        1 DXQ      0.110333
     42 HAE        -1.2520   -0.6710   -0.8240 hn        1 DXQ      0.292000
     43 HAEA       -3.2970    1.3210   -1.7850 h4        1 DXQ      0.200000
     44 HAEB       -7.0970    0.2960    0.0420 ha        1 DXQ      0.116750
     45 HAF         3.3620    0.7220    3.4800 ha        1 DXQ      0.177000
     46 HAG         0.0190   -0.4560    2.7370 hc        1 DXQ      0.160000
     47 HAH         4.0000   -0.4990    5.3550 h1        1 DXQ      0.094000
     48 HAHA        4.0640    1.1310    8.0110 hc        1 DXQ      0.098000
     49 HAI         4.6870   -0.6900    0.1930 ha        1 DXQ      0.001714
     50 HAIA        4.9600   -1.2370    0.4860 ha        1 DXQ      0.001714
     51 HAJ         4.2900    1.3100    5.5110 h1        1 DXQ      0.094000
     52 HAJA        0.5500    1.4120    6.9570 ho        1 DXQ      0.246000
     53 HAK        -4.0000    0.4370    0.6160 h1        1 DXQ      0.167000
     54 HAKA       -5.2370   -1.5260    1.7640 ha        1 DXQ      0.116750
     55 HAL        -0.2210   -1.6490    0.7640 ha        1 DXQ      0.001714
     56 HALA       -0.0140   -2.1130    0.3140 ha        1 DXQ      0.001714
     57 HAM         3.7090   -0.6340    7.8760 hc        1 DXQ      0.098000
     58 HAMA        5.9860   -1.0000    6.8210 hc        1 DXQ      0.093000
     59 HAN         2.9830    0.4230   -0.9530 hc        1 DXQ      0.133000
     60 HANA        2.0920   -1.8350   -0.5410 ha        1 DXQ      0.001714
     61 HAO         4.2710    1.5930   -0.4440 hc        1 DXQ      0.133000
     62 HAOA        5.3410    0.7450   -4.4140 ha        1 DXQ      0.234000
     63 HAP        -5.9550   -1.9430    0.1110 ha        1 DXQ      0.116750
     64 HAPA       -6.3800    0.7110    1.6960 ha        1 DXQ      0.116750
     65 HAQ         0.5510   -2.7820   -1.9390 ha        1 DXQ      0.001714
     66 HAQA        0.0730   -2.3040   -2.0010 ha        1 DXQ      0.001714
     67 HAR         2.8510    3.3020   -2.1120 h4        1 DXQ      0.179000
     68 HARA        2.7540   -1.8150   -0.3970 ha        1 DXQ      0.001714
     69 HAS         0.3340   -2.6610   -5.0270 ha        1 DXQ      0.001714
     70 HASA        0.3820   -2.6950   -4.3510 ha        1 DXQ      0.001714
     71 HNAV       -1.1780   -0.8350   -4.9890 ha        1 DXQ      0.321000
     72 HBE        -3.2640    2.1130    0.4800 h1        1 DXQ      0.167000
     73 OAW        -0.1930    1.3780    6.3320 oh        1 DXQ     -0.233000
     74 OAX         2.3870    0.6340    6.0690 os        1 DXQ     -0.213000
     75 CAE        -2.7070    0.7440   -1.0340 c2        1 DXQ      0.138000
     76 CAJ         3.8110    0.4120    5.9810 c3        1 DXQ     -0.024000
     77 HBF1        6.0950   -0.2740    8.4840 hc        1 DXQ      0.093000
     78 CAD        -0.4440   -1.9790   -9.2950 c3        1 DXQ     -0.055000
     79 CAA        -1.9760    1.4950    4.1980 c3        1 DXQ     -0.169000
@<TRIPOS>BOND
     1    1    2 1   
     2    1    6 1   
     3    2    3 1   
     4    2   29 1   
     5    3    4 1   
     6    4    5 1   
     7    4    9 1   
     8    5    6 1   
     9    5   10 1   
    10    5   46 1   
    11    6   22 1   
    12    7   26 1   
    13    8   26 1   
    14    8   38 1   
    15    9   24 1   
    16    9   45 1   
    17   10   23 1   
    18   10   79 1   
    19   11   15 1   
    20   11   48 1   
    21   11   57 1   
    22   11   76 1   
    23   12   16 1   
    24   12   17 1   
    25   13   18 1   
    26   13   54 1   
    27   13   63 1   
    28   14   19 1   
    29   14   71 1   
    30   15   35 1   
    31   15   58 1   
    32   15   77 1   
    33   16   21 1   
    34   16   59 1   
    35   16   61 1   
    36   17   62 1   
    37   18   44 1   
    38   18   64 1   
    39   19   28 1   
    40   20   27 1   
    41   21   29 1   
    42   21   67 1   
    43   22   25 1   
    44   23   24 1   
    45   23   73 1   
    46   24   74 1   
    47   25   53 1   
    48   25   72 1   
    49   25   75 1   
    50   27   78 1   
    51   28   42 1   
    52   28   75 1   
    53   30   79 1   
    54   31   79 1   
    55   32   79 1   
    56   33   34 1   
    57   36   37 1   
    58   39   78 1   
    59   40   78 1   
    60   41   78 1   
    61   43   75 1   
    62   47   76 1   
    63   49   50 1   
    64   51   76 1   
    65   52   73 1   
    66   55   56 1   
    67   60   68 1   
    68   65   66 1   
    69   69   70 1   
    70   74   76 1   
@<TRIPOS>SUBSTRUCTURE
     1 DXQ         1 TEMP              0 ****  ****    0 ROOT
