@<TRIPOS>MOLECULE
DXR
   40    42     1     0     0
SMALL
bcc


@<TRIPOS>ATOM
      1 N1         -0.2240    0.2740   -0.1390 nb        1 DXR     -0.738000
      2 C2          1.1000    0.5290   -0.0820 ca        1 DXR      0.690900
      3 N3          1.9160    0.6930    0.9970 nb        1 DXR     -0.795000
      4 C4          1.3450    0.5690    2.2390 ca        1 DXR      0.745200
      5 C5         -0.0520    0.2920    2.3420 ca        1 DXR     -0.490500
      6 C6         -0.8010    0.1570    1.0990 ca        1 DXR      0.473800
      7 NAG         2.1260    0.6550    3.3780 nh        1 DXR     -0.941500
      8 CAH        -1.0390    0.0860    3.3820 cc        1 DXR      0.370900
      9 NAI        -2.2520   -0.1390    2.8170 nd        1 DXR     -0.512100
     10 NAJ        -2.1340   -0.0980    1.4770 na        1 DXR      0.004200
     11 CAK        -3.2680   -0.3140    0.5450 c3        1 DXR      0.099700
     12 CAL        -3.0060   -1.5350   -0.3500 c3        1 DXR     -0.105100
     13 CAM        -4.5840   -0.5650    1.3020 c3        1 DXR     -0.105100
     14 CAN        -3.4730    0.9180   -0.3490 c3        1 DXR     -0.105100
     15 CAO        -0.7930    0.0590    4.8460 c3        1 DXR     -0.050400
     16 CAP        -0.5160    1.4070    5.4220 ca        1 DXR     -0.086300
     17 CAQ        -1.3200    2.5030    5.0880 ca        1 DXR     -0.090000
     18 CAR        -1.0770    3.7520    5.6650 ca        1 DXR     -0.022900
     19 CAS        -0.0340    3.9110    6.5820 ca        1 DXR     -0.105000
     20 CAT         0.7630    2.8170    6.9180 ca        1 DXR     -0.128000
     21 CAU         0.5260    1.5710    6.3420 ca        1 DXR     -0.136000
     22 BRAV       -2.1530    5.2160    5.2110 br        1 DXR     -0.083100
     23 H2          1.6090    0.6300   -1.0660 h5        1 DXR      0.051100
     24 HNAG        1.6470    0.8820    4.2190 hn        1 DXR      0.428300
     25 HNAA        3.0520    1.0030    3.2830 hn        1 DXR      0.428300
     26 HAL        -2.1100   -1.3810   -0.9970 hc        1 DXR      0.052033
     27 HALA       -2.8560   -2.4540    0.2660 hc        1 DXR      0.052033
     28 HALB       -3.8950   -1.6870   -1.0080 hc        1 DXR      0.052033
     29 HAM        -4.5130   -1.4780    1.9390 hc        1 DXR      0.052033
     30 HAMA       -5.3960   -0.7170    0.5500 hc        1 DXR      0.052033
     31 HAMB       -4.8510    0.3070    1.9440 hc        1 DXR      0.052033
     32 HAN        -2.5860    1.1030   -0.9990 hc        1 DXR      0.052033
     33 HANA       -4.3580    0.7340   -1.0050 hc        1 DXR      0.052033
     34 HANB       -3.6690    1.8280    0.2670 hc        1 DXR      0.052033
     35 HAO        -1.6830   -0.3740    5.3850 hc        1 DXR      0.074200
     36 HAOA        0.0740   -0.6320    5.0390 hc        1 DXR      0.074200
     37 HAQ        -2.1420    2.3680    4.3660 ha        1 DXR      0.161000
     38 HAS         0.1620    4.8920    7.0430 ha        1 DXR      0.149000
     39 HAT         1.5800    2.9410    7.6440 ha        1 DXR      0.139000
     40 HAU         1.1530    0.7100    6.6220 ha        1 DXR      0.136000
@<TRIPOS>BOND
     1    1    2 ar  
     2    1    6 ar  
     3    2    3 ar  
     4    2   23 1   
     5    3    4 ar  
     6    4    5 ar  
     7    4    7 1   
     8    5    6 ar  
     9    5    8 1   
    10    6   10 1   
    11    7   24 1   
    12    7   25 1   
    13    8    9 2   
    14    8   15 1   
    15    9   10 1   
    16   10   11 1   
    17   11   12 1   
    18   11   13 1   
    19   11   14 1   
    20   12   26 1   
    21   12   27 1   
    22   12   28 1   
    23   13   29 1   
    24   13   30 1   
    25   13   31 1   
    26   14   32 1   
    27   14   33 1   
    28   14   34 1   
    29   15   16 1   
    30   15   35 1   
    31   15   36 1   
    32   16   17 ar  
    33   16   21 ar  
    34   17   18 ar  
    35   17   37 1   
    36   18   19 ar  
    37   18   22 1   
    38   19   20 ar  
    39   19   38 1   
    40   20   21 ar  
    41   20   39 1   
    42   21   40 1   
@<TRIPOS>SUBSTRUCTURE
     1 DXR         1 TEMP              0 ****  ****    0 ROOT
