@<TRIPOS>MOLECULE
DXR
   40    33     1     0     0
SMALL
bcc


@<TRIPOS>ATOM
      1 N1          1.5250   -0.6430   -2.8530 n1        1 DXR     -0.214000
      2 C2          2.8920   -0.6430   -2.8280 c1        1 DXR      0.028000
      3 N3          3.5550   -0.6160   -1.6320 n1        1 DXR     -0.269000
      4 C4          2.8620   -0.5890   -0.4760 c1        1 DXR      0.226000
      5 C5          1.4750   -0.5880   -0.4990 c1        1 DXR     -0.278000
      6 C6          0.8200   -0.6160   -1.6830 c1        1 DXR      0.083000
      7 NAG         4.0760   -0.7660    0.2570 n3        1 DXR     -0.339000
      8 CAH         0.5250   -0.5650    0.5150 c1        1 DXR     -0.074000
      9 NAI        -0.6990   -0.5780   -0.0590 n2        1 DXR     -0.047000
     10 NAJ        -0.5300   -0.6090   -1.4220 n1        1 DXR     -0.132000
     11 CAK        -1.7000   -0.6210   -2.2590 c2        1 DXR      0.119000
     12 CAL        -1.6090   -1.7770   -3.2420 c3        1 DXR     -0.223333
     13 CAM        -2.9370   -0.7870   -1.3970 c3        1 DXR     -0.223333
     14 CAN        -1.7870    0.6870   -3.0230 c3        1 DXR     -0.223333
     15 CAO         0.6020   -0.7760    2.0410 c2        1 DXR     -0.062000
     16 CAP         0.1210    0.4950    2.7590 c2        1 DXR     -0.079000
     17 CAQ         1.0290    1.5020    3.0710 c2        1 DXR     -0.124000
     18 CAR         0.6260    2.5870    3.8230 c1        1 DXR     -0.166000
     19 CAS        -0.6870    2.6740    4.2690 c1        1 DXR     -0.114000
     20 CAT        -1.5930    1.6720    3.9590 c1        1 DXR     -0.114000
     21 CAU        -1.1900    0.5830    3.2040 c1        1 DXR     -0.103000
     22 BRAV        1.8880    3.9400    4.3010 br        1 DXR      0.054000
     23 H2          3.3940   -0.6630   -3.6620 ha        1 DXR      0.188000
     24 HNAG        4.8840   -0.5720   -0.1370 hn        1 DXR      0.226000
     25 HNAA        4.0490   -1.0820    1.1220 hn        1 DXR      0.226000
     26 HAL        -0.8730   -1.6190   -3.8650 hc        1 DXR      0.091222
     27 HALA       -1.4490   -2.6060   -2.7540 hc        1 DXR      0.091222
     28 HALB       -2.4440   -1.8490   -3.7370 hc        1 DXR      0.091222
     29 HAM        -3.7260   -0.8680   -1.9720 hc        1 DXR      0.091222
     30 HAMA       -3.0350   -0.0130   -0.8200 hc        1 DXR      0.091222
     31 HAMB       -2.8470   -1.5960   -0.8480 hc        1 DXR      0.091222
     32 HAN        -1.0880    0.7110   -3.7110 hc        1 DXR      0.091222
     33 HANA       -1.6630    1.4310   -2.4070 hc        1 DXR      0.091222
     34 HANB       -2.6670    0.7590   -3.4480 hc        1 DXR      0.091222
     35 HAO         1.5260   -0.9650    2.2990 ha        1 DXR      0.113500
     36 HAOA        0.0300   -1.5330    2.2970 ha        1 DXR      0.113500
     37 HAQ         1.9460    1.4410    2.7600 ha        1 DXR      0.146000
     38 HAS        -0.9720    3.4420    4.8010 ha        1 DXR      0.145500
     39 HAT        -2.5060    1.7330    4.2690 ha        1 DXR      0.145500
     40 HAU        -1.8230   -0.1180    2.9880 ha        1 DXR      0.151000
@<TRIPOS>BOND
     1    1    6 1   
     2    2    3 1   
     3    2   23 1   
     4    4    5 1   
     5    4    7 1   
     6    7   24 1   
     7    7   25 1   
     8    8    9 1   
     9    9   10 1   
    10   11   12 1   
    11   11   13 1   
    12   11   14 1   
    13   12   26 1   
    14   12   27 1   
    15   12   28 1   
    16   13   29 1   
    17   13   30 1   
    18   13   31 1   
    19   14   32 1   
    20   14   33 1   
    21   14   34 1   
    22   15   16 1   
    23   15   35 1   
    24   15   36 1   
    25   16   17 1   
    26   16   21 1   
    27   17   18 1   
    28   17   37 1   
    29   18   22 1   
    30   19   20 1   
    31   19   38 1   
    32   20   39 1   
    33   21   40 1   
@<TRIPOS>SUBSTRUCTURE
     1 DXR         1 TEMP              0 ****  ****    0 ROOT
