@<TRIPOS>MOLECULE
DXR
   40    42     1     0     0
SMALL
bcc


@<TRIPOS>ATOM
      1 N1         -0.1900    0.2710   -0.1260 nb        1 DXR     -0.738000
      2 C2          1.1360    0.5160   -0.0510 ca        1 DXR      0.690900
      3 N3          1.9380    0.6720    1.0380 nb        1 DXR     -0.795000
      4 C4          1.3490    0.5500    2.2730 ca        1 DXR      0.745200
      5 C5         -0.0510    0.2840    2.3570 ca        1 DXR     -0.490500
      6 C6         -0.7840    0.1570    1.1030 ca        1 DXR      0.473800
      7 NAG         2.1150    0.6290    3.4220 nv        1 DXR     -0.941500
      8 CAH        -1.0540    0.0840    3.3830 cc        1 DXR      0.370900
      9 NAI        -2.2600   -0.1310    2.8010 nd        1 DXR     -0.512100
     10 NAJ        -2.1240   -0.0890    1.4630 na        1 DXR      0.004200
     11 CAK        -3.2470   -0.2950    0.5160 c3        1 DXR      0.099700
     12 CAL        -2.9810   -1.5170   -0.3790 c3        1 DXR     -0.105100
     13 CAM        -4.5750   -0.5380    1.2540 c3        1 DXR     -0.105100
     14 CAN        -3.4310    0.9400   -0.3790 c3        1 DXR     -0.105100
     15 CAO        -0.8270    0.0530    4.8500 c3        1 DXR     -0.050400
     16 CAP        -0.5480    1.3970    5.4320 ca        1 DXR     -0.086300
     17 CAQ        -1.3380    2.5010    5.0890 ca        1 DXR     -0.090000
     18 CAR        -1.0930    3.7470    5.6710 ca        1 DXR     -0.022900
     19 CAS        -0.0610    3.8960    6.6020 ca        1 DXR     -0.105000
     20 CAT         0.7220    2.7960    6.9470 ca        1 DXR     -0.128000
     21 CAU         0.4830    1.5510    6.3660 ca        1 DXR     -0.136000
     22 BrAV       -2.1510    5.2200    5.2040 br        1 DXR     -0.083100
     23 H2          1.6590    0.6150   -1.0280 h5        1 DXR      0.051100
     24 HNAG        3.0450    0.9700    3.3410 hn        1 DXR      0.428300
     25 HNAA        1.6270    0.8580    4.2580 hn        1 DXR      0.428300
     26 HAL        -2.0770   -1.3670   -1.0140 hc        1 DXR      0.052033
     27 HALA       -2.8460   -2.4370    0.2370 hc        1 DXR      0.052033
     28 HALB       -3.8630   -1.6610   -1.0480 hc        1 DXR      0.052033
     29 HAM        -4.5190   -1.4520    1.8900 hc        1 DXR      0.052033
     30 HAMA       -4.8440    0.3350    1.8940 hc        1 DXR      0.052033
     31 HAMB       -5.3780   -0.6830    0.4910 hc        1 DXR      0.052033
     32 HAN        -4.3080    0.7630   -1.0480 hc        1 DXR      0.052033
     33 HANA       -3.6290    1.8500    0.2360 hc        1 DXR      0.052033
     34 HANB       -2.5330    1.1200   -1.0160 hc        1 DXR      0.052033
     35 HAO        -1.7290   -0.3740    5.3760 hc        1 DXR      0.074200
     36 HAOA        0.0320   -0.6450    5.0530 hc        1 DXR      0.074200
     37 HAQ        -2.1520    2.3730    4.3550 ha        1 DXR      0.161000
     38 HAS         0.1360    4.8750    7.0670 ha        1 DXR      0.149000
     39 HAT         1.5300    2.9110    7.6850 ha        1 DXR      0.139000
     40 HAU         1.0990    0.6850    6.6530 ha        1 DXR      0.136000
@<TRIPOS>BOND
     1    1    2 ar  
     2    1    6 ar  
     3    2    3 ar  
     4    2   23 1   
     5    3    4 ar  
     6    4    5 ar  
     7    4    7 1   
     8    5    6 ar  
     9    5    8 1   
    10    6   10 1   
    11    7   24 1   
    12    7   25 1   
    13    8    9 2   
    14    8   15 1   
    15    9   10 1   
    16   10   11 1   
    17   11   12 1   
    18   11   13 1   
    19   11   14 1   
    20   12   26 1   
    21   12   27 1   
    22   12   28 1   
    23   13   29 1   
    24   13   30 1   
    25   13   31 1   
    26   14   32 1   
    27   14   33 1   
    28   14   34 1   
    29   15   16 1   
    30   15   35 1   
    31   15   36 1   
    32   16   17 ar  
    33   16   21 ar  
    34   17   18 ar  
    35   17   37 1   
    36   18   19 ar  
    37   18   22 1   
    38   19   20 ar  
    39   19   38 1   
    40   20   21 ar  
    41   20   39 1   
    42   21   40 1   
@<TRIPOS>SUBSTRUCTURE
     1 DXR         1 TEMP              0 ****  ****    0 ROOT
