@<TRIPOS>MOLECULE
DXR
   41    43     1     0     0
SMALL
bcc


@<TRIPOS>ATOM
      1 N1         -0.3150    0.3110   -0.1170 nb        1 DXR     -0.625000
      2 C2          0.9910    0.6360   -0.0720 ca        1 DXR      0.680900
      3 N3          1.7800    0.8460    1.0330 nb        1 DXR     -0.699000
      4 C4          1.1810    0.7070    2.2350 ca        1 DXR      0.558200
      5 C5         -0.1730    0.3620    2.3740 ca        1 DXR     -0.428500
      6 C6         -0.9080    0.1740    1.1050 ca        1 DXR      0.459800
      7 NAG         2.0010    0.9330    3.4440 n4        1 DXR     -0.837300
      8 CAH        -1.1680    0.1250    3.3990 cc        1 DXR      0.344900
      9 NAI        -2.3550   -0.1650    2.8030 nd        1 DXR     -0.434100
     10 NAJ        -2.2270   -0.1410    1.4730 na        1 DXR      0.043200
     11 CAK        -3.3520   -0.4260    0.5200 c3        1 DXR      0.091700
     12 CAL        -3.0050   -1.6390   -0.3520 c3        1 DXR     -0.112767
     13 CAM        -4.6520   -0.7350    1.2770 c3        1 DXR     -0.112767
     14 CAN        -3.5990    0.7930   -0.3770 c3        1 DXR     -0.112767
     15 CAO        -0.9690    0.1250    4.8700 c3        1 DXR     -0.060400
     16 CAP        -0.4480    1.4140    5.4060 ca        1 DXR     -0.143300
     17 CAQ        -0.9630    2.6370    4.9600 ca        1 DXR     -0.101000
     18 CAR        -0.5150    3.8370    5.5190 ca        1 DXR     -0.027900
     19 CAS         0.4380    3.8160    6.5440 ca        1 DXR     -0.089000
     20 CAT         0.9450    2.5970    6.9960 ca        1 DXR     -0.125000
     21 CAU         0.5100    1.4000    6.4300 ca        1 DXR     -0.162000
     22 BRAV       -1.2010    5.4630    4.9070 br        1 DXR     -0.032100
     23 H2          1.5130    0.7560   -1.0510 h5        1 DXR      0.098100
     24 HNAG        2.4400    0.0470    3.7190 hn        1 DXR      0.477133
     25 HNAA        1.3860    1.2690    4.2080 hn        1 DXR      0.477133
     26 HAL        -2.1200   -1.4420   -1.0020 hc        1 DXR      0.063922
     27 HALA       -2.8100   -2.5420    0.2740 hc        1 DXR      0.063922
     28 HALB       -3.8820   -1.8510   -1.0130 hc        1 DXR      0.063922
     29 HAM        -4.9710    0.1300    1.9070 hc        1 DXR      0.063922
     30 HAMA       -4.5410   -1.6380    1.9230 hc        1 DXR      0.063922
     31 HAMB       -5.4510   -0.9370    0.5220 hc        1 DXR      0.063922
     32 HAN        -3.8430    1.6980    0.2300 hc        1 DXR      0.063922
     33 HANA       -2.7200    1.0130   -1.0280 hc        1 DXR      0.063922
     34 HANB       -4.4720    0.5660   -1.0380 hc        1 DXR      0.063922
     35 HAO        -1.9460   -0.0980    5.3940 hc        1 DXR      0.089700
     36 HAOA       -0.2700   -0.7190    5.1290 hc        1 DXR      0.089700
     37 HAQ        -1.7410    2.6420    4.1770 ha        1 DXR      0.164000
     38 HAS         0.7810    4.7560    7.0080 ha        1 DXR      0.171000
     39 HAT         1.6760    2.5820    7.8200 ha        1 DXR      0.160000
     40 HAU         0.8800    0.4410    6.8270 ha        1 DXR      0.145000
     41 HAG3        2.7370    1.6270    3.2600 hn        1 DXR      0.477133
@<TRIPOS>BOND
     1    1    2 ar  
     2    1    6 ar  
     3    2    3 ar  
     4    2   23 1   
     5    3    4 ar  
     6    4    5 ar  
     7    4    7 1   
     8    5    6 ar  
     9    5    8 1   
    10    6   10 1   
    11    7   24 1   
    12    7   25 1   
    13    7   41 1   
    14    8    9 2   
    15    8   15 1   
    16    9   10 1   
    17   10   11 1   
    18   11   12 1   
    19   11   13 1   
    20   11   14 1   
    21   12   26 1   
    22   12   27 1   
    23   12   28 1   
    24   13   29 1   
    25   13   30 1   
    26   13   31 1   
    27   14   32 1   
    28   14   33 1   
    29   14   34 1   
    30   15   16 1   
    31   15   35 1   
    32   15   36 1   
    33   16   17 ar  
    34   16   21 ar  
    35   17   18 ar  
    36   17   37 1   
    37   18   19 ar  
    38   18   22 1   
    39   19   20 ar  
    40   19   38 1   
    41   20   21 ar  
    42   20   39 1   
    43   21   40 1   
@<TRIPOS>SUBSTRUCTURE
     1 DXR         1 TEMP              0 ****  ****    0 ROOT
