@<TRIPOS>MOLECULE
DXR
   40    42     1     0     0
SMALL
bcc


@<TRIPOS>ATOM
      1 N1          4.0590   -0.0210   -1.0580 nb        1 DXR     -0.738000
      2 C2          4.2270    1.2640   -1.4350 ca        1 DXR      0.690900
      3 N3          3.4730    2.3640   -1.1600 nb        1 DXR     -0.795000
      4 C4          2.3700    2.1850   -0.3620 ca        1 DXR      0.745200
      5 C5          2.0620    0.8770    0.1220 ca        1 DXR     -0.490500
      6 C6          2.9540   -0.2070   -0.2680 ca        1 DXR      0.473800
      7 NAG         1.5970    3.2690    0.0140 nh        1 DXR     -0.941500
      8 CAH         1.0590    0.2400    0.9490 cc        1 DXR      0.370900
      9 NAI         1.3200   -1.0890    1.0350 nd        1 DXR     -0.512100
     10 NAJ         2.4270   -1.3720    0.3240 na        1 DXR      0.004200
     11 CAK         3.0050   -2.7340    0.2120 c3        1 DXR      0.099700
     12 CAL         4.4310   -2.7640    0.7840 c3        1 DXR     -0.105100
     13 CAM         2.1710   -3.7700    0.9840 c3        1 DXR     -0.105100
     14 CAN         3.0540   -3.1780   -1.2590 c3        1 DXR     -0.105100
     15 CAO        -0.0620    0.9080    1.6570 c3        1 DXR     -0.050400
     16 CAP        -1.1510    1.3610    0.7440 ca        1 DXR     -0.086300
     17 CAQ        -1.6470    0.5100   -0.2510 ca        1 DXR     -0.090000
     18 CAR        -2.6940    0.9300   -1.0750 ca        1 DXR     -0.022900
     19 CAS        -3.2540    2.2000   -0.9060 ca        1 DXR     -0.105000
     20 CAT        -2.7630    3.0450    0.0880 ca        1 DXR     -0.128000
     21 CAU        -1.7160    2.6310    0.9090 ca        1 DXR     -0.136000
     22 BRAV       -3.3500   -0.2120   -2.4060 br        1 DXR     -0.083100
     23 H2          5.1140    1.4600   -2.0770 h5        1 DXR      0.051100
     24 HNAG        1.7380    4.1300   -0.4610 hn        1 DXR      0.428300
     25 HNAA        0.6670    3.0640    0.3000 hn        1 DXR      0.428300
     26 HAL         4.4350   -2.4510    1.8550 hc        1 DXR      0.052033
     27 HALA        4.8160   -3.8100    0.7160 hc        1 DXR      0.052033
     28 HALB        5.1150   -2.0990    0.2060 hc        1 DXR      0.052033
     29 HAM         1.1290   -3.8240    0.5880 hc        1 DXR      0.052033
     30 HAMA        2.6520   -4.7700    0.8590 hc        1 DXR      0.052033
     31 HAMB        2.1340   -3.5260    2.0720 hc        1 DXR      0.052033
     32 HAN         3.7230   -2.5200   -1.8610 hc        1 DXR      0.052033
     33 HANA        3.4550   -4.2200   -1.2990 hc        1 DXR      0.052033
     34 HANB        2.0330   -3.1710   -1.7090 hc        1 DXR      0.052033
     35 HAO        -0.5150    0.2110    2.4190 hc        1 DXR      0.074200
     36 HAOA        0.3590    1.7840    2.2250 hc        1 DXR      0.074200
     37 HAQ        -1.2010   -0.4910   -0.3740 ha        1 DXR      0.161000
     38 HAS        -4.0810    2.5370   -1.5500 ha        1 DXR      0.149000
     39 HAT        -3.2070    4.0420    0.2250 ha        1 DXR      0.139000
     40 HAU        -1.3420    3.3010    1.6990 ha        1 DXR      0.136000
@<TRIPOS>BOND
     1    1    2 ar  
     2    1    6 ar  
     3    2    3 ar  
     4    2   23 1   
     5    3    4 ar  
     6    4    5 ar  
     7    4    7 1   
     8    5    6 ar  
     9    5    8 1   
    10    6   10 1   
    11    7   24 1   
    12    7   25 1   
    13    8    9 2   
    14    8   15 1   
    15    9   10 1   
    16   10   11 1   
    17   11   12 1   
    18   11   13 1   
    19   11   14 1   
    20   12   26 1   
    21   12   27 1   
    22   12   28 1   
    23   13   29 1   
    24   13   30 1   
    25   13   31 1   
    26   14   32 1   
    27   14   33 1   
    28   14   34 1   
    29   15   16 1   
    30   15   35 1   
    31   15   36 1   
    32   16   17 ar  
    33   16   21 ar  
    34   17   18 ar  
    35   17   37 1   
    36   18   19 ar  
    37   18   22 1   
    38   19   20 ar  
    39   19   38 1   
    40   20   21 ar  
    41   20   39 1   
    42   21   40 1   
@<TRIPOS>SUBSTRUCTURE
     1 DXR         1 TEMP              0 ****  ****    0 ROOT
