@<TRIPOS>MOLECULE
DXT
   58    61     1     0     0
SMALL
bcc


@<TRIPOS>ATOM
      1 C1          0.2590    0.1520   -0.0350 c         1 DXT      0.571300
      2 O1         -0.2420    0.4240   -1.1300 o         1 DXT     -0.494100
      3 C2          1.7020   -0.1240    0.0990 ce        1 DXT     -0.350400
      4 O21         3.7890    0.0340   -1.0970 o         1 DXT     -0.384100
      5 C21         2.5800   -0.1550   -1.0790 c         1 DXT      0.568300
      6 N21         1.9640   -0.4330   -2.4240 n4        1 DXT     -0.745400
      7 C3          2.2770   -0.3200    1.3330 c2        1 DXT      0.240900
      8 O3          3.5850   -0.6470    1.3770 oh        1 DXT     -0.429100
      9 C4          1.5000   -0.2060    2.6340 c3        1 DXT      0.124700
     10 N4          1.6130    1.1840    3.2200 n4        1 DXT     -0.678400
     11 C41         3.0330    1.5660    3.4390 c3        1 DXT      0.073100
     12 C42         0.8470    1.2940    4.4970 c3        1 DXT      0.073100
     13 C4A         0.0480   -0.6500    2.3840 c3        1 DXT     -0.105700
     14 C5          0.0220   -2.1680    2.0920 c3        1 DXT      0.159100
     15 O5          0.7730   -2.7720    3.1320 oh        1 DXT     -0.628800
     16 C5A        -1.4150   -2.6840    1.9800 c3        1 DXT     -0.036500
     17 C6         -1.4820   -4.0550    1.2750 c3        1 DXT     -0.013400
     18 C61        -0.4400   -5.0310    1.7750 c3        1 DXT     -0.113100
     19 C6A        -2.8810   -4.5780    1.4190 ca        1 DXT     -0.021300
     20 C7         -3.1520   -5.9200    1.6600 ca        1 DXT     -0.169000
     21 C8         -4.4760   -6.3700    1.7660 ca        1 DXT     -0.035000
     22 C9         -5.5340   -5.4870    1.6410 ca        1 DXT     -0.214000
     23 C10        -5.2710   -4.1240    1.3950 ca        1 DXT      0.213100
     24 O10        -6.2670   -3.1980    1.2830 oh        1 DXT     -0.461100
     25 C6B        -3.9430   -3.6590    1.2750 ca        1 DXT     -0.224600
     26 C11        -3.6850   -2.2520    0.9680 c         1 DXT      0.610900
     27 O11        -4.5380   -1.5000    0.4730 o         1 DXT     -0.524100
     28 C5B        -2.3210   -1.7320    1.2680 ce        1 DXT     -0.256400
     29 C12        -1.9660   -0.4680    0.9430 c2        1 DXT      0.110900
     30 O12        -2.7220    0.4900    0.3390 oh        1 DXT     -0.516100
     31 C4B        -0.6000    0.1310    1.2400 c3        1 DXT      0.137000
     32 O13        -0.7070    1.4810    1.6780 oh        1 DXT     -0.639800
     33 H10        -7.1240   -3.6530    1.3480 ho        1 DXT      0.444000
     34 H12        -3.6340    0.1770    0.1610 ho        1 DXT      0.508000
     35 H13        -1.4360    1.9180    1.2010 ho        1 DXT      0.493000
     36 H211        2.6910   -0.4080   -3.1530 hn        1 DXT      0.485467
     37 H212        1.5130   -1.3530   -2.4230 hn        1 DXT      0.485467
     38 HO3         3.8570   -0.8990    2.2820 ho        1 DXT      0.479000
     39 H4          1.9460   -0.9240    3.4010 hx        1 DXT      0.159700
     40 H411        3.0730    2.6130    3.8530 hx        1 DXT      0.117033
     41 H412        3.5940    1.5430    2.4660 hx        1 DXT      0.117033
     42 H413        3.5060    0.8650    4.1780 hx        1 DXT      0.117033
     43 H421        1.0730    0.4160    5.1590 hx        1 DXT      0.117033
     44 H422       -0.2530    1.3370    4.2620 hx        1 DXT      0.117033
     45 H423        1.1440    2.2450    5.0190 hx        1 DXT      0.117033
     46 H4A        -0.5640   -0.4820    3.3170 hc        1 DXT      0.124700
     47 H5          0.5850   -2.3710    1.1360 h1        1 DXT      0.057700
     48 HO5         0.2160   -3.4070    3.6070 ho        1 DXT      0.455000
     49 H5A        -1.8180   -2.8130    3.0300 hc        1 DXT      0.092700
     50 H6         -1.2960   -3.8860    0.1740 hc        1 DXT      0.065700
     51 H7         -2.3410   -6.6560    1.7700 ha        1 DXT      0.150000
     52 H8         -4.6710   -7.4400    1.9510 ha        1 DXT      0.162000
     53 H9         -6.5750   -5.8370    1.7260 ha        1 DXT      0.164000
     54 H611       -0.4820   -5.9730    1.1730 hc        1 DXT      0.053700
     55 H612       -0.6120   -5.2930    2.8470 hc        1 DXT      0.053700
     56 H613        0.5900   -4.6140    1.6620 hc        1 DXT      0.053700
     57 H213        1.2410    0.2780   -2.6320 hn        1 DXT      0.485467
     58 H41         1.1860    1.8490    2.5470 hn        1 DXT      0.481800
@<TRIPOS>BOND
     1    1    2 2   
     2    1    3 1   
     3    1   31 1   
     4    3    5 1   
     5    3    7 2   
     6    4    5 2   
     7    5    6 1   
     8    6   36 1   
     9    6   37 1   
    10    6   57 1   
    11    7    8 1   
    12    7    9 1   
    13    8   38 1   
    14    9   10 1   
    15    9   13 1   
    16    9   39 1   
    17   10   11 1   
    18   10   12 1   
    19   10   58 1   
    20   11   40 1   
    21   11   41 1   
    22   11   42 1   
    23   12   43 1   
    24   12   44 1   
    25   12   45 1   
    26   13   14 1   
    27   13   31 1   
    28   13   46 1   
    29   14   15 1   
    30   14   16 1   
    31   14   47 1   
    32   15   48 1   
    33   16   17 1   
    34   16   28 1   
    35   16   49 1   
    36   17   18 1   
    37   17   19 1   
    38   17   50 1   
    39   18   54 1   
    40   18   55 1   
    41   18   56 1   
    42   19   20 ar  
    43   19   25 ar  
    44   20   21 ar  
    45   20   51 1   
    46   21   22 ar  
    47   21   52 1   
    48   22   23 ar  
    49   22   53 1   
    50   23   24 1   
    51   23   25 ar  
    52   24   33 1   
    53   25   26 1   
    54   26   27 2   
    55   26   28 1   
    56   28   29 2   
    57   29   30 1   
    58   29   31 1   
    59   30   34 1   
    60   31   32 1   
    61   32   35 1   
@<TRIPOS>SUBSTRUCTURE
     1 DXT         1 TEMP              0 ****  ****    0 ROOT
