@<TRIPOS>MOLECULE
DXT
   56    54     1     0     0
SMALL
bcc


@<TRIPOS>ATOM
      1 C1          2.2300    1.1210   -1.4460 c1        1 DXT      0.274000
      2 O1          2.8470    0.6080   -2.3580 o         1 DXT     -0.289000
      3 C2          2.9380    1.6230   -0.2800 c2        1 DXT     -0.373000
      4 O21         5.0370    2.1650    0.6680 o         1 DXT     -0.445000
      5 C21         4.4450    1.7460   -0.3070 c2        1 DXT      0.369000
      6 N21         5.1630    1.4050   -1.4810 n         1 DXT     -0.402000
      7 C3          2.2340    2.0660    0.8080 c1        1 DXT      0.208000
      8 O3          2.9000    2.3190    2.0210 o         1 DXT     -0.238333
      9 C4          0.6930    2.3590    0.6810 c3        1 DXT      0.011000
     10 N4          0.0070    2.5930    1.8770 n3        1 DXT     -0.255000
     11 C41        -0.2270    3.9880    2.0250 c3        1 DXT     -0.125500
     12 C42         0.7880    2.1240    2.9710 c3        1 DXT     -0.125500
     13 C4A         0.2290    1.0840   -0.0420 c3        1 DXT     -0.075000
     14 C5         -1.2750    1.0250   -0.0450 c3        1 DXT      0.043000
     15 O5         -1.7850    2.0180   -0.9200 oh        1 DXT     -0.309000
     16 C5A        -1.7230   -0.3290   -0.5100 c3        1 DXT     -0.069000
     17 C6         -1.8580   -1.2480    0.6750 c3        1 DXT     -0.069000
     18 C61        -3.2030   -1.0060    1.3570 c3        1 DXT     -0.213000
     19 C6A        -1.7820   -2.6700    0.2140 c2        1 DXT      0.020000
     20 C7         -2.4860   -3.8360    0.9450 c2        1 DXT     -0.188000
     21 C8         -2.5100   -5.1060    0.4900 c1        1 DXT     -0.057000
     22 C9         -1.9920   -5.4460   -0.5170 c2        1 DXT     -0.238000
     23 C10        -1.3910   -4.6940   -1.2350 c1        1 DXT      0.139000
     24 O10        -0.2270   -5.2750   -1.7700 o         1 DXT     -0.238333
     25 C6B        -1.2360   -3.3420   -0.9700 c2        1 DXT     -0.172000
     26 C11        -0.6620   -2.4260   -1.8820 c2        1 DXT      0.326000
     27 O11        -0.0880   -2.8340   -2.8710 o         1 DXT     -0.302000
     28 C5B        -0.6460   -0.9350   -1.5490 c2        1 DXT     -0.276000
     29 C12         0.2470   -0.1190   -2.1520 c1        1 DXT      0.113000
     30 O12         0.6580   -0.3780   -3.4720 o         1 DXT     -0.238333
     31 C4B         0.7250    1.1000   -1.4510 c2        1 DXT      0.087000
     32 O13         0.2400    2.2440   -2.1090 oh        1 DXT     -0.287000
     33 H10        -0.4520   -5.9160   -2.3430 ho        1 DXT      0.254000
     34 H12         0.0070   -0.1520   -4.0350 ho        1 DXT      0.254000
     35 H13         0.7000    2.3720   -2.8600 ho        1 DXT      0.224000
     36 H211        5.4940    0.5590   -1.5850 hn        1 DXT      0.236000
     37 H212        5.2760    2.0240   -2.1440 hn        1 DXT      0.236000
     38 HO3         3.3080    3.1080    1.9770 ho        1 DXT      0.254000
     39 H4          0.4430    3.1590    0.1790 h1        1 DXT      0.169000
     40 H411        0.6090    4.4790    1.8670 h1        1 DXT      0.080333
     41 H412       -0.9040    4.2770    1.3750 h1        1 DXT      0.080333
     42 H413       -0.5470    4.1720    2.9340 h1        1 DXT      0.080333
     43 H421        0.1960    1.8890    3.7180 h1        1 DXT      0.080333
     44 H422        1.2970    1.3310    2.6940 h1        1 DXT      0.080333
     45 H423        1.4090    2.8290    3.2550 h1        1 DXT      0.080333
     46 H4A         0.5840    0.3000    0.4200 hc        1 DXT      0.114000
     47 H5         -1.6080    1.1860    0.8600 h1        1 DXT      0.102000
     48 HO5        -2.5960    2.2630   -0.6510 ho        1 DXT      0.200000
     49 H5A        -2.5890   -0.2470   -0.9540 hc        1 DXT      0.106000
     50 H6         -1.1360   -1.0720    1.3080 hc        1 DXT      0.107000
     51 H7         -2.3800   -3.7880    1.9150 ha        1 DXT      0.139000
     52 H8         -3.3780   -5.5380    0.6300 DU        1 DXT      0.137000
     53 H9         -1.5520   -6.3190   -0.4360 ha        1 DXT      0.140000
     54 H611       -3.3320   -0.0440    1.4910 hc        1 DXT      0.081333
     55 H612       -3.9230   -1.3570    0.7930 hc        1 DXT      0.081333
     56 H613       -3.2160   -1.4610    2.2260 hc        1 DXT      0.081333
@<TRIPOS>BOND
     1    1    2 1   
     2    1    3 1   
     3    3    5 1   
     4    3    7 1   
     5    4    5 1   
     6    5    6 1   
     7    6   36 1   
     8    6   37 1   
     9    7    9 1   
    10    8   38 1   
    11    9   10 1   
    12    9   13 1   
    13    9   39 1   
    14   10   11 1   
    15   10   12 1   
    16   11   40 1   
    17   11   41 1   
    18   11   42 1   
    19   12   43 1   
    20   12   44 1   
    21   12   45 1   
    22   13   14 1   
    23   13   31 1   
    24   13   46 1   
    25   14   15 1   
    26   14   16 1   
    27   14   47 1   
    28   15   48 1   
    29   16   17 1   
    30   16   28 1   
    31   16   49 1   
    32   17   18 1   
    33   17   19 1   
    34   17   50 1   
    35   18   54 1   
    36   18   55 1   
    37   18   56 1   
    38   19   20 1   
    39   19   25 1   
    40   20   21 1   
    41   20   51 1   
    42   21   22 1   
    43   22   23 1   
    44   22   53 1   
    45   23   25 1   
    46   24   33 1   
    47   25   26 1   
    48   26   27 1   
    49   26   28 1   
    50   28   29 1   
    51   29   31 1   
    52   30   34 1   
    53   31   32 1   
    54   32   35 1   
@<TRIPOS>SUBSTRUCTURE
     1 DXT         1 TEMP              0 ****  ****    0 ROOT
