@<TRIPOS>MOLECULE
DXT
   56    59     1     0     0
SMALL
bcc


@<TRIPOS>ATOM
      1 C1          7.0900   -4.4530    4.4610 c         1 DXT      0.603300
      2 O1          7.0270   -5.6440    4.7850 o         1 DXT     -0.530100
      3 C2          7.3140   -3.3500    5.3950 ce        1 DXT     -0.399400
      4 O21         6.8100   -2.3530    7.4980 o         1 DXT     -0.681100
      5 C21         6.7420   -3.3720    6.7590 c         1 DXT      0.697300
      6 N21         6.1080   -4.4880    7.2270 n         1 DXT     -0.647000
      7 C3          8.1060   -2.3190    4.9680 c2        1 DXT      0.256900
      8 O3          8.4740   -1.2250    5.6600 oh        1 DXT     -0.485100
      9 C4          8.6850   -2.3120    3.5540 c3        1 DXT      0.202700
     10 N4          9.8820   -3.1590    3.4960 n3        1 DXT     -0.721600
     11 C41        10.9400   -2.6510    4.3490 c3        1 DXT      0.143600
     12 C42        10.3470   -3.4090    2.1480 c3        1 DXT      0.143600
     13 C4A         7.5380   -2.7280    2.5990 c3        1 DXT     -0.081700
     14 C5          6.4970   -1.5950    2.6130 c3        1 DXT      0.140100
     15 O5          7.1380   -0.4130    2.1490 oh        1 DXT     -0.592800
     16 C5A         5.2450   -1.8950    1.7850 c3        1 DXT     -0.015500
     17 C6          4.1100   -0.9000    2.1010 c3        1 DXT     -0.022400
     18 C61         4.5760    0.5380    2.1560 c3        1 DXT     -0.093100
     19 C6A         3.0120   -1.1240    1.1050 ca        1 DXT      0.005700
     20 C7          2.3480   -0.0770    0.4750 ca        1 DXT     -0.182000
     21 C8          1.3060   -0.3370   -0.4240 ca        1 DXT     -0.063000
     22 C9          0.9150   -1.6350   -0.6950 ca        1 DXT     -0.184000
     23 C10         1.5790   -2.7080   -0.0550 ca        1 DXT      0.209100
     24 O10         1.1050   -3.9400   -0.4030 oh        1 DXT     -0.501100
     25 C6B         2.6440   -2.4620    0.8340 ca        1 DXT     -0.259600
     26 C11         3.3740   -3.5540    1.4940 c         1 DXT      0.623900
     27 O11         2.8590   -4.6890    1.6070 o         1 DXT     -0.627100
     28 C5B         4.7320   -3.2820    1.9890 ce        1 DXT     -0.314400
     29 C12         5.5010   -4.2520    2.5510 c2        1 DXT      0.173900
     30 O12         5.1440   -5.5450    2.7730 oh        1 DXT     -0.497100
     31 C4B         6.9620   -4.0970    2.9650 c3        1 DXT      0.124000
     32 O13         7.7030   -5.0500    2.2050 oh        1 DXT     -0.580800
     33 H10         1.5400   -4.6330    0.1200 ho        1 DXT      0.458000
     34 H12         4.2260   -5.7230    2.5030 ho        1 DXT      0.473000
     35 H13         7.4760   -5.9300    2.5460 ho        1 DXT      0.441000
     36 H211        5.7660   -4.4840    8.1560 hn        1 DXT      0.327000
     37 H212        6.1250   -5.3410    6.7240 hn        1 DXT      0.327000
     38 HO3         8.0760   -1.2140    6.5550 ho        1 DXT      0.485000
     39 H4          8.9470   -1.2340    3.3000 h1        1 DXT      0.084700
     40 H411       10.5460   -2.4980    5.3890 h1        1 DXT      0.042533
     41 H412       11.3700   -1.6770    3.9880 h1        1 DXT      0.042533
     42 H413       11.7580   -3.4170    4.3860 h1        1 DXT      0.042533
     43 H421       11.3490   -3.9130    2.1970 h1        1 DXT      0.042533
     44 H422       10.4500   -2.4730    1.5340 h1        1 DXT      0.042533
     45 H423        9.6300   -4.1080    1.6400 h1        1 DXT      0.042533
     46 H4A         7.9470   -2.8030    1.5500 hc        1 DXT      0.092700
     47 H5          6.2060   -1.3500    3.6750 h1        1 DXT      0.091700
     48 HO5         7.2770   -0.5050    1.1980 ho        1 DXT      0.403000
     49 H5A         5.5170   -1.7780    0.6940 hc        1 DXT      0.063700
     50 H6          3.6970   -1.1630    3.1200 hc        1 DXT      0.071700
     51 H7          2.6290    0.9690    0.6670 ha        1 DXT      0.143000
     52 H8          0.7930    0.5040   -0.9160 ha        1 DXT      0.139000
     53 H9          0.0960   -1.8600   -1.3920 ha        1 DXT      0.157000
     54 H611        5.3320    0.6730    2.9680 hc        1 DXT      0.046700
     55 H612        5.0400    0.8450    1.1890 hc        1 DXT      0.046700
     56 H613        3.7160    1.2150    2.3830 hc        1 DXT      0.046700
@<TRIPOS>BOND
     1    1    2 2   
     2    1    3 1   
     3    1   31 1   
     4    3    5 1   
     5    3    7 2   
     6    4    5 2   
     7    5    6 1   
     8    6   36 1   
     9    6   37 1   
    10    7    8 1   
    11    7    9 1   
    12    8   38 1   
    13    9   10 1   
    14    9   13 1   
    15    9   39 1   
    16   10   11 1   
    17   10   12 1   
    18   11   40 1   
    19   11   41 1   
    20   11   42 1   
    21   12   43 1   
    22   12   44 1   
    23   12   45 1   
    24   13   14 1   
    25   13   31 1   
    26   13   46 1   
    27   14   15 1   
    28   14   16 1   
    29   14   47 1   
    30   15   48 1   
    31   16   17 1   
    32   16   28 1   
    33   16   49 1   
    34   17   18 1   
    35   17   19 1   
    36   17   50 1   
    37   18   54 1   
    38   18   55 1   
    39   18   56 1   
    40   19   20 ar  
    41   19   25 ar  
    42   20   21 ar  
    43   20   51 1   
    44   21   22 ar  
    45   21   52 1   
    46   22   23 ar  
    47   22   53 1   
    48   23   24 1   
    49   23   25 ar  
    50   24   33 1   
    51   25   26 1   
    52   26   27 2   
    53   26   28 1   
    54   28   29 2   
    55   29   30 1   
    56   29   31 1   
    57   30   34 1   
    58   31   32 1   
    59   32   35 1   
@<TRIPOS>SUBSTRUCTURE
     1 DXT         1 TEMP              0 ****  ****    0 ROOT
