@<TRIPOS>MOLECULE
DXT
   58    61     1     0     0
SMALL
bcc


@<TRIPOS>ATOM
      1 C1          0.2580    0.1780   -0.0150 c         1 DXT      0.571300
      2 O1         -0.2430    0.4640   -1.1050 o         1 DXT     -0.494100
      3 C2          1.7000   -0.1050    0.1140 ce        1 DXT     -0.350400
      4 O21         3.7870    0.0600   -1.0830 o         1 DXT     -0.384100
      5 C21         2.5770   -0.1250   -1.0650 c         1 DXT      0.568300
      6 N21         1.9580   -0.3850   -2.4120 nz        1 DXT     -0.745400
      7 C3          2.2770   -0.3180    1.3450 c2        1 DXT      0.240900
      8 O3          3.5840   -0.6510    1.3840 oh        1 DXT     -0.429100
      9 C4          1.5020   -0.2170    2.6480 c3        1 DXT      0.124700
     10 N4          1.6210    1.1650    3.2510 nx        1 DXT     -0.678400
     11 C41         3.0430    1.5390    3.4730 c3        1 DXT      0.073100
     12 C42         0.8580    1.2620    4.5310 c3        1 DXT      0.073100
     13 C4A         0.0480   -0.6520    2.3950 c3        1 DXT     -0.105700
     14 C5          0.0150   -2.1660    2.0850 c3        1 DXT      0.159100
     15 O5          0.7650   -2.7860    3.1160 oh        1 DXT     -0.628800
     16 C5A        -1.4240   -2.6750    1.9690 c3        1 DXT     -0.036500
     17 C6         -1.4990   -4.0370    1.2470 c3        1 DXT     -0.013400
     18 C61        -0.4600   -5.0230    1.7330 c3        1 DXT     -0.113100
     19 C6A        -2.9000   -4.5560    1.3870 ca        1 DXT     -0.021300
     20 C7         -3.1750   -5.8990    1.6110 ca        1 DXT     -0.169000
     21 C8         -4.5020   -6.3450    1.7130 ca        1 DXT     -0.035000
     22 C9         -5.5560   -5.4560    1.6010 ca        1 DXT     -0.214000
     23 C10        -5.2870   -4.0910    1.3720 ca        1 DXT      0.213100
     24 O10        -6.2790   -3.1600    1.2740 oh        1 DXT     -0.461100
     25 C6B        -3.9580   -3.6300    1.2560 ca        1 DXT     -0.224600
     26 C11        -3.6940   -2.2210    0.9660 c         1 DXT      0.610900
     27 O11        -4.5450   -1.4590    0.4820 o         1 DXT     -0.524100
     28 C5B        -2.3270   -1.7110    1.2700 ce        1 DXT     -0.256400
     29 C12        -1.9670   -0.4440    0.9600 c2        1 DXT      0.110900
     30 O12        -2.7210    0.5240    0.3690 oh        1 DXT     -0.516100
     31 C4B        -0.5980    0.1450    1.2610 c3        1 DXT      0.137000
     32 O13        -0.6990    1.4910    1.7160 oh        1 DXT     -0.639800
     33 H10        -7.1380   -3.6120    1.3340 ho        1 DXT      0.444000
     34 H12        -3.6340    0.2180    0.1880 ho        1 DXT      0.508000
     35 H13        -1.4270    1.9360    1.2460 ho        1 DXT      0.493000
     36 H211        2.6850   -0.3540   -3.1420 hn        1 DXT      0.485467
     37 H212        1.2370    0.3310   -2.6110 hn        1 DXT      0.485467
     38 HO3         3.8550   -0.9150    2.2850 ho        1 DXT      0.479000
     39 H4          1.9460   -0.9470    3.4060 hx        1 DXT      0.159700
     40 H411        3.6030    1.5250    2.4980 hx        1 DXT      0.117033
     41 H412        3.5150    0.8260    4.2020 hx        1 DXT      0.117033
     42 H413        3.0880    2.5800    3.9000 hx        1 DXT      0.117033
     43 H421       -0.2420    1.3130    4.2990 hx        1 DXT      0.117033
     44 H422        1.0810    0.3760    5.1810 hx        1 DXT      0.117033
     45 H423        1.1600    2.2050    5.0640 hx        1 DXT      0.117033
     46 H4A        -0.5630   -0.4920    3.3310 hc        1 DXT      0.124700
     47 H5          0.5750   -2.3600    1.1250 h1        1 DXT      0.057700
     48 HO5         0.2060   -3.4240    3.5840 ho        1 DXT      0.455000
     49 H5A        -1.8260   -2.8150    3.0180 hc        1 DXT      0.092700
     50 H6         -1.3130   -3.8550    0.1470 hc        1 DXT      0.065700
     51 H7         -2.3680   -6.6400    1.7100 ha        1 DXT      0.150000
     52 H8         -4.7000   -7.4170    1.8860 ha        1 DXT      0.162000
     53 H9         -6.5980   -5.8030    1.6840 ha        1 DXT      0.164000
     54 H611       -0.5070   -5.9580    1.1190 hc        1 DXT      0.053700
     55 H612        0.5720   -4.6090    1.6240 hc        1 DXT      0.053700
     56 H613       -0.6310   -5.2970    2.8020 hc        1 DXT      0.053700
     57 H213        1.5050   -1.3040   -2.4210 hn        1 DXT      0.485467
     58 H41         1.1960    1.8400    2.5870 hn        1 DXT      0.481800
@<TRIPOS>BOND
     1    1    2 2   
     2    1    3 1   
     3    1   31 1   
     4    3    5 1   
     5    3    7 2   
     6    4    5 2   
     7    5    6 1   
     8    6   36 1   
     9    6   37 1   
    10    6   57 1   
    11    7    8 1   
    12    7    9 1   
    13    8   38 1   
    14    9   10 1   
    15    9   13 1   
    16    9   39 1   
    17   10   11 1   
    18   10   12 1   
    19   10   58 1   
    20   11   40 1   
    21   11   41 1   
    22   11   42 1   
    23   12   43 1   
    24   12   44 1   
    25   12   45 1   
    26   13   14 1   
    27   13   31 1   
    28   13   46 1   
    29   14   15 1   
    30   14   16 1   
    31   14   47 1   
    32   15   48 1   
    33   16   17 1   
    34   16   28 1   
    35   16   49 1   
    36   17   18 1   
    37   17   19 1   
    38   17   50 1   
    39   18   54 1   
    40   18   55 1   
    41   18   56 1   
    42   19   20 ar  
    43   19   25 ar  
    44   20   21 ar  
    45   20   51 1   
    46   21   22 ar  
    47   21   52 1   
    48   22   23 ar  
    49   22   53 1   
    50   23   24 1   
    51   23   25 ar  
    52   24   33 1   
    53   25   26 1   
    54   26   27 2   
    55   26   28 1   
    56   28   29 2   
    57   29   30 1   
    58   29   31 1   
    59   30   34 1   
    60   31   32 1   
    61   32   35 1   
@<TRIPOS>SUBSTRUCTURE
     1 DXT         1 TEMP              0 ****  ****    0 ROOT
