@<TRIPOS>MOLECULE
DXT
   58    61     1     0     0
SMALL
bcc


@<TRIPOS>ATOM
      1 C1          0.2550    0.1290   -0.0410 c         1 DXT      0.571300
      2 O1         -0.2350    0.3860   -1.1440 o         1 DXT     -0.494100
      3 C2          1.6960   -0.1530    0.1090 ce        1 DXT     -0.350400
      4 O21         3.7930   -0.0220   -1.0730 o         1 DXT     -0.384100
      5 C21         2.5840   -0.2050   -1.0610 c         1 DXT      0.568300
      6 N21         1.9770   -0.5010   -2.4060 n4        1 DXT     -0.745400
      7 C3          2.2600   -0.3340    1.3500 c2        1 DXT      0.240900
      8 O3          3.5660   -0.6680    1.4100 oh        1 DXT     -0.429100
      9 C4          1.4740   -0.1980    2.6430 c3        1 DXT      0.124700
     10 N4          1.5900    1.2000    3.2100 n4        1 DXT     -0.678400
     11 C41         3.0110    1.5770    3.4350 c3        1 DXT      0.073100
     12 C42         0.8150    1.3310    4.4800 c3        1 DXT      0.073100
     13 C4A         0.0210   -0.6360    2.3880 c3        1 DXT     -0.105700
     14 C5         -0.0120   -2.1580    2.1180 c3        1 DXT      0.159100
     15 O5          0.7270   -2.7520    3.1720 oh        1 DXT     -0.628800
     16 C5A        -1.4510   -2.6670    2.0020 c3        1 DXT     -0.036500
     17 C6         -1.5220   -4.0470    1.3160 c3        1 DXT     -0.013400
     18 C61        -0.4900   -5.0220    1.8380 c3        1 DXT     -0.113100
     19 C6A        -2.9250   -4.5600    1.4560 ca        1 DXT     -0.021300
     20 C7         -3.2060   -5.8960    1.7130 ca        1 DXT     -0.169000
     21 C8         -4.5340   -6.3370    1.8150 ca        1 DXT     -0.035000
     22 C9         -5.5860   -5.4490    1.6690 ca        1 DXT     -0.214000
     23 C10        -5.3120   -4.0910    1.4060 ca        1 DXT      0.213100
     24 O10        -6.3010   -3.1610    1.2740 oh        1 DXT     -0.461100
     25 C6B        -3.9810   -3.6360    1.2910 ca        1 DXT     -0.224600
     26 C11        -3.7110   -2.2360    0.9660 c         1 DXT      0.610900
     27 O11        -4.5560   -1.4850    0.4540 o         1 DXT     -0.524100
     28 C5B        -2.3460   -1.7200    1.2690 ce        1 DXT     -0.256400
     29 C12        -1.9800   -0.4620    0.9290 c2        1 DXT      0.110900
     30 O12        -2.7260    0.4910    0.3050 oh        1 DXT     -0.516100
     31 C4B        -0.6130    0.1320    1.2270 c3        1 DXT      0.137000
     32 O13        -0.7150    1.4890    1.6450 oh        1 DXT     -0.639800
     33 H10        -7.1620   -3.6100    1.3380 ho        1 DXT      0.444000
     34 H12        -3.6380    0.1810    0.1240 ho        1 DXT      0.508000
     35 H13        -1.4370    1.9230    1.1560 ho        1 DXT      0.493000
     36 H211        2.7110   -0.4900   -3.1300 hn        1 DXT      0.485467
     37 H212        1.2590    0.2090   -2.6310 hn        1 DXT      0.485467
     38 HO3         3.8290   -0.9080    2.3210 ho        1 DXT      0.479000
     39 H4          1.9090   -0.9080    3.4240 hx        1 DXT      0.159700
     40 H411        3.4740    0.8820    4.1870 hx        1 DXT      0.117033
     41 H412        3.5790    1.5370    2.4670 hx        1 DXT      0.117033
     42 H413        3.0540    2.6290    3.8360 hx        1 DXT      0.117033
     43 H421       -0.2830    1.3790    4.2370 hx        1 DXT      0.117033
     44 H422        1.0300    0.4620    5.1560 hx        1 DXT      0.117033
     45 H423        1.1140    2.2880    4.9920 hx        1 DXT      0.117033
     46 H4A        -0.5980   -0.4510    3.3130 hc        1 DXT      0.124700
     47 H5          0.5560   -2.3790    1.1690 h1        1 DXT      0.057700
     48 HO5         0.1620   -3.3770    3.6510 ho        1 DXT      0.455000
     49 H5A        -1.8630   -2.7790    3.0500 hc        1 DXT      0.092700
     50 H6         -1.3260   -3.8950    0.2130 hc        1 DXT      0.065700
     51 H7         -2.4010   -6.6360    1.8400 ha        1 DXT      0.150000
     52 H8         -4.7370   -7.4030    2.0140 ha        1 DXT      0.162000
     53 H9         -6.6290   -5.7920    1.7510 ha        1 DXT      0.164000
     54 H611       -0.6720   -5.2680    2.9120 hc        1 DXT      0.053700
     55 H612        0.5430   -4.6130    1.7270 hc        1 DXT      0.053700
     56 H613       -0.5330   -5.9730    1.2480 hc        1 DXT      0.053700
     57 H213        1.5230   -1.4200   -2.3950 hn        1 DXT      0.485467
     58 H41         1.1730    1.8570    2.5250 hn        1 DXT      0.481800
@<TRIPOS>BOND
     1    1    2 2   
     2    1    3 1   
     3    1   31 1   
     4    3    5 1   
     5    3    7 2   
     6    4    5 2   
     7    5    6 1   
     8    6   36 1   
     9    6   37 1   
    10    6   57 1   
    11    7    8 1   
    12    7    9 1   
    13    8   38 1   
    14    9   10 1   
    15    9   13 1   
    16    9   39 1   
    17   10   11 1   
    18   10   12 1   
    19   10   58 1   
    20   11   40 1   
    21   11   41 1   
    22   11   42 1   
    23   12   43 1   
    24   12   44 1   
    25   12   45 1   
    26   13   14 1   
    27   13   31 1   
    28   13   46 1   
    29   14   15 1   
    30   14   16 1   
    31   14   47 1   
    32   15   48 1   
    33   16   17 1   
    34   16   28 1   
    35   16   49 1   
    36   17   18 1   
    37   17   19 1   
    38   17   50 1   
    39   18   54 1   
    40   18   55 1   
    41   18   56 1   
    42   19   20 ar  
    43   19   25 ar  
    44   20   21 ar  
    45   20   51 1   
    46   21   22 ar  
    47   21   52 1   
    48   22   23 ar  
    49   22   53 1   
    50   23   24 1   
    51   23   25 ar  
    52   24   33 1   
    53   25   26 1   
    54   26   27 2   
    55   26   28 1   
    56   28   29 2   
    57   29   30 1   
    58   29   31 1   
    59   30   34 1   
    60   31   32 1   
    61   32   35 1   
@<TRIPOS>SUBSTRUCTURE
     1 DXT         1 TEMP              0 ****  ****    0 ROOT
