@<TRIPOS>MOLECULE
DXU
   56    58     1     0     0
SMALL
bcc


@<TRIPOS>ATOM
      1 CL1        -0.8590   -0.0870    0.6400 cl        1 DXU     -0.060400
      2 C29         0.8280   -0.0180    0.4090 ca        1 DXU      0.005900
      3 C30         1.6370   -0.2100    1.5310 ca        1 DXU     -0.107000
      4 C31         3.0230   -0.1300    1.4060 ca        1 DXU     -0.084000
      5 C32         3.5900    0.1720    0.1720 ca        1 DXU     -0.107000
      6 C33         2.7740    0.3620   -0.9520 ca        1 DXU      0.005900
      7 CL2         3.5610    0.7830   -2.3970 cl        1 DXU     -0.060400
      8 C28         1.3770    0.2300   -0.8690 ca        1 DXU     -0.158300
      9 C26         0.4560    0.2210   -2.0540 c3        1 DXU      0.168800
     10 N25         0.9010   -0.5420   -3.2460 n3        1 DXU     -0.492700
     11 O24         0.4870    0.1130   -4.3440 os        1 DXU     -0.199100
     12 C23         0.1820    1.5230   -4.1040 c3        1 DXU      0.119100
     13 C27         1.2400    2.3780   -4.7490 c3        1 DXU     -0.125100
     14 C22        -0.0030    1.6270   -2.5720 c3        1 DXU     -0.184700
     15 C21         0.6770    2.7820   -1.9040 c         1 DXU      0.574100
     16 O21         1.4940    3.5760   -2.3410 o         1 DXU     -0.413100
     17 N2          0.2540    2.9930   -0.4600 n4        1 DXU     -0.692800
     18 C2          0.2840    4.4180   -0.0020 c3        1 DXU     -0.021500
     19 C1          0.7030    4.5330    1.4690 c         1 DXU      0.590900
     20 O1          0.8370    3.5390    2.1770 o         1 DXU     -0.506100
     21 C3         -1.0770    5.1410   -0.2920 c3        1 DXU      0.268600
     22 S4         -2.4660    3.9850   -0.2990 ss        1 DXU     -0.391200
     23 C5         -3.2320    4.6710    1.2140 c3        1 DXU      0.099100
     24 C52        -4.7240    4.5660    1.0320 c3        1 DXU     -0.104100
     25 C51        -2.7880    3.8780    2.4220 c3        1 DXU     -0.104100
     26 C6         -2.6700    6.1110    1.2810 c3        1 DXU      0.148500
     27 N7         -1.3380    6.1790    0.6810 n3        1 DXU     -0.831200
     28 C8         -3.6820    7.1490    0.7040 c3        1 DXU      0.312900
     29 O82        -4.7150    7.4380    1.6070 oh        1 DXU     -0.630300
     30 O81        -2.9970    8.3690    0.5200 oh        1 DXU     -0.630300
     31 H1          1.1830   -0.4320    2.5120 ha        1 DXU      0.177000
     32 H2          3.6670   -0.3050    2.2840 ha        1 DXU      0.172000
     33 H3          4.6870    0.2510    0.0740 ha        1 DXU      0.177000
     34 H4         -0.4940   -0.3290   -1.7520 h1        1 DXU      0.125700
     35 H5          1.9190   -0.6070   -3.2640 hn        1 DXU      0.364800
     36 H6         -0.8090    1.6750   -4.6170 h1        1 DXU      0.101700
     37 H7          1.3430    2.0750   -5.8220 hc        1 DXU      0.065367
     38 H8          0.9510    3.4560   -4.7080 hc        1 DXU      0.065367
     39 H9          2.2330    2.2500   -4.2550 hc        1 DXU      0.065367
     40 H10        -1.1120    1.7220   -2.3770 hc        1 DXU      0.113700
     41 H11        -0.7140    2.6200   -0.3120 hn        1 DXU      0.481300
     42 H12         1.0840    4.9590   -0.6010 hx        1 DXU      0.140700
     43 H13         0.8950    5.5730    1.8070 h4        1 DXU      0.083200
     44 H14        -0.9950    5.5450   -1.3410 h2        1 DXU      0.092700
     45 H15        -5.0370    4.8700    0.0040 hc        1 DXU      0.067033
     46 H16        -5.0600    3.5120    1.2040 hc        1 DXU      0.067033
     47 H17        -5.2480    5.2270    1.7700 hc        1 DXU      0.067033
     48 H18        -1.6820    3.9540    2.5700 hc        1 DXU      0.067033
     49 H19        -3.2950    4.2720    3.3390 hc        1 DXU      0.067033
     50 H20        -3.0630    2.8020    2.3080 hc        1 DXU      0.067033
     51 H21        -2.5160    6.3830    2.3710 h1        1 DXU      0.104700
     52 H22        -1.1520    7.0970    0.3140 hn        1 DXU      0.427800
     53 H24        -4.3360    7.8680    2.3870 ho        1 DXU      0.436500
     54 H25        -3.6250    9.0060    0.1530 ho        1 DXU      0.436500
     55 H23        -4.1770    6.7890   -0.2400 h2        1 DXU      0.092700
     56 H221        0.8910    2.4420    0.1410 hn        1 DXU      0.481300
@<TRIPOS>BOND
     1    1    2 1   
     2    2    3 ar  
     3    2    8 ar  
     4    3    4 ar  
     5    3   31 1   
     6    4    5 ar  
     7    4   32 1   
     8    5    6 ar  
     9    5   33 1   
    10    6    7 1   
    11    6    8 ar  
    12    8    9 1   
    13    9   10 1   
    14    9   14 1   
    15    9   34 1   
    16   10   11 1   
    17   10   35 1   
    18   11   12 1   
    19   12   13 1   
    20   12   14 1   
    21   12   36 1   
    22   13   37 1   
    23   13   38 1   
    24   13   39 1   
    25   14   15 1   
    26   14   40 1   
    27   15   16 2   
    28   15   17 1   
    29   17   18 1   
    30   17   41 1   
    31   17   56 1   
    32   18   19 1   
    33   18   21 1   
    34   18   42 1   
    35   19   20 2   
    36   19   43 1   
    37   21   22 1   
    38   21   27 1   
    39   21   44 1   
    40   22   23 1   
    41   23   24 1   
    42   23   25 1   
    43   23   26 1   
    44   24   45 1   
    45   24   46 1   
    46   24   47 1   
    47   25   48 1   
    48   25   49 1   
    49   25   50 1   
    50   26   27 1   
    51   26   28 1   
    52   26   51 1   
    53   27   52 1   
    54   28   29 1   
    55   28   30 1   
    56   28   55 1   
    57   29   53 1   
    58   30   54 1   
@<TRIPOS>SUBSTRUCTURE
     1 DXU         1 TEMP              0 ****  ****    0 ROOT
