@<TRIPOS>MOLECULE
DXU
   56    58     1     0     0
SMALL
bcc


@<TRIPOS>ATOM
      1 Cl1        -0.8100   -0.0560    0.6940 cl        1 DXU     -0.060400
      2 C29         0.8730    0.0250    0.4380 ca        1 DXU      0.005900
      3 C30         1.6990   -0.1370    1.5520 ca        1 DXU     -0.107000
      4 C31         3.0830   -0.0470    1.4050 ca        1 DXU     -0.084000
      5 C32         3.6290    0.2360    0.1580 ca        1 DXU     -0.107000
      6 C33         2.7960    0.3970   -0.9570 ca        1 DXU      0.005900
      7 Cl2         3.5580    0.7970   -2.4220 cl        1 DXU     -0.060400
      8 C28         1.4010    0.2530   -0.8520 ca        1 DXU     -0.158300
      9 C26         0.4640    0.2110   -2.0240 c3        1 DXU      0.168800
     10 N25         0.9000   -0.5700   -3.2070 n7        1 DXU     -0.492700
     11 O24         0.4650    0.0600   -4.3110 os        1 DXU     -0.199100
     12 C23         0.1480    1.4710   -4.0940 c3        1 DXU      0.119100
     13 C27         1.1890    2.3240   -4.7710 c3        1 DXU     -0.125100
     14 C22        -0.0160    1.6030   -2.5620 c3        1 DXU     -0.184700
     15 C21         0.6610    2.7770   -1.9260 c         1 DXU      0.574100
     16 O21         1.4640    3.5700   -2.3900 o         1 DXU     -0.413100
     17 N2          0.2560    3.0110   -0.4810 ny        1 DXU     -0.692800
     18 C2          0.2750    4.4460   -0.0520 c3        1 DXU     -0.021500
     19 C1          0.7040    4.5940    1.4130 c         1 DXU      0.589900
     20 O1          0.8590    3.6160    2.1390 o         1 DXU     -0.506100
     21 C3         -1.0950    5.1490   -0.3450 c3        1 DXU      0.268600
     22 S4         -2.4730    3.9800   -0.3060 ss        1 DXU     -0.392200
     23 C5         -3.2310    4.7000    1.1950 c3        1 DXU      0.100100
     24 C52        -4.7230    4.5770    1.0320 c3        1 DXU     -0.103600
     25 C51        -2.7660    3.9450    2.4200 c3        1 DXU     -0.103600
     26 C6         -2.6800    6.1470    1.2170 c3        1 DXU      0.148500
     27 N7         -1.3550    6.2090    0.6020 n7        1 DXU     -0.831200
     28 C8         -3.7080    7.1600    0.6220 c3        1 DXU      0.312900
     29 O82        -4.7350    7.4640    1.5270 oh        1 DXU     -0.630300
     30 O81        -3.0350    8.3790    0.3970 oh        1 DXU     -0.630300
     31 H1          1.2610   -0.3440    2.5430 ha        1 DXU      0.177000
     32 H2          3.7410   -0.1980    2.2780 ha        1 DXU      0.172000
     33 H3          4.7240    0.3250    0.0430 ha        1 DXU      0.177000
     34 H4         -0.4760   -0.3420   -1.6980 h1        1 DXU      0.125700
     35 H5          1.9190   -0.6260   -3.2390 hn        1 DXU      0.364800
     36 H6         -0.8510    1.6040   -4.5970 h1        1 DXU      0.101700
     37 H7          0.8900    3.4000   -4.7450 hc        1 DXU      0.065367
     38 H8          1.2800    2.0010   -5.8390 hc        1 DXU      0.065367
     39 H9          2.1890    2.2150   -4.2880 hc        1 DXU      0.065367
     40 H10        -1.1230    1.6910   -2.3530 hc        1 DXU      0.113700
     41 H11         0.9080    2.4800    0.1220 hn        1 DXU      0.481300
     42 H12         1.0650    4.9820   -0.6670 hx        1 DXU      0.140700
     43 H13         0.8840    5.6430    1.7310 h4        1 DXU      0.084200
     44 H14        -1.0280    5.5250   -1.4070 h2        1 DXU      0.092700
     45 H15        -5.0480    3.5260    1.2360 hc        1 DXU      0.066867
     46 H16        -5.0490    4.8500   -0.0010 hc        1 DXU      0.066867
     47 H17        -5.2450    5.2540    1.7570 hc        1 DXU      0.066867
     48 H18        -1.6600    4.0340    2.5540 hc        1 DXU      0.066867
     49 H19        -3.2680    4.3590    3.3310 hc        1 DXU      0.066867
     50 H20        -3.0330    2.8630    2.3380 hc        1 DXU      0.066867
     51 H21        -2.5190    6.4500    2.2970 h1        1 DXU      0.104700
     52 H22        -1.1810    7.1190    0.2090 hn        1 DXU      0.427800
     53 H24        -4.3510    7.9180    2.2900 ho        1 DXU      0.436500
     54 H25        -3.6730    9.0010    0.0190 ho        1 DXU      0.436500
     55 H23        -4.2090    6.7690   -0.3060 h2        1 DXU      0.092700
     56 H221       -0.7050    2.6310   -0.3110 hn        1 DXU      0.481300
@<TRIPOS>BOND
     1    1    2 1   
     2    2    3 ar  
     3    2    8 ar  
     4    3    4 ar  
     5    3   31 1   
     6    4    5 ar  
     7    4   32 1   
     8    5    6 ar  
     9    5   33 1   
    10    6    7 1   
    11    6    8 ar  
    12    8    9 1   
    13    9   10 1   
    14    9   14 1   
    15    9   34 1   
    16   10   11 1   
    17   10   35 1   
    18   11   12 1   
    19   12   13 1   
    20   12   14 1   
    21   12   36 1   
    22   13   37 1   
    23   13   38 1   
    24   13   39 1   
    25   14   15 1   
    26   14   40 1   
    27   15   16 2   
    28   15   17 1   
    29   17   18 1   
    30   17   41 1   
    31   17   56 1   
    32   18   19 1   
    33   18   21 1   
    34   18   42 1   
    35   19   20 2   
    36   19   43 1   
    37   21   22 1   
    38   21   27 1   
    39   21   44 1   
    40   22   23 1   
    41   23   24 1   
    42   23   25 1   
    43   23   26 1   
    44   24   45 1   
    45   24   46 1   
    46   24   47 1   
    47   25   48 1   
    48   25   49 1   
    49   25   50 1   
    50   26   27 1   
    51   26   28 1   
    52   26   51 1   
    53   27   52 1   
    54   28   29 1   
    55   28   30 1   
    56   28   55 1   
    57   29   53 1   
    58   30   54 1   
@<TRIPOS>SUBSTRUCTURE
     1 DXU         1 TEMP              0 ****  ****    0 ROOT
