@<TRIPOS>MOLECULE
DXU
   55    57     1     0     0
SMALL
bcc


@<TRIPOS>ATOM
      1 CL1         1.0600   -1.7360   -0.2160 cl        1 DXU     -0.074900
      2 C29         2.3400   -0.6070   -0.1860 ca        1 DXU      0.036900
      3 C30         3.1590   -0.6260    0.9440 ca        1 DXU     -0.125000
      4 C31         4.2310    0.2580    1.0340 ca        1 DXU     -0.109000
      5 C32         4.4720    1.1510   -0.0010 ca        1 DXU     -0.125000
      6 C33         3.6450    1.1710   -1.1350 ca        1 DXU      0.036900
      7 CL2         4.0700    2.3280   -2.3080 cl        1 DXU     -0.074900
      8 C28         2.5550    0.2940   -1.2560 ca        1 DXU     -0.064300
      9 C26         1.6200    0.1890   -2.4220 c3        1 DXU      0.168800
     10 N25         2.0390    0.6870   -3.7570 n3        1 DXU     -0.506700
     11 O24         0.9120    0.8710   -4.4710 os        1 DXU     -0.226100
     12 C23        -0.2660    1.0970   -3.6230 c3        1 DXU      0.116100
     13 C27        -0.8030    2.4800   -3.8880 c3        1 DXU     -0.118100
     14 C22         0.2030    0.8070   -2.1830 c3        1 DXU     -0.174700
     15 C21         0.2540    2.0620   -1.3290 c         1 DXU      0.670100
     16 O21         0.9480    3.0530   -1.6390 o         1 DXU     -0.612100
     17 N2         -0.5190    2.0830   -0.1860 n         1 DXU     -0.560900
     18 C2         -0.5070    3.2080    0.7150 c3        1 DXU      0.005700
     19 C1         -0.8800    2.8410    2.1460 c         1 DXU      0.574900
     20 O1         -1.0930    1.6900    2.5240 o         1 DXU     -0.525100
     21 C3         -1.4190    4.3630    0.2030 c3        1 DXU      0.250600
     22 S4         -3.1640    3.8860    0.2100 ss        1 DXU     -0.342200
     23 C5         -3.7250    5.3450    1.1270 c3        1 DXU      0.057100
     24 C52        -4.9750    5.8620    0.4610 c3        1 DXU     -0.087600
     25 C51        -4.0290    4.9430    2.5550 c3        1 DXU     -0.087600
     26 C6         -2.5220    6.3200    1.1050 c3        1 DXU      0.157500
     27 N7         -1.2770    5.5630    1.0110 n3        1 DXU     -0.820200
     28 C8         -2.6850    7.4180    0.0140 c3        1 DXU      0.300900
     29 O82        -3.6270    8.4050    0.3530 oh        1 DXU     -0.631800
     30 O81        -1.4610    8.1190   -0.0770 oh        1 DXU     -0.631800
     31 H1          2.9590   -1.3390    1.7600 ha        1 DXU      0.155000
     32 H2          4.8820    0.2470    1.9210 ha        1 DXU      0.146000
     33 H3          5.3200    1.8520    0.0660 ha        1 DXU      0.155000
     34 H4          1.4550   -0.9230   -2.6040 h1        1 DXU      0.099700
     35 H5          2.4930    1.5970   -3.6390 hn        1 DXU      0.357800
     36 H6         -1.0030    0.3150   -3.9520 h1        1 DXU      0.071700
     37 H7         -1.6340    2.7100   -3.1790 hc        1 DXU      0.056367
     38 H8          0.0020    3.2470   -3.7670 hc        1 DXU      0.056367
     39 H9         -1.1880    2.5360   -4.9340 hc        1 DXU      0.056367
     40 H10        -0.4590    0.0280   -1.7220 hc        1 DXU      0.088700
     41 H11        -1.0460    1.2870    0.0900 hn        1 DXU      0.335500
     42 H12         0.5540    3.6170    0.7470 h1        1 DXU      0.100700
     43 H13        -0.9160    3.7090    2.8390 h4        1 DXU      0.031200
     44 H14        -1.1410    4.5420   -0.8770 h2        1 DXU      0.079700
     45 H15        -5.8190    5.1490    0.6350 hc        1 DXU      0.052200
     46 H16        -4.8350    5.9760   -0.6400 hc        1 DXU      0.052200
     47 H17        -5.2580    6.8570    0.8870 hc        1 DXU      0.052200
     48 H18        -3.1050    4.5880    3.0720 hc        1 DXU      0.052200
     49 H19        -4.7840    4.1190    2.5710 hc        1 DXU      0.052200
     50 H20        -4.4440    5.8140    3.1200 hc        1 DXU      0.052200
     51 H21        -2.4730    6.8610    2.0990 h1        1 DXU      0.084700
     52 H22        -0.5260    6.1430    0.6790 hn        1 DXU      0.405800
     53 H24        -3.3680    8.7940    1.1990 ho        1 DXU      0.421500
     54 H25        -1.5500    8.7650   -0.7890 ho        1 DXU      0.421500
     55 H23        -3.0120    6.9990   -0.9770 h2        1 DXU      0.087700
@<TRIPOS>BOND
     1    1    2 1   
     2    2    3 ar  
     3    2    8 ar  
     4    3    4 ar  
     5    3   31 1   
     6    4    5 ar  
     7    4   32 1   
     8    5    6 ar  
     9    5   33 1   
    10    6    7 1   
    11    6    8 ar  
    12    8    9 1   
    13    9   10 1   
    14    9   14 1   
    15    9   34 1   
    16   10   11 1   
    17   10   35 1   
    18   11   12 1   
    19   12   13 1   
    20   12   14 1   
    21   12   36 1   
    22   13   37 1   
    23   13   38 1   
    24   13   39 1   
    25   14   15 1   
    26   14   40 1   
    27   15   16 2   
    28   15   17 1   
    29   17   18 1   
    30   17   41 1   
    31   18   19 1   
    32   18   21 1   
    33   18   42 1   
    34   19   20 2   
    35   19   43 1   
    36   21   22 1   
    37   21   27 1   
    38   21   44 1   
    39   22   23 1   
    40   23   24 1   
    41   23   25 1   
    42   23   26 1   
    43   24   45 1   
    44   24   46 1   
    45   24   47 1   
    46   25   48 1   
    47   25   49 1   
    48   25   50 1   
    49   26   27 1   
    50   26   28 1   
    51   26   51 1   
    52   27   52 1   
    53   28   29 1   
    54   28   30 1   
    55   28   55 1   
    56   29   53 1   
    57   30   54 1   
@<TRIPOS>SUBSTRUCTURE
     1 DXU         1 TEMP              0 ****  ****    0 ROOT
