@<TRIPOS>MOLECULE
DXW
   51    53     1     0     0
SMALL
bcc


@<TRIPOS>ATOM
      1 N02         1.9420    2.4430    0.8030 nv        1 DXW     -0.930500
      2 C02         2.5010    1.2070    0.4620 ca        1 DXW      0.646200
      3 C03         2.5160    0.1570    1.4330 ca        1 DXW     -0.296300
      4 C04         3.1640   -1.0370    1.1310 ca        1 DXW      0.006700
      5 C05         3.7820   -1.1750   -0.1200 ca        1 DXW     -0.299300
      6 C07         3.1900   -2.1500    2.1080 c3        1 DXW     -0.066800
      7 N01         3.0870    1.0620   -0.7700 nb        1 DXW     -0.742000
      8 C06         3.7140   -0.1060   -1.0310 ca        1 DXW      0.434600
      9 C08         4.3960   -0.2580   -2.3640 c3        1 DXW     -0.109700
     10 C3'         3.7240   -1.2980   -3.2370 c3        1 DXW     -0.085700
     11 C4'         4.5140   -1.5950   -4.5320 c3        1 DXW      0.114100
     12 C5'         3.4740   -1.4970   -5.6770 c3        1 DXW      0.126800
     13 N1'         2.2820   -0.8280   -5.1790 n7        1 DXW     -0.783200
     14 C2'         2.3180   -0.8650   -3.7200 c3        1 DXW      0.142800
     15 O09         5.5140   -0.5780   -4.6850 os        1 DXW     -0.464600
     16 C10         6.6010   -0.9490   -5.5200 c3        1 DXW      0.108400
     17 C11         7.4680    0.3090   -5.6700 c3        1 DXW      0.101800
     18 N12         7.7780    0.9380   -4.3540 ny        1 DXW     -0.765000
     19 C13         8.5140    2.2380   -4.5010 c3        1 DXW      0.114500
     20 C22         8.7530    2.8540   -3.1900 cc        1 DXW      0.091000
     21 O21         7.5980    3.2310   -2.4790 os        1 DXW     -0.371800
     22 C23         8.0410    3.8480   -1.3160 cc        1 DXW      0.317600
     23 C24         9.4250    3.8740   -1.2810 cd        1 DXW     -0.270300
     24 C25         9.8840    3.2290   -2.4870 cd        1 DXW     -0.140300
     25 H1          1.7490    3.0690    0.0540 hn        1 DXW      0.412300
     26 H2          1.2300    2.3950    1.4960 hn        1 DXW      0.412300
     27 H3          2.0300    0.2950    2.4090 ha        1 DXW      0.151000
     28 H4          4.3050   -2.1020   -0.3840 ha        1 DXW      0.138000
     29 H5          2.3170   -2.8280    1.9300 hc        1 DXW      0.056367
     30 H6          4.1270   -2.7500    2.0050 hc        1 DXW      0.056367
     31 H7          3.1260   -1.7660    3.1560 hc        1 DXW      0.056367
     32 H8          5.4570   -0.5740   -2.1720 hc        1 DXW      0.045200
     33 H9          4.4320    0.7210   -2.9150 hc        1 DXW      0.045200
     34 H10         3.6320   -2.2560   -2.6590 hc        1 DXW      0.077700
     35 H11         5.0030   -2.6020   -4.4980 h1        1 DXW      0.062700
     36 H12         3.1760   -2.5370   -5.9870 h1        1 DXW      0.062200
     37 H13         3.9090   -0.9710   -6.5660 h1        1 DXW      0.062200
     38 H14         2.2470    0.1190   -5.5060 hn        1 DXW      0.357800
     39 H16         1.5600   -1.6270   -3.3870 h1        1 DXW      0.071200
     40 H17         2.0320    0.1260   -3.2760 h1        1 DXW      0.071200
     41 H18         7.1760   -1.7910   -5.0510 h1        1 DXW      0.071200
     42 H19         6.2410   -1.2590   -6.5370 h1        1 DXW      0.071200
     43 H20         8.4330    0.0400   -6.1820 hx        1 DXW      0.109700
     44 H21         6.9150    1.0710   -6.2910 hx        1 DXW      0.109700
     45 H22         6.8880    1.1060   -3.8520 hn        1 DXW      0.464800
     46 H24         7.8750    2.9150   -5.1440 hx        1 DXW      0.116200
     47 H25         9.4930    2.0400   -5.0240 hx        1 DXW      0.116200
     48 H26         7.2430    4.1900   -0.6550 h4        1 DXW      0.083100
     49 H27        10.0610    4.2960   -0.5040 ha        1 DXW      0.192000
     50 H28        10.9260    3.0860   -2.7730 ha        1 DXW      0.181000
     51 H122        8.3310    0.2900   -3.7820 hn        1 DXW      0.464800
@<TRIPOS>BOND
     1    1    2 1   
     2    1   25 1   
     3    1   26 1   
     4    2    3 ar  
     5    2    7 ar  
     6    3    4 ar  
     7    3   27 1   
     8    4    5 ar  
     9    4    6 1   
    10    5    8 ar  
    11    5   28 1   
    12    6   29 1   
    13    6   30 1   
    14    6   31 1   
    15    7    8 ar  
    16    8    9 1   
    17    9   10 1   
    18    9   32 1   
    19    9   33 1   
    20   10   11 1   
    21   10   14 1   
    22   10   34 1   
    23   11   12 1   
    24   11   15 1   
    25   11   35 1   
    26   12   13 1   
    27   12   36 1   
    28   12   37 1   
    29   13   14 1   
    30   13   38 1   
    31   14   39 1   
    32   14   40 1   
    33   15   16 1   
    34   16   17 1   
    35   16   41 1   
    36   16   42 1   
    37   17   18 1   
    38   17   43 1   
    39   17   44 1   
    40   18   19 1   
    41   18   45 1   
    42   18   51 1   
    43   19   20 1   
    44   19   46 1   
    45   19   47 1   
    46   20   21 1   
    47   20   24 2   
    48   21   22 1   
    49   22   23 2   
    50   22   48 1   
    51   23   24 1   
    52   23   49 1   
    53   24   50 1   
@<TRIPOS>SUBSTRUCTURE
     1 DXW         1 TEMP              0 ****  ****    0 ROOT
