@<TRIPOS>MOLECULE
DXW
   50    52     1     0     0
SMALL
bcc


@<TRIPOS>ATOM
      1 N02         5.4730    1.7190    0.9500 nh        1 DXW     -0.922500
      2 C02         4.1440    1.8160    0.5020 ca        1 DXW      0.629200
      3 C03         3.7000    3.0370   -0.0900 ca        1 DXW     -0.302300
      4 C04         2.4160    3.0980   -0.6270 ca        1 DXW     -0.007300
      5 C05         1.5980    1.9650   -0.5590 ca        1 DXW     -0.291300
      6 C07         1.9270    4.3390   -1.2710 c3        1 DXW     -0.060800
      7 N01         3.3350    0.7120    0.5830 nb        1 DXW     -0.732000
      8 C06         2.0970    0.7960    0.0520 ca        1 DXW      0.451600
      9 C08         1.1870   -0.4010    0.1400 c3        1 DXW     -0.114700
     10 C3'         1.7960   -1.6510   -0.4550 c3        1 DXW     -0.073700
     11 C4'         0.7560   -2.7520   -0.7640 c3        1 DXW      0.114100
     12 C5'         1.3120   -4.0450   -0.1090 c3        1 DXW      0.113800
     13 N1'         2.6420   -3.7840    0.4240 n3        1 DXW     -0.789200
     14 C2'         2.8180   -2.3350    0.4840 c3        1 DXW      0.147800
     15 O09        -0.4950   -2.3900   -0.1890 os        1 DXW     -0.421600
     16 C10        -1.5790   -3.1800   -0.6780 c3        1 DXW      0.123400
     17 C11        -2.8430   -2.6710    0.0220 c3        1 DXW      0.163800
     18 N12        -3.2210   -1.3370   -0.4000 n3        1 DXW     -0.818200
     19 C13        -4.2910   -0.7790    0.4070 c3        1 DXW      0.136500
     20 C22        -4.4720    0.6800    0.2230 cc        1 DXW      0.241000
     21 O21        -3.3720    1.4910    0.5320 os        1 DXW     -0.367800
     22 C23        -3.7820    2.8080    0.3240 cc        1 DXW      0.237600
     23 C24        -5.0950    2.8380   -0.1010 cd        1 DXW     -0.263300
     24 C25        -5.5400    1.4630   -0.1700 cd        1 DXW     -0.248300
     25 H1          5.6780    0.9310    1.5240 hn        1 DXW      0.399300
     26 H2          5.8300    2.5760    1.3090 hn        1 DXW      0.399300
     27 H3          4.3640    3.9100   -0.1340 ha        1 DXW      0.141000
     28 H4          0.5810    1.9850   -0.9730 ha        1 DXW      0.144000
     29 H5          2.1220    4.2930   -2.3730 hc        1 DXW      0.048367
     30 H6          0.8280    4.4620   -1.1150 hc        1 DXW      0.048367
     31 H7          2.4490    5.2380   -0.8600 hc        1 DXW      0.048367
     32 H8          0.9150   -0.5830    1.2150 hc        1 DXW      0.069200
     33 H9          0.2310   -0.1670   -0.4040 hc        1 DXW      0.069200
     34 H10         2.3070   -1.3840   -1.4190 hc        1 DXW      0.056700
     35 H11         0.6370   -2.8830   -1.8730 h1        1 DXW      0.042700
     36 H12         0.6490   -4.3330    0.7540 h1        1 DXW      0.053700
     37 H13         1.3170   -4.8900   -0.8460 h1        1 DXW      0.053700
     38 H14         3.3370   -4.1900   -0.1760 hn        1 DXW      0.343800
     39 H16         3.8650   -2.0380    0.2110 h1        1 DXW      0.063200
     40 H17         2.6330   -2.0170    1.5470 h1        1 DXW      0.063200
     41 H18        -1.6530   -3.0790   -1.7930 h1        1 DXW      0.038700
     42 H19        -1.4130   -4.2570   -0.4100 h1        1 DXW      0.038700
     43 H20        -3.6870   -3.3680   -0.2440 h1        1 DXW      0.040200
     44 H21        -2.6760   -2.7400    1.1380 h1        1 DXW      0.040200
     45 H22        -2.4200   -0.7310   -0.4010 hn        1 DXW      0.379800
     46 H24        -5.2490   -1.2920    0.1010 h1        1 DXW      0.049200
     47 H25        -4.1400   -0.9680    1.5140 h1        1 DXW      0.049200
     48 H26        -3.0190    3.5520    0.5280 h4        1 DXW      0.051100
     49 H27        -5.6950    3.7100   -0.3430 ha        1 DXW      0.161000
     50 H28        -6.5270    1.1300   -0.4770 ha        1 DXW      0.162000
@<TRIPOS>BOND
     1    1    2 1   
     2    1   25 1   
     3    1   26 1   
     4    2    3 ar  
     5    2    7 ar  
     6    3    4 ar  
     7    3   27 1   
     8    4    5 ar  
     9    4    6 1   
    10    5    8 ar  
    11    5   28 1   
    12    6   29 1   
    13    6   30 1   
    14    6   31 1   
    15    7    8 ar  
    16    8    9 1   
    17    9   10 1   
    18    9   32 1   
    19    9   33 1   
    20   10   11 1   
    21   10   14 1   
    22   10   34 1   
    23   11   12 1   
    24   11   15 1   
    25   11   35 1   
    26   12   13 1   
    27   12   36 1   
    28   12   37 1   
    29   13   14 1   
    30   13   38 1   
    31   14   39 1   
    32   14   40 1   
    33   15   16 1   
    34   16   17 1   
    35   16   41 1   
    36   16   42 1   
    37   17   18 1   
    38   17   43 1   
    39   17   44 1   
    40   18   19 1   
    41   18   45 1   
    42   19   20 1   
    43   19   46 1   
    44   19   47 1   
    45   20   21 1   
    46   20   24 2   
    47   21   22 1   
    48   22   23 2   
    49   22   48 1   
    50   23   24 1   
    51   23   49 1   
    52   24   50 1   
@<TRIPOS>SUBSTRUCTURE
     1 DXW         1 TEMP              0 ****  ****    0 ROOT
