@<TRIPOS>MOLECULE
DXW
   52    54     1     0     0
SMALL
bcc


@<TRIPOS>ATOM
      1 N02        -0.3050   -3.1020   -0.7640 n4        1 DXW     -0.818300
      2 C02         0.7530   -2.2050   -0.2440 ca        1 DXW      0.453200
      3 C03         0.6660   -1.7480    1.0820 ca        1 DXW     -0.206300
      4 C04         1.6900   -0.8960    1.5420 ca        1 DXW      0.011700
      5 C05         2.7220   -0.5590    0.6650 ca        1 DXW     -0.201300
      6 C07         1.6470   -0.3720    2.9250 c3        1 DXW     -0.086800
      7 N01         1.7540   -1.8890   -1.1150 nb        1 DXW     -0.671000
      8 C06         2.7260   -1.0720   -0.6570 ca        1 DXW      0.456600
      9 C08         3.8640   -0.7020   -1.5730 c3        1 DXW     -0.123700
     10 C3'         3.4230    0.1990   -2.7080 c3        1 DXW     -0.106700
     11 C4'         4.5670    0.5580   -3.6830 c3        1 DXW      0.102100
     12 C5'         4.5800    2.1110   -3.7490 c3        1 DXW      0.145800
     13 N1'         3.7320    2.6430   -2.6970 n3        1 DXW     -0.781200
     14 C2'         2.8870    1.5630   -2.2050 c3        1 DXW      0.148800
     15 O09         5.8490    0.1540   -3.1850 os        1 DXW     -0.438600
     16 C10         6.4370   -0.9540   -3.8390 c3        1 DXW      0.104400
     17 C11         7.3390   -0.4810   -4.9890 c3        1 DXW      0.065800
     18 N12         8.3370    0.5290   -4.5450 n4        1 DXW     -0.764000
     19 C13         9.1430    1.0770   -5.6930 c3        1 DXW      0.118500
     20 C22        10.0910    2.0920   -5.2260 cc        1 DXW      0.080000
     21 O21         9.5150    3.2640   -4.6960 os        1 DXW     -0.383800
     22 C23        10.5730    4.1210   -4.4100 cc        1 DXW      0.318600
     23 C24        11.7780    3.5290   -4.7440 cd        1 DXW     -0.262300
     24 C25        11.4690    2.2200   -5.2660 cd        1 DXW     -0.126300
     25 H1          0.1100   -3.9820   -1.0960 hn        1 DXW      0.473800
     26 H2         -0.7920   -2.6490   -1.5490 hn        1 DXW      0.473800
     27 H3         -0.1570   -2.0260    1.7590 ha        1 DXW      0.176000
     28 H4          3.5380    0.1050    0.9960 ha        1 DXW      0.180000
     29 H5          1.3290   -1.1690    3.6440 hc        1 DXW      0.082033
     30 H6          0.9100    0.4710    2.9900 hc        1 DXW      0.082033
     31 H7          2.6480    0.0130    3.2440 hc        1 DXW      0.082033
     32 H8          4.3220   -1.6360   -2.0010 hc        1 DXW      0.074700
     33 H9          4.6600   -0.1880   -0.9700 hc        1 DXW      0.074700
     34 H10         2.6150   -0.3160   -3.2940 hc        1 DXW      0.079700
     35 H11         4.3810    0.1140   -4.6940 h1        1 DXW      0.064700
     36 H12         4.1440    2.4340   -4.7350 h1        1 DXW      0.065200
     37 H13         5.6300    2.5000   -3.6760 h1        1 DXW      0.065200
     38 H14         4.2800    3.0390   -1.9560 hn        1 DXW      0.368800
     39 H16         2.8170    1.5760   -1.0840 h1        1 DXW      0.060700
     40 H17         1.8550    1.7340   -2.6200 h1        1 DXW      0.060700
     41 H18         7.0380   -1.4750   -3.0420 h1        1 DXW      0.089700
     42 H19         5.6770   -1.6640   -4.2590 h1        1 DXW      0.089700
     43 H20         7.8880   -1.3650   -5.4220 hx        1 DXW      0.111700
     44 H21         6.7080   -0.0110   -5.7970 hx        1 DXW      0.111700
     45 H22         7.8410    1.3060   -4.0810 hn        1 DXW      0.459800
     46 H24         8.4130    1.5240   -6.4320 hx        1 DXW      0.118700
     47 H25         9.6960    0.2230   -6.1810 hx        1 DXW      0.118700
     48 H26        10.2750    5.0820   -3.9880 h4        1 DXW      0.083100
     49 H27        12.7770    3.9540   -4.6440 ha        1 DXW      0.199000
     50 H28        12.1980    1.4940   -5.6280 ha        1 DXW      0.186000
     51 H023       -0.9760   -3.3020   -0.0150 hn        1 DXW      0.473800
     52 H122        8.9690    0.1130   -3.8530 hn        1 DXW      0.459800
@<TRIPOS>BOND
     1    1    2 1   
     2    1   25 1   
     3    1   26 1   
     4    1   51 1   
     5    2    3 ar  
     6    2    7 ar  
     7    3    4 ar  
     8    3   27 1   
     9    4    5 ar  
    10    4    6 1   
    11    5    8 ar  
    12    5   28 1   
    13    6   29 1   
    14    6   30 1   
    15    6   31 1   
    16    7    8 ar  
    17    8    9 1   
    18    9   10 1   
    19    9   32 1   
    20    9   33 1   
    21   10   11 1   
    22   10   14 1   
    23   10   34 1   
    24   11   12 1   
    25   11   15 1   
    26   11   35 1   
    27   12   13 1   
    28   12   36 1   
    29   12   37 1   
    30   13   14 1   
    31   13   38 1   
    32   14   39 1   
    33   14   40 1   
    34   15   16 1   
    35   16   17 1   
    36   16   41 1   
    37   16   42 1   
    38   17   18 1   
    39   17   43 1   
    40   17   44 1   
    41   18   19 1   
    42   18   45 1   
    43   18   52 1   
    44   19   20 1   
    45   19   46 1   
    46   19   47 1   
    47   20   21 1   
    48   20   24 2   
    49   21   22 1   
    50   22   23 2   
    51   22   48 1   
    52   23   24 1   
    53   23   49 1   
    54   24   50 1   
@<TRIPOS>SUBSTRUCTURE
     1 DXW         1 TEMP              0 ****  ****    0 ROOT
