@<TRIPOS>MOLECULE
DXW
   50    46     1     0     0
SMALL
bcc


@<TRIPOS>ATOM
      1 N02        -5.0600    0.4070    3.6450 n3        1 DXW     -0.321000
      2 C02        -3.8020    1.0820    3.3800 c1        1 DXW      0.111000
      3 C03        -3.2300    1.9150    4.3660 c1        1 DXW     -0.237000
      4 C04        -2.0770    2.5350    4.1260 c1        1 DXW      0.002000
      5 C05        -1.4410    2.3660    2.9160 c2        1 DXW     -0.230000
      6 C07        -1.4980    3.4840    5.1660 c2        1 DXW     -0.186000
      7 N01        -3.1730    0.9100    2.1730 n1        1 DXW     -0.204000
      8 C06        -2.0080    1.5380    1.9320 c1        1 DXW      0.030000
      9 C08        -1.2180    1.2510    0.6110 c3        1 DXW     -0.103000
     10 C3'        -2.1420    1.1970   -0.5130 c3        1 DXW     -0.147000
     11 C4'        -1.5220    0.4070   -1.6820 c3        1 DXW      0.005000
     12 C5'        -1.6910    1.1640   -2.7280 c3        1 DXW     -0.099000
     13 N1'        -1.7550    2.6540   -2.1980 n3        1 DXW     -0.269000
     14 C2'        -2.3920    2.6060   -1.0560 c3        1 DXW     -0.095000
     15 O09        -0.0830    0.1740   -1.4450 os        1 DXW     -0.281000
     16 C10         0.4020   -1.0430   -2.0430 c3        1 DXW     -0.024000
     17 C11         1.9040   -0.9300   -2.3030 c3        1 DXW     -0.087000
     18 N12         2.5310   -2.2900   -2.1750 n3        1 DXW     -0.289000
     19 C13         3.8790   -2.2180   -2.5680 c3        1 DXW     -0.008000
     20 C22         4.6710   -3.4400   -1.9630 c2        1 DXW     -0.090000
     21 O21         4.6810   -3.8230   -0.6130 os        1 DXW     -0.111000
     22 C23         5.5770   -4.8550   -0.4690 c1        1 DXW     -0.092000
     23 C24         6.1230   -5.1190   -1.6980 c1        1 DXW     -0.198000
     24 C25         5.5510   -4.2290   -2.6280 c1        1 DXW     -0.185000
     25 H1         -5.3640   -0.2520    3.0650 hn        1 DXW      0.195500
     26 H2         -5.5250    0.6050    4.3690 hn        1 DXW      0.195500
     27 H3         -3.6810    2.0370    5.2260 ha        1 DXW      0.141000
     28 H4         -0.6490    2.7950    2.7510 ha        1 DXW      0.141000
     29 H5         -0.4790    3.3670    5.2120 ha        1 DXW      0.088667
     30 H6         -1.8890    3.2830    6.0440 ha        1 DXW      0.088667
     31 H7         -1.7080    4.4050    4.9180 ha        1 DXW      0.088667
     32 H8         -0.5330    2.0040    0.4550 hc        1 DXW      0.102000
     33 H9         -0.7540    0.4050    0.6880 hc        1 DXW      0.102000
     34 H10        -2.9820    0.7870   -0.2400 hc        1 DXW      0.116000
     35 H11        -1.9770   -0.4200   -1.8000 h1        1 DXW      0.092000
     36 H12        -2.5390    0.9240   -3.1900 h1        1 DXW      0.099500
     37 H13        -0.9420    1.0610   -3.3350 h1        1 DXW      0.099500
     38 H14        -0.9410    2.9580   -2.0680 hn        1 DXW      0.143000
     39 H16        -2.0280    3.2700   -0.4480 h1        1 DXW      0.094000
     40 H17        -3.3650    2.7550   -1.1920 h1        1 DXW      0.094000
     41 H18        -0.0560   -1.1950   -2.8730 h1        1 DXW      0.077000
     42 H19         0.2230   -1.8410   -1.4000 h1        1 DXW      0.077000
     43 H20         2.0550   -0.5860   -3.2060 h1        1 DXW      0.087000
     44 H21         2.3140   -0.3090   -1.6370 h1        1 DXW      0.087000
     45 H22         2.0740   -2.9030   -2.7320 hn        1 DXW      0.163000
     46 H24         3.9350   -2.2390   -3.5220 h1        1 DXW      0.111000
     47 H25         4.2780   -1.3640   -2.2300 h1        1 DXW      0.111000
     48 H26         5.8030   -5.3510    0.4220 DU        1 DXW      0.171333
     49 H27         6.7410   -5.7530   -1.8790 DU        1 DXW      0.171333
     50 H28         5.7610   -4.1850   -3.6270 DU        1 DXW      0.171333
@<TRIPOS>BOND
     1    1    2 1   
     2    1   25 1   
     3    1   26 1   
     4    2    7 1   
     5    3    4 1   
     6    3   27 1   
     7    4    5 1   
     8    5    8 1   
     9    5   28 1   
    10    6   29 1   
    11    6   30 1   
    12    6   31 1   
    13    8    9 1   
    14    9   10 1   
    15    9   32 1   
    16    9   33 1   
    17   10   11 1   
    18   10   14 1   
    19   10   34 1   
    20   11   12 1   
    21   11   15 1   
    22   11   35 1   
    23   12   13 1   
    24   12   36 1   
    25   12   37 1   
    26   13   14 1   
    27   13   38 1   
    28   14   39 1   
    29   14   40 1   
    30   15   16 1   
    31   16   17 1   
    32   16   41 1   
    33   16   42 1   
    34   17   18 1   
    35   17   43 1   
    36   17   44 1   
    37   18   19 1   
    38   18   45 1   
    39   19   20 1   
    40   19   46 1   
    41   19   47 1   
    42   20   21 1   
    43   20   24 1   
    44   21   22 1   
    45   22   23 1   
    46   23   24 1   
@<TRIPOS>SUBSTRUCTURE
     1 DXW         1 TEMP              0 ****  ****    0 ROOT
