@<TRIPOS>MOLECULE
DXX
   12    10     1     0     0
SMALL
bcc


@<TRIPOS>ATOM
      1 C1          0.3690    0.1940    1.4190 c1        1 DXX      0.347000
      2 OXT         1.6280    0.1940    1.4190 os        1 DXX     -0.613000
      3 O1         -0.2600    0.1940    2.5090 o         1 DXX     -0.639000
      4 CA         -0.3870    0.1940    0.1080 c3        1 DXX     -0.200000
      5 CB         -0.3290   -1.1860   -0.5080 c3        1 DXX     -0.158000
      6 C           0.2410    1.1950   -0.8360 c2        1 DXX      0.346000
      7 O          -0.4830    2.0250   -1.4460 o         1 DXX     -0.627000
      8 O2          1.4870    1.1980   -1.0130 o         1 DXX     -0.627000
      9 HA         -1.3180    0.4390    0.2700 hc        1 DXX      0.059000
     10 HB1        -0.7510   -1.8290    0.0930 hc        1 DXX      0.037000
     11 HB2         0.6030   -1.4390   -0.6520 hc        1 DXX      0.037000
     12 HB3        -0.8000   -1.1810   -1.3620 hc        1 DXX      0.037000
@<TRIPOS>BOND
     1    1    3 1   
     2    1    4 1   
     3    4    5 1   
     4    4    6 1   
     5    4    9 1   
     6    5   10 1   
     7    5   11 1   
     8    5   12 1   
     9    6    7 1   
    10    6    8 1   
@<TRIPOS>SUBSTRUCTURE
     1 DXX         1 TEMP              0 ****  ****    0 ROOT
