@<TRIPOS>MOLECULE
DXX
   12    11     1     0     0
SMALL
bcc


@<TRIPOS>ATOM
      1 C1         -0.1030    0.3160   -1.3170 c         1 DXX      0.927100
      2 OXT        -0.5490    1.4220   -1.7590 o         1 DXX     -0.891800
      3 O1         -0.2370   -0.7520   -1.9960 o         1 DXX     -0.891800
      4 CA          0.7130    0.3030   -0.0150 c3        1 DXX     -0.260700
      5 CB          1.6110   -0.9130    0.0220 c3        1 DXX     -0.040100
      6 C          -0.0890    0.3630    1.2970 c         1 DXX      0.927100
      7 O          -0.8030   -0.6160    1.6760 o         1 DXX     -0.891800
      8 O2          0.0600    1.3870    2.0420 o         1 DXX     -0.891800
      9 HA          1.3510    1.2300   -0.0410 hc        1 DXX      0.019700
     10 HB1         0.9780   -1.8310    0.0830 hc        1 DXX     -0.002300
     11 HB2         2.2350   -0.9740   -0.9020 hc        1 DXX     -0.002300
     12 HB3         2.2920   -0.8820    0.9090 hc        1 DXX     -0.002300
@<TRIPOS>BOND
     1    1    2 1   
     2    1    3 1   
     3    1    4 1   
     4    4    5 1   
     5    4    6 1   
     6    4    9 1   
     7    5   10 1   
     8    5   11 1   
     9    5   12 1   
    10    6    7 1   
    11    6    8 1   
@<TRIPOS>SUBSTRUCTURE
     1 DXX         1 TEMP              0 ****  ****    0 ROOT
