@<TRIPOS>MOLECULE
DXX
   12    11     1     0     0
SMALL
bcc


@<TRIPOS>ATOM
      1 C1          0.1700   -0.3230   -0.2400 c         1 DXX      0.927100
      2 OXT         1.1370   -1.1170   -0.4800 o         1 DXX     -0.891800
      3 O1         -0.0080    0.1480    0.9250 o         1 DXX     -0.891800
      4 CA         -0.6990    0.1350   -1.4250 c3        1 DXX     -0.260700
      5 CB         -0.6110    1.6410   -1.5370 c3        1 DXX     -0.040100
      6 C          -2.1710   -0.3070   -1.4050 c         1 DXX      0.927100
      7 O          -3.0850    0.5340   -1.1260 o         1 DXX     -0.891800
      8 O2         -2.4700   -1.4870   -1.7720 o         1 DXX     -0.891800
      9 HA         -0.2500   -0.3290   -2.3470 hc        1 DXX      0.019700
     10 HB1        -1.2050    2.0090   -2.4090 hc        1 DXX     -0.002300
     11 HB2        -1.0250    2.0990   -0.6070 hc        1 DXX     -0.002300
     12 HB3         0.4490    1.9710   -1.6640 hc        1 DXX     -0.002300
@<TRIPOS>BOND
     1    1    2 1   
     2    1    3 1   
     3    1    4 1   
     4    4    5 1   
     5    4    6 1   
     6    4    9 1   
     7    5   10 1   
     8    5   11 1   
     9    5   12 1   
    10    6    7 1   
    11    6    8 1   
@<TRIPOS>SUBSTRUCTURE
     1 DXX         1 TEMP              0 ****  ****    0 ROOT
