@<TRIPOS>MOLECULE
DXX
   12    11     1     0     0
SMALL
bcc


@<TRIPOS>ATOM
      1 C1          0.1390   -0.2300   -0.1450 c         1 DXX      0.927100
      2 OXT         1.0020   -1.1610   -0.2520 o         1 DXX     -0.891800
      3 O1          0.0790    0.4800    0.9050 o         1 DXX     -0.891800
      4 CA         -0.7440    0.0800   -1.3670 c3        1 DXX     -0.260700
      5 CB         -0.5050    1.5130   -1.7860 c3        1 DXX     -0.040100
      6 C          -2.2500   -0.1790   -1.2060 c         1 DXX      0.927100
      7 O          -3.0540    0.7990   -1.0710 o         1 DXX     -0.891800
      8 O2         -2.6910   -1.3660   -1.3160 o         1 DXX     -0.891800
      9 HA         -0.3990   -0.6060   -2.1910 hc        1 DXX      0.019700
     10 HB1        -1.1060    1.7660   -2.6930 hc        1 DXX     -0.002300
     11 HB2        -0.8150    2.1910   -0.9550 hc        1 DXX     -0.002300
     12 HB3         0.5750    1.6890   -2.0140 hc        1 DXX     -0.002300
@<TRIPOS>BOND
     1    1    2 1   
     2    1    3 1   
     3    1    4 1   
     4    4    5 1   
     5    4    6 1   
     6    4    9 1   
     7    5   10 1   
     8    5   11 1   
     9    5   12 1   
    10    6    7 1   
    11    6    8 1   
@<TRIPOS>SUBSTRUCTURE
     1 DXX         1 TEMP              0 ****  ****    0 ROOT
