@<TRIPOS>MOLECULE
DXY
   58    55     1     0     0
SMALL
bcc


@<TRIPOS>ATOM
      1 OE1         3.0110    8.3660    4.4430 o         1 DXY     -0.608500
      2 CD          2.9820    7.1960    4.9070 c2        1 DXY      0.324000
      3 OE2         4.0050    6.7130    5.4590 o         1 DXY     -0.608500
      4 CG          1.6970    6.4000    4.8700 c3        1 DXY     -0.211000
      5 CB          1.7680    5.3780    3.7570 c3        1 DXY     -0.128000
      6 CA          0.3760    5.0890    3.2490 c3        1 DXY     -0.082000
      7 C          -0.0160    6.1330    2.2290 c2        1 DXY      0.318000
      8 OXT        -0.9170    6.9720    2.4990 o         1 DXY     -0.590500
      9 O           0.5680    6.1750    1.1150 o         1 DXY     -0.590500
     10 N           0.3490    3.8020    2.6450 n         1 DXY     -0.270000
     11 CAY        -0.8730    3.0910    2.5460 c2        1 DXY      0.323000
     12 OAF        -1.8670    3.5150    3.1000 o         1 DXY     -0.393000
     13 CBB        -0.9550    1.8400    1.6960 c2        1 DXY     -0.099000
     14 CAK        -0.9600    0.5940    2.3050 c2        1 DXY     -0.098000
     15 CAM        -1.2250   -0.5440    1.5570 c1        1 DXY     -0.149000
     16 CAJ        -1.2150    1.9470    0.3380 c1        1 DXY     -0.100000
     17 CAL        -1.4800    0.8090   -0.4100 c1        1 DXY     -0.134000
     18 CBC        -1.4860   -0.4370    0.1990 c1        1 DXY     -0.115000
     19 CBG        -1.9790   -1.6470   -0.5700 c3        1 DXY     -0.125000
     20 SAV        -3.1910   -1.1380   -1.7570 ss        1 DXY     -0.032000
     21 CAA        -4.8110   -1.2880   -1.0520 c3        1 DXY     -0.323000
     22 CAQ        -0.8190   -2.2990   -1.2820 c3        1 DXY     -0.149000
     23 CAN        -1.3440   -3.3250   -2.2690 c3        1 DXY     -0.163000
     24 CAP        -0.2720   -4.3540   -2.5440 c3        1 DXY     -0.093000
     25 CBD         1.0510   -3.6610   -2.7360 c2        1 DXY     -0.330000
     26 CBE         2.1950   -4.2480   -1.8930 c2        1 DXY      0.362000
     27 OAG         3.2240   -3.6110   -1.9540 o         1 DXY     -0.378000
     28 NAU         2.4260   -5.4940   -2.1050 n         1 DXY     -0.342000
     29 CAZ         2.2820   -5.9290   -3.5170 c2        1 DXY      0.222000
     30 NAB         2.9560   -7.0900   -3.9720 n3        1 DXY     -0.323000
     31 NAS         1.8650   -4.7790   -4.5620 n1        1 DXY     -0.303000
     32 CBA         1.3390   -3.5750   -3.9810 c1        1 DXY      0.204000
     33 NAC         0.6730   -2.6260   -4.7990 n2        1 DXY     -0.332000
     34 H1G         1.5720    5.9430    5.7250 hc        1 DXY      0.060000
     35 H2G         0.9440    7.0040    4.7100 hc        1 DXY      0.060000
     36 H1B         2.3150    5.7290    3.0260 hc        1 DXY      0.092500
     37 H2B         2.1690    4.5530    4.0970 hc        1 DXY      0.092500
     38 HA         -0.2550    5.1110    3.9970 h1        1 DXY      0.108000
     39 HN          1.1250    3.4150    2.3610 hn        1 DXY      0.202000
     40 HAK        -0.7770    0.5180    3.2600 ha        1 DXY      0.143000
     41 HAM        -1.2290   -1.4200    1.9860 ha        1 DXY      0.113000
     42 HAJ        -1.2120    2.8230   -0.0910 ha        1 DXY      0.224000
     43 HAL        -1.6630    0.8860   -1.3650 ha        1 DXY      0.135000
     44 HBG        -2.3800   -2.2850    0.0510 h1        1 DXY      0.099000
     45 H1AA       -5.4290   -1.6460   -1.7240 h1        1 DXY      0.108000
     46 H2AA       -5.1230   -0.4060   -0.7590 h1        1 DXY      0.108000
     47 H3AA       -4.7780   -1.8950   -0.2830 h1        1 DXY      0.108000
     48 H1AQ       -0.3070   -1.6180   -1.7620 hc        1 DXY      0.102500
     49 H2AQ       -0.2410   -2.7410   -0.6290 hc        1 DXY      0.102500
     50 H1AN       -2.1310   -3.7670   -1.8920 hc        1 DXY      0.085000
     51 H2AN       -1.5890   -2.8780   -3.1040 hc        1 DXY      0.085000
     52 H1AP       -0.5000   -4.8530   -3.3550 hc        1 DXY      0.095500
     53 H2AP       -0.2100   -4.9710   -1.7870 hc        1 DXY      0.095500
     54 HNAU        3.0810   -5.8920   -1.6130 hn        1 DXY      0.241000
     55 H1AB        3.2910   -7.1200   -4.8220 hn        1 DXY      0.197000
     56 H2AB        3.0760   -7.8000   -3.4090 hn        1 DXY      0.197000
     57 H1AC        0.0100   -2.1040   -4.4460 hn        1 DXY      0.230500
     58 H2AC        0.8870   -2.5560   -5.6840 hn        1 DXY      0.230500
@<TRIPOS>BOND
     1    1    2 1   
     2    2    3 1   
     3    2    4 1   
     4    4    5 1   
     5    4   34 1   
     6    4   35 1   
     7    5    6 1   
     8    5   36 1   
     9    5   37 1   
    10    6    7 1   
    11    6   10 1   
    12    6   38 1   
    13    7    8 1   
    14    7    9 1   
    15   10   11 1   
    16   10   39 1   
    17   11   12 1   
    18   11   13 1   
    19   13   14 1   
    20   13   16 1   
    21   14   15 1   
    22   14   40 1   
    23   15   41 1   
    24   16   42 1   
    25   17   18 1   
    26   17   43 1   
    27   18   19 1   
    28   19   20 1   
    29   19   22 1   
    30   19   44 1   
    31   20   21 1   
    32   21   45 1   
    33   21   46 1   
    34   21   47 1   
    35   22   23 1   
    36   22   48 1   
    37   22   49 1   
    38   23   24 1   
    39   23   50 1   
    40   23   51 1   
    41   24   25 1   
    42   24   52 1   
    43   24   53 1   
    44   25   26 1   
    45   25   32 1   
    46   26   27 1   
    47   26   28 1   
    48   28   29 1   
    49   28   54 1   
    50   29   30 1   
    51   29   31 1   
    52   30   55 1   
    53   30   56 1   
    54   33   57 1   
    55   33   58 1   
@<TRIPOS>SUBSTRUCTURE
     1 DXY         1 TEMP              0 ****  ****    0 ROOT
