@<TRIPOS>MOLECULE
DXY
   58    59     1     0     0
SMALL
bcc


@<TRIPOS>ATOM
      1 OE1         6.2890   -3.5220   -1.0460 o         1 DXY     -0.874800
      2 CD          5.6530   -2.4570   -0.7940 c         1 DXY      0.908600
      3 OE2         4.5550   -2.1780   -1.3730 o         1 DXY     -0.874800
      4 CG          6.1990   -1.5020    0.2720 c3        1 DXY     -0.191400
      5 CB          6.6880   -0.1890   -0.3020 c3        1 DXY     -0.075400
      6 CA          6.2500    1.0470    0.5050 c3        1 DXY     -0.037300
      7 C           7.0290    2.2880   -0.0520 c         1 DXY      0.918600
      8 OXT         8.0820    2.6170    0.5640 o         1 DXY     -0.850300
      9 O           6.5900    2.8860   -1.0740 o         1 DXY     -0.850300
     10 N           4.8160    1.2640    0.4390 n         1 DXY     -0.483900
     11 CAY         3.9360    0.7550    1.3550 c         1 DXY      0.657700
     12 OAF         4.2140    0.5290    2.5570 o         1 DXY     -0.654100
     13 CBB         2.5280    0.5370    0.8730 ca        1 DXY     -0.116600
     14 CAK         2.3030   -0.3490   -0.1870 ca        1 DXY     -0.100500
     15 CAM         0.9970   -0.5990   -0.6040 ca        1 DXY     -0.139000
     16 CAJ         1.4530    1.1630    1.5060 ca        1 DXY     -0.100500
     17 CAL         0.1490    0.9070    1.0870 ca        1 DXY     -0.139000
     18 CBC        -0.0920    0.0200    0.0300 ca        1 DXY     -0.127300
     19 CBG        -1.4650   -0.2930   -0.4310 c3        1 DXY      0.122700
     20 SAV        -2.2810   -1.5790    0.5640 ss        1 DXY     -0.450200
     21 CAA        -1.0400   -2.7430    1.0160 c3        1 DXY     -0.008000
     22 CAQ        -2.4150    0.8870   -0.3760 c3        1 DXY     -0.076400
     23 CAN        -3.6970    0.6150   -1.1420 c3        1 DXY     -0.092400
     24 CAP        -4.8570    1.4700   -0.6510 c3        1 DXY     -0.009200
     25 CBD        -6.0980    0.6840   -0.4360 cc        1 DXY     -0.350400
     26 CBE        -7.2250    0.9630   -1.3010 c         1 DXY      0.723700
     27 OAG        -7.2870    1.8100   -2.2150 o         1 DXY     -0.658500
     28 NAU        -8.3980    0.1890   -1.0950 n         1 DXY     -0.501400
     29 CAZ        -8.4410   -0.7680   -0.0760 cc        1 DXY      0.665800
     30 NAB        -9.6780   -1.4470    0.1350 nh        1 DXY     -0.882800
     31 NAS        -7.4030   -1.0400    0.7280 nd        1 DXY     -0.724300
     32 CBA        -6.2270   -0.2830    0.5740 cd        1 DXY      0.423600
     33 NAC        -5.2220   -0.4930    1.5060 nh        1 DXY     -0.804600
     34 H1G         5.3810   -1.3270    1.0190 hc        1 DXY      0.023700
     35 H2G         7.0370   -2.0110    0.8130 hc        1 DXY      0.023700
     36 H1B         7.8080   -0.1770   -0.3290 hc        1 DXY      0.047200
     37 H2B         6.3300   -0.0810   -1.3610 hc        1 DXY      0.047200
     38 HA          6.5350    0.9080    1.5860 h1        1 DXY      0.066700
     39 HN          4.4840    1.4190   -0.4890 hn        1 DXY      0.311500
     40 HAK         3.1630   -0.8740   -0.6760 ha        1 DXY      0.191000
     41 HAM         0.8280   -1.2930   -1.4410 ha        1 DXY      0.123500
     42 HAJ         1.6430    1.8480    2.3450 ha        1 DXY      0.191000
     43 HAL        -0.6910    1.3990    1.5960 ha        1 DXY      0.123500
     44 HBG        -1.4260   -0.6940   -1.4780 h1        1 DXY      0.074700
     45 H1AA       -1.1870   -2.9940    2.0900 h1        1 DXY      0.070700
     46 H2AA       -1.1500   -3.6630    0.4020 h1        1 DXY      0.070700
     47 H3AA       -0.0120   -2.3330    0.8740 h1        1 DXY      0.070700
     48 H1AQ       -2.6440    1.1280    0.6970 hc        1 DXY      0.056700
     49 H2AQ       -1.9000    1.7870   -0.8070 hc        1 DXY      0.056700
     50 H1AN       -3.5240    0.8150   -2.2320 hc        1 DXY      0.050200
     51 H2AN       -3.9570   -0.4760   -1.0600 hc        1 DXY      0.050200
     52 H1AP       -4.5820    1.9880    0.3090 hc        1 DXY      0.055200
     53 H2AP       -5.0610    2.2800   -1.4030 hc        1 DXY      0.055200
     54 HNAU       -9.2030    0.3950   -1.6430 hn        1 DXY      0.327500
     55 H1AB      -10.0870   -1.7910   -0.7080 hn        1 DXY      0.401300
     56 H2AB       -9.6210   -2.1510    0.8430 hn        1 DXY      0.401300
     57 H1AC       -4.2930   -0.2670    1.2030 hn        1 DXY      0.432300
     58 H2AC       -5.2840   -1.3140    2.0660 hn        1 DXY      0.432300
@<TRIPOS>BOND
     1    1    2 1   
     2    2    3 1   
     3    2    4 1   
     4    4    5 1   
     5    4   34 1   
     6    4   35 1   
     7    5    6 1   
     8    5   36 1   
     9    5   37 1   
    10    6    7 1   
    11    6   10 1   
    12    6   38 1   
    13    7    8 1   
    14    7    9 1   
    15   10   11 1   
    16   10   39 1   
    17   11   12 2   
    18   11   13 1   
    19   13   14 ar  
    20   13   16 ar  
    21   14   15 ar  
    22   14   40 1   
    23   15   18 ar  
    24   15   41 1   
    25   16   17 ar  
    26   16   42 1   
    27   17   18 ar  
    28   17   43 1   
    29   18   19 1   
    30   19   20 1   
    31   19   22 1   
    32   19   44 1   
    33   20   21 1   
    34   21   45 1   
    35   21   46 1   
    36   21   47 1   
    37   22   23 1   
    38   22   48 1   
    39   22   49 1   
    40   23   24 1   
    41   23   50 1   
    42   23   51 1   
    43   24   25 1   
    44   24   52 1   
    45   24   53 1   
    46   25   26 1   
    47   25   32 2   
    48   26   27 2   
    49   26   28 1   
    50   28   29 1   
    51   28   54 1   
    52   29   30 1   
    53   29   31 2   
    54   30   55 1   
    55   30   56 1   
    56   31   32 1   
    57   32   33 1   
    58   33   57 1   
    59   33   58 1   
@<TRIPOS>SUBSTRUCTURE
     1 DXY         1 TEMP              0 ****  ****    0 ROOT
