@<TRIPOS>MOLECULE
DXZ
   58    54     1     0     0
SMALL
bcc


@<TRIPOS>ATOM
      1 OE1        -4.9980   -7.7810    4.7740 o         1 DXZ     -0.610000
      2 CD         -4.2400   -8.1860    3.8810 c1        1 DXZ      0.324000
      3 OE2        -3.6900   -9.2940    3.9910 os        1 DXZ     -0.601000
      4 CG         -4.1170   -7.4140    2.5940 c3        1 DXZ     -0.213000
      5 CB         -3.0560   -6.3220    2.7500 c3        1 DXZ     -0.129000
      6 CA         -3.3800   -5.1640    1.8250 c3        1 DXZ     -0.068000
      7 C          -4.4020   -4.2960    2.4610 c2        1 DXZ      0.312000
      8 OXT        -4.0950   -3.5960    3.4550 o         1 DXZ     -0.597000
      9 O          -5.5970   -4.3570    2.0840 o         1 DXZ     -0.597000
     10 N          -2.1810   -4.3950    1.5740 n         1 DXZ     -0.279000
     11 CAY        -2.1000   -3.5660    0.4400 c2        1 DXZ      0.326000
     12 OAF        -2.8590   -3.7270   -0.4790 o         1 DXZ     -0.377000
     13 CBB        -1.0590   -2.4290    0.3880 c2        1 DXZ     -0.113000
     14 CAK        -1.2420   -1.2850    1.1520 c2        1 DXZ     -0.103000
     15 CAM        -0.3630   -0.2400    1.0430 c1        1 DXZ     -0.159000
     16 CAJ         0.0090   -2.5120   -0.4800 c1        1 DXZ     -0.089000
     17 CAL         0.8930   -1.4610   -0.5890 c1        1 DXZ     -0.144000
     18 CBC         0.7100   -0.3250    0.1700 c1        1 DXZ     -0.079000
     19 CBG         1.6450    0.8540    0.0010 c3        1 DXZ     -0.140000
     20 SAV         2.3110    1.2930    1.5420 ss        1 DXZ      0.000000
     21 CAA         3.8180    0.4590    1.7850 c3        1 DXZ     -0.328000
     22 CAQ         0.8520    2.0710   -0.5940 c3        1 DXZ     -0.149000
     23 CAN         1.8680    3.1850   -1.0540 c3        1 DXZ     -0.167000
     24 CAP         1.1780    4.1330   -2.0730 c3        1 DXZ     -0.065000
     25 CBD         1.5070    5.6050   -1.7090 c2        1 DXZ     -0.414000
     26 CBE         3.0180    5.8830   -1.4760 c2        1 DXZ      0.367000
     27 OAG         3.2530    7.0000   -1.0670 o         1 DXZ     -0.433000
     28 NAU         3.7720    5.6080   -2.4850 n         1 DXZ     -0.343000
     29 CAZ         3.1870    5.9110   -3.8050 c2        1 DXZ      0.200000
     30 NAB         4.0430    6.1420   -4.9330 n3        1 DXZ     -0.314000
     31 NAS         1.6950    6.5340   -3.7840 n1        1 DXZ     -0.262000
     32 CBA         0.9800    6.3990   -2.5410 c1        1 DXZ      0.251000
     33 NAC        -0.4810    6.6710   -2.4900 n2        1 DXZ     -0.307000
     34 H1G        -4.9780   -7.0040    2.3770 hc        1 DXZ      0.062000
     35 H2G        -3.8560   -8.0160    1.8800 hc        1 DXZ      0.062000
     36 H1B        -2.1950   -6.6790    2.5240 hc        1 DXZ      0.092000
     37 H2B        -3.0460   -6.0030    3.6830 hc        1 DXZ      0.092000
     38 HA         -3.7290   -5.5110    0.9760 h1        1 DXZ      0.113000
     39 HN         -1.5020   -4.4220    2.1580 hn        1 DXZ      0.193000
     40 HAK        -2.0120   -1.2230    1.7770 ha        1 DXZ      0.210000
     41 HAM        -0.4970    0.5950    1.5990 ha        1 DXZ      0.127000
     42 HAJ         0.1450   -3.3480   -1.0390 ha        1 DXZ      0.146000
     43 HAL         1.6450   -1.5210   -1.1990 ha        1 DXZ      0.120000
     44 HBG         2.3630    0.6110   -0.6040 h1        1 DXZ      0.120000
     45 H1AA        4.2260    0.2610    0.9170 h1        1 DXZ      0.102000
     46 H2AA        3.6560   -0.3650    2.2600 h1        1 DXZ      0.102000
     47 H3AA        4.4000    1.0020    2.2890 h1        1 DXZ      0.102000
     48 H1AQ        0.2450    2.4420    0.0990 hc        1 DXZ      0.080500
     49 H2AQ        0.3250    1.7740   -1.3630 hc        1 DXZ      0.080500
     50 H1AN        2.6490    2.7620   -1.4770 hc        1 DXZ      0.090500
     51 H2AN        2.1660    3.7130   -0.2580 hc        1 DXZ      0.090500
     52 H1AP        1.5120    3.9320   -2.9960 hc        1 DXZ      0.076500
     53 H2AP        0.1890    3.9960   -2.0390 hc        1 DXZ      0.076500
     54 HNAU        4.6540    5.7330   -2.3910 hn        1 DXZ      0.233000
     55 H1AB        3.6880    6.4070   -5.7200 hn        1 DXZ      0.187500
     56 H2AB        4.9640    5.9850   -4.8610 hn        1 DXZ      0.187500
     57 H1AC       -0.9970    6.3620   -1.7560 hn        1 DXZ      0.278000
     58 H2AC       -0.8930    7.1210   -3.1870 hn        1 DXZ      0.278000
@<TRIPOS>BOND
     1    1    2 1   
     2    2    4 1   
     3    4    5 1   
     4    4   34 1   
     5    4   35 1   
     6    5    6 1   
     7    5   36 1   
     8    5   37 1   
     9    6    7 1   
    10    6   10 1   
    11    6   38 1   
    12    7    8 1   
    13    7    9 1   
    14   10   11 1   
    15   10   39 1   
    16   11   12 1   
    17   11   13 1   
    18   13   14 1   
    19   13   16 1   
    20   14   15 1   
    21   14   40 1   
    22   15   41 1   
    23   16   42 1   
    24   17   18 1   
    25   17   43 1   
    26   18   19 1   
    27   19   20 1   
    28   19   22 1   
    29   19   44 1   
    30   20   21 1   
    31   21   45 1   
    32   21   46 1   
    33   21   47 1   
    34   22   23 1   
    35   22   48 1   
    36   22   49 1   
    37   23   24 1   
    38   23   50 1   
    39   23   51 1   
    40   24   25 1   
    41   24   52 1   
    42   24   53 1   
    43   25   26 1   
    44   25   32 1   
    45   26   27 1   
    46   26   28 1   
    47   28   29 1   
    48   28   54 1   
    49   29   30 1   
    50   29   31 1   
    51   30   55 1   
    52   30   56 1   
    53   33   57 1   
    54   33   58 1   
@<TRIPOS>SUBSTRUCTURE
     1 DXZ         1 TEMP              0 ****  ****    0 ROOT
