@<TRIPOS>MOLECULE
DXZ
   58    59     1     0     0
SMALL
bcc


@<TRIPOS>ATOM
      1 OE1        -6.3130   -0.4500   -3.1670 o         1 DXZ     -0.871300
      2 CD         -6.5360   -1.3670   -2.3200 c         1 DXZ      0.904600
      3 OE2        -7.5850   -2.0800   -2.3510 o         1 DXZ     -0.871300
      4 CG         -5.5330   -1.5990   -1.1820 c3        1 DXZ     -0.183400
      5 CB         -4.1360   -1.8700   -1.6860 c3        1 DXZ     -0.049400
      6 CA         -3.0960   -1.9620   -0.5610 c3        1 DXZ     -0.041300
      7 C          -1.7660   -2.5450   -1.1420 c         1 DXZ      0.899600
      8 OXT        -1.6220   -3.7940   -1.1890 o         1 DXZ     -0.862300
      9 O          -0.8610   -1.7290   -1.5170 o         1 DXZ     -0.862300
     10 N          -2.8440   -0.6630    0.0610 n         1 DXZ     -0.468900
     11 CAY        -2.4960   -0.5760    1.3930 c         1 DXZ      0.647700
     12 OAF        -3.0030   -1.2680    2.3040 o         1 DXZ     -0.630100
     13 CBB        -1.4540    0.4530    1.7440 ca        1 DXZ     -0.113600
     14 CAK        -0.4770    0.0840    2.6760 ca        1 DXZ     -0.100000
     15 CAM         0.6380    0.8910    2.8770 ca        1 DXZ     -0.136000
     16 CAJ        -1.3570    1.6860    1.0940 ca        1 DXZ     -0.100000
     17 CAL        -0.2400    2.4940    1.2960 ca        1 DXZ     -0.136000
     18 CBC         0.7890    2.0800    2.1500 ca        1 DXZ     -0.104300
     19 CBG         2.0830    2.8100    2.2090 c3        1 DXZ      0.083700
     20 SAV         1.9380    4.5750    2.4980 ss        1 DXZ     -0.349200
     21 CAA         0.7810    4.7030    3.8090 c3        1 DXZ     -0.031000
     22 CAQ         2.8460    2.6810    0.8980 c3        1 DXZ     -0.065400
     23 CAN         3.3030    1.2520    0.6690 c3        1 DXZ     -0.083400
     24 CAP         3.7090    1.0250   -0.7770 c3        1 DXZ      0.014800
     25 CBD         4.1120   -0.3760   -1.0380 cc        1 DXZ     -0.435400
     26 CBE         5.5210   -0.6560   -1.0770 c         1 DXZ      0.728700
     27 OAG         6.4640    0.1500   -0.9020 o         1 DXZ     -0.706500
     28 NAU         5.9110   -1.9980   -1.3410 n         1 DXZ     -0.504400
     29 CAZ         4.9370   -2.9670   -1.6040 cc        1 DXZ      0.647800
     30 NAB         5.4050   -4.2710   -1.9880 nh        1 DXZ     -0.876800
     31 NAS         3.6240   -2.7350   -1.5530 nd        1 DXZ     -0.699300
     32 CBA         3.1790   -1.4230   -1.2710 cd        1 DXZ      0.470600
     33 NAC         1.8410   -1.2340   -1.2200 nh        1 DXZ     -0.790600
     34 H1G        -5.5390   -0.6800   -0.5410 hc        1 DXZ      0.021700
     35 H2G        -5.8840   -2.4560   -0.5540 hc        1 DXZ      0.021700
     36 H1B        -4.1120   -2.8540   -2.2250 hc        1 DXZ      0.052200
     37 H2B        -3.8480   -1.0760   -2.4240 hc        1 DXZ      0.052200
     38 HA         -3.4760   -2.6670    0.2310 h1        1 DXZ      0.072700
     39 HN         -2.2980   -0.0870   -0.5550 hn        1 DXZ      0.296500
     40 HAK        -0.5900   -0.8680    3.2190 ha        1 DXZ      0.153000
     41 HAM         1.4230    0.5740    3.5790 ha        1 DXZ      0.128000
     42 HAJ        -2.1470    2.0110    0.3990 ha        1 DXZ      0.153000
     43 HAL        -0.1460    3.4500    0.7580 ha        1 DXZ      0.128000
     44 HBG         2.7110    2.3920    3.0410 h1        1 DXZ      0.063700
     45 H1AA        0.5010    5.7780    3.8800 h1        1 DXZ      0.059367
     46 H2AA       -0.1310    4.0960    3.6060 h1        1 DXZ      0.059367
     47 H3AA        1.2180    4.3740    4.7780 h1        1 DXZ      0.059367
     48 H1AQ        2.1810    3.0060    0.0530 hc        1 DXZ      0.050700
     49 H2AQ        3.7350    3.3650    0.9150 hc        1 DXZ      0.050700
     50 H1AN        4.1720    1.0230    1.3390 hc        1 DXZ      0.047700
     51 H2AN        2.4760    0.5460    0.9450 hc        1 DXZ      0.047700
     52 H1AP        2.8610    1.3190   -1.4540 hc        1 DXZ      0.042200
     53 H2AP        4.5700    1.7060   -1.0200 hc        1 DXZ      0.042200
     54 HNAU        6.8780   -2.2010   -1.4420 hn        1 DXZ      0.319500
     55 H1AB        5.9620   -4.6840   -1.2670 hn        1 DXZ      0.391300
     56 H2AB        4.6470   -4.8750   -2.2440 hn        1 DXZ      0.391300
     57 H1AC        1.4840   -0.3270   -1.0360 hn        1 DXZ      0.484300
     58 H2AC        1.1570   -1.9530   -1.4190 hn        1 DXZ      0.484300
@<TRIPOS>BOND
     1    1    2 1   
     2    2    3 1   
     3    2    4 1   
     4    4    5 1   
     5    4   34 1   
     6    4   35 1   
     7    5    6 1   
     8    5   36 1   
     9    5   37 1   
    10    6    7 1   
    11    6   10 1   
    12    6   38 1   
    13    7    8 1   
    14    7    9 1   
    15   10   11 1   
    16   10   39 1   
    17   11   12 2   
    18   11   13 1   
    19   13   14 ar  
    20   13   16 ar  
    21   14   15 ar  
    22   14   40 1   
    23   15   18 ar  
    24   15   41 1   
    25   16   17 ar  
    26   16   42 1   
    27   17   18 ar  
    28   17   43 1   
    29   18   19 1   
    30   19   20 1   
    31   19   22 1   
    32   19   44 1   
    33   20   21 1   
    34   21   45 1   
    35   21   46 1   
    36   21   47 1   
    37   22   23 1   
    38   22   48 1   
    39   22   49 1   
    40   23   24 1   
    41   23   50 1   
    42   23   51 1   
    43   24   25 1   
    44   24   52 1   
    45   24   53 1   
    46   25   26 1   
    47   25   32 2   
    48   26   27 2   
    49   26   28 1   
    50   28   29 1   
    51   28   54 1   
    52   29   30 1   
    53   29   31 2   
    54   30   55 1   
    55   30   56 1   
    56   31   32 1   
    57   32   33 1   
    58   33   57 1   
    59   33   58 1   
@<TRIPOS>SUBSTRUCTURE
     1 DXZ         1 TEMP              0 ****  ****    0 ROOT
