@<TRIPOS>MOLECULE
DXZ
   61    62     1     0     0
SMALL
bcc


@<TRIPOS>ATOM
      1 OE1         0.0000    0.0000    0.0000 o         1 DXZ     -0.611800
      2 CD          1.2080    0.0000    0.0000 c         1 DXZ      0.935600
      3 OE2         1.8790    0.0000    1.1620 o         1 DXZ     -0.611800
      4 CG          1.9620   -0.0070   -1.3050 c3        1 DXZ     -0.132400
      5 CB          0.9670   -0.0130   -2.4680 c3        1 DXZ     -0.013400
      6 CA          1.7330   -0.0190   -3.7930 c3        1 DXZ     -0.170500
      7 C           0.7580   -0.1490   -4.9350 c         1 DXZ      0.971600
      8 OXT         0.6960    0.7150   -5.7780 o         1 DXZ     -0.784300
      9 O          -0.0410   -1.2250   -5.0170 o         1 DXZ     -0.784300
     10 N           2.4830    1.2310   -3.9300 ny        1 DXZ      0.130200
     11 CAY         3.5840    1.2760   -4.7060 c         1 DXZ      0.403700
     12 OAF         3.9550    0.2770   -5.2910 o         1 DXZ     -0.436100
     13 CBB         4.3410    2.5380   -4.8440 ca        1 DXZ     -0.196600
     14 CAK         5.4820    2.5870   -5.6450 ca        1 DXZ     -0.032000
     15 CAM         6.1830    3.7680   -5.7710 ca        1 DXZ     -0.091500
     16 CAJ         3.9130    3.6890   -4.1780 ca        1 DXZ     -0.032000
     17 CAL         4.6240    4.8630   -4.3120 ca        1 DXZ     -0.091500
     18 CBC         5.7580    4.9030   -5.1040 ca        1 DXZ     -0.067300
     19 CBG         6.5290    6.1900   -5.2450 c3        1 DXZ      0.103700
     20 SAV         7.1190    6.7230   -3.6130 ss        1 DXZ     -0.387200
     21 CAA         8.2830    5.4120   -3.1520 c3        1 DXZ      0.124000
     22 CAQ         5.6190    7.2690   -5.8350 c3        1 DXZ     -0.000400
     23 CAN         6.4320    8.5380   -6.0950 c3        1 DXZ     -0.039400
     24 CAP         5.5220    9.6150   -6.6860 c3        1 DXZ      0.044800
     25 CBD         6.3240   10.8660   -6.9410 cc        1 DXZ     -0.215400
     26 CBE         6.5380   11.7960   -5.9200 c         1 DXZ      0.616700
     27 OAG         6.0790   11.6090   -4.8030 o         1 DXZ     -0.591500
     28 NAU         7.2620   12.9020   -6.1870 ns        1 DXZ      0.021600
     29 CAZ         7.7700   13.1020   -7.4340 cc        1 DXZ     -0.078200
     30 NAB         8.5020   14.2320   -7.6870 nz        1 DXZ      0.254400
     31 NAS         7.5730   12.2310   -8.4010 nd        1 DXZ     -0.449300
     32 CBA         6.8680   11.1130   -8.1930 cd        1 DXZ     -0.179400
     33 NAC         6.6790   10.2120   -9.2210 nz        1 DXZ      0.309600
     34 H1G         2.5850    0.8770   -1.3670 hc        1 DXZ      0.016700
     35 H2G         2.5840   -0.8920   -1.3580 hc        1 DXZ      0.016700
     36 H1B         0.3440    0.8720   -2.4150 hc        1 DXZ      0.068700
     37 H2B         0.3440   -0.8970   -2.4070 hc        1 DXZ      0.068700
     38 HA          2.4210   -0.8560   -3.8090 hx        1 DXZ      0.099700
     39 HN          2.7640    1.5040   -3.0090 hn        1 DXZ      0.266300
     40 HAK         5.8160    1.6990   -6.1690 ha        1 DXZ      0.120500
     41 HAM         7.0640    3.8100   -6.4000 ha        1 DXZ      0.124500
     42 HAJ         3.0650    3.6420   -3.5050 ha        1 DXZ      0.120500
     43 HAL         4.2980    5.7550   -3.7890 ha        1 DXZ      0.124500
     44 HBG         7.3770    6.0330   -5.9020 h1        1 DXZ      0.047700
     45 H1AA        9.0490    5.8200   -2.5040 h1        1 DXZ      0.038700
     46 H2AA        7.7510    4.6240   -2.6300 h1        1 DXZ      0.038700
     47 H3AA        8.7430    5.0060   -4.0440 h1        1 DXZ      0.038700
     48 H1AQ        5.1960    6.9140   -6.7680 hc        1 DXZ      0.033200
     49 H2AQ        4.8200    7.4880   -5.1380 hc        1 DXZ      0.033200
     50 H1AN        6.8540    8.8930   -5.1620 hc        1 DXZ      0.032200
     51 H2AN        7.2320    8.3180   -6.7920 hc        1 DXZ      0.032200
     52 H1AP        5.1000    9.2600   -7.6180 hc        1 DXZ      0.031200
     53 H2AP        4.7220    9.8350   -5.9880 hc        1 DXZ      0.031200
     54 HNAU        7.4260   13.5780   -5.4680 hn        1 DXZ      0.189500
     55 H1AB        8.7840   14.2380   -8.6480 hn        1 DXZ      0.204467
     56 H2AB        7.9440   15.0410   -7.4980 hn        1 DXZ      0.204467
     57 H1AC        5.6990   10.0550   -9.3510 hn        1 DXZ      0.209133
     58 H2AC        7.1280    9.3470   -8.9940 hn        1 DXZ      0.209133
     59 H2          1.8460    1.9150   -4.2880 hn        1 DXZ      0.266300
     60 HAB3        9.3140   14.2420   -7.1020 hn        1 DXZ      0.204467
     61 HAC3        7.0720   10.5810  -10.0640 hn        1 DXZ      0.209133
@<TRIPOS>BOND
     1    1    2 1   
     2    2    3 1   
     3    2    4 1   
     4    4    5 1   
     5    4   34 1   
     6    4   35 1   
     7    5    6 1   
     8    5   36 1   
     9    5   37 1   
    10    6    7 1   
    11    6   10 1   
    12    6   38 1   
    13    7    8 1   
    14    7    9 1   
    15   10   11 1   
    16   10   39 1   
    17   10   59 1   
    18   11   12 2   
    19   11   13 1   
    20   13   14 ar  
    21   13   16 ar  
    22   14   15 ar  
    23   14   40 1   
    24   15   18 ar  
    25   15   41 1   
    26   16   17 ar  
    27   16   42 1   
    28   17   18 ar  
    29   17   43 1   
    30   18   19 1   
    31   19   20 1   
    32   19   22 1   
    33   19   44 1   
    34   20   21 1   
    35   21   45 1   
    36   21   46 1   
    37   21   47 1   
    38   22   23 1   
    39   22   48 1   
    40   22   49 1   
    41   23   24 1   
    42   23   50 1   
    43   23   51 1   
    44   24   25 1   
    45   24   52 1   
    46   24   53 1   
    47   25   26 1   
    48   25   32 2   
    49   26   27 2   
    50   26   28 1   
    51   28   29 1   
    52   28   54 1   
    53   29   30 1   
    54   29   31 2   
    55   30   55 1   
    56   30   56 1   
    57   30   60 1   
    58   31   32 1   
    59   32   33 1   
    60   33   57 1   
    61   33   58 1   
    62   33   61 1   
@<TRIPOS>SUBSTRUCTURE
     1 DXZ         1 TEMP              0 ****  ****    0 ROOT
