@<TRIPOS>MOLECULE
DY6
   50    47     1     0     0
SMALL
bcc


@<TRIPOS>ATOM
      1 N1          0.9560   -1.1390    2.0320 n3        1 DY6     -0.821000
      2 S2          0.6200   -0.2250    0.6810 s4        1 DY6      2.065800
      3 C3          2.0700   -0.8690    2.7830 c3        1 DY6      0.032000
      4 C4          0.3370   -2.3790    2.2080 c3        1 DY6     -0.012000
      5 C5          1.1690    1.4620    0.9220 c1        1 DY6     -0.866000
      6 O6          1.2080   -0.8020   -0.4990 o         1 DY6     -0.546900
      7 O7         -0.7810   -0.2770    0.3500 o         1 DY6     -0.546900
      8 C8          2.0720   -1.4260    4.2740 c2        1 DY6     -0.088000
      9 C9         -0.0050   -2.7470    3.5490 c3        1 DY6     -0.148000
     10 C10         1.0870    1.2450   -0.4510 c1        1 DY6      0.026000
     11 C11         0.0930    2.0210    1.6030 c2        1 DY6     -0.011000
     12 C12         0.9830   -2.2960    4.6630 c2        1 DY6     -0.051000
     13 C13         3.0330   -1.0560    5.2110 c2        1 DY6     -0.125000
     14 C14        -0.0720    1.5880   -1.1410 c1        1 DY6     -0.151000
     15 C15        -1.0640    2.3640    0.9140 c1        1 DY6     -0.171000
     16 C16         0.8990   -2.7610    5.9730 c2        1 DY6     -0.124000
     17 C17         2.9450   -1.5270    6.5340 c1        1 DY6     -0.133000
     18 C18        -0.2120    1.2290   -2.6260 c2        1 DY6      0.336000
     19 C19        -1.1470    2.1470   -0.4590 c1        1 DY6     -0.022000
     20 C20         1.8730   -2.3830    6.9170 c1        1 DY6     -0.127000
     21 N21        -1.4020    1.5800   -3.3350 n         1 DY6     -0.287000
     22 O22         0.6500    0.5640   -3.1750 o         1 DY6     -0.382000
     23 C23        -1.5810    1.1500   -4.6950 c2        1 DY6      0.064000
     24 C24        -2.0430    2.0470   -5.6530 c2        1 DY6     -0.139000
     25 C25        -1.3320   -0.1730   -5.0430 c1        1 DY6     -0.161000
     26 C26        -2.2560    1.6200   -6.9580 c1        1 DY6     -0.092000
     27 C27        -2.3790    3.4740   -5.2580 c2        1 DY6      0.364000
     28 C28        -1.5450   -0.6000   -6.3500 c1        1 DY6     -0.155500
     29 C29        -2.0070    0.2950   -7.3070 c1        1 DY6     -0.155500
     30 O30        -1.5110    4.3820   -5.3790 o         1 DY6     -0.572000
     31 O31        -3.5430    3.7630   -4.8620 o         1 DY6     -0.572000
     32 H3          2.8500   -1.2450    2.3170 h1        1 DY6      0.098000
     33 H3A         2.1800    0.1080    2.8240 h1        1 DY6      0.098000
     34 H4          0.9370   -3.0700    1.8480 h1        1 DY6      0.096500
     35 H4A        -0.4890   -2.3830    1.6730 h1        1 DY6      0.096500
     36 H9         -0.8880   -2.3660    3.7540 hc        1 DY6      0.104000
     37 H9A        -0.0780   -3.7310    3.5860 hc        1 DY6      0.104000
     38 H10         1.8720    0.9190   -0.9440 ha        1 DY6      0.155000
     39 H11         0.1520    2.1740    2.5700 ha        1 DY6      0.148000
     40 H13         3.7720   -0.4650    4.9490 ha        1 DY6      0.129000
     41 H15        -1.8220    2.7590    1.3950 ha        1 DY6      0.145000
     42 H16         0.1610   -3.3510    6.2380 ha        1 DY6      0.135000
     43 H17         3.6210   -1.2660    7.1930 ha        1 DY6      0.127000
     44 H19        -1.9510    2.4160   -0.9490 ha        1 DY6      0.217000
     45 H20         1.8090   -2.7060    7.8410 ha        1 DY6      0.129000
     46 HN21       -2.0680    2.0440   -2.9110 hn        1 DY6      0.270000
     47 H25        -1.0490   -0.8170   -4.3560 ha        1 DY6      0.145000
     48 H26        -2.5990    2.2460   -7.6290 ha        1 DY6      0.155000
     49 H28        -1.3700   -1.5330   -6.5950 ha        1 DY6      0.109500
     50 H29        -2.1570   -0.0050   -8.2270 ha        1 DY6      0.109500
@<TRIPOS>BOND
     1    1    2 1   
     2    1    3 1   
     3    1    4 1   
     4    2    6 1   
     5    2    7 1   
     6    3    8 1   
     7    3   32 1   
     8    3   33 1   
     9    4    9 1   
    10    4   34 1   
    11    4   35 1   
    12    5   10 1   
    13    5   11 1   
    14    8   12 1   
    15    8   13 1   
    16    9   12 1   
    17    9   36 1   
    18    9   37 1   
    19   10   38 1   
    20   11   15 1   
    21   11   39 1   
    22   12   16 1   
    23   13   17 1   
    24   13   40 1   
    25   14   18 1   
    26   14   19 1   
    27   15   41 1   
    28   16   20 1   
    29   16   42 1   
    30   17   43 1   
    31   18   21 1   
    32   18   22 1   
    33   19   44 1   
    34   20   45 1   
    35   21   23 1   
    36   21   46 1   
    37   23   24 1   
    38   23   25 1   
    39   24   26 1   
    40   24   27 1   
    41   25   47 1   
    42   26   48 1   
    43   27   30 1   
    44   27   31 1   
    45   28   29 1   
    46   28   49 1   
    47   29   50 1   
@<TRIPOS>SUBSTRUCTURE
     1 DY6         1 TEMP              0 ****  ****    0 ROOT
