@<TRIPOS>MOLECULE
DY6
   50    53     1     0     0
SMALL
bcc


@<TRIPOS>ATOM
      1 N1         -3.2290   -0.2510   -0.4730 n3        1 DY6     -0.810500
      2 S2         -2.5000   -1.2780   -1.5160 sy        1 DY6      1.518200
      3 C3         -4.0230   -0.7120    0.6350 c3        1 DY6      0.269100
      4 C4         -3.1150    1.1790   -0.5890 c3        1 DY6      0.224800
      5 C5         -0.9810   -1.4930   -0.8470 ca        1 DY6     -0.419500
      6 O6         -3.1870   -2.5180   -1.5130 o         1 DY6     -0.661800
      7 O7         -2.3790   -0.6480   -2.7760 o         1 DY6     -0.661800
      8 C8         -5.2440    0.1140    0.9250 ca        1 DY6     -0.080300
      9 C9         -4.4660    1.8960   -0.6630 c3        1 DY6     -0.051100
     10 C10        -0.0280   -0.4680   -0.8740 ca        1 DY6      0.030000
     11 C11        -0.6260   -2.7140   -0.2510 ca        1 DY6     -0.013000
     12 C12        -5.4400    1.3670    0.3270 ca        1 DY6     -0.060300
     13 C13        -6.1840   -0.3790    1.8360 ca        1 DY6     -0.125000
     14 C14         1.2390   -0.6450   -0.3150 ca        1 DY6     -0.170600
     15 C15         0.6320   -2.8980    0.3070 ca        1 DY6     -0.172000
     16 C16        -6.5790    2.1140    0.6530 ca        1 DY6     -0.130000
     17 C17        -7.3140    0.3710    2.1540 ca        1 DY6     -0.134000
     18 C18         2.1890    0.5160   -0.3230 c         1 DY6      0.665700
     19 C19         1.5740   -1.8650    0.2870 ca        1 DY6     -0.023000
     20 C20        -7.5110    1.6200    1.5620 ca        1 DY6     -0.133000
     21 N21         3.5290    0.2110   -0.4820 n         1 DY6     -0.430100
     22 O22         1.7380    1.6810   -0.2620 o         1 DY6     -0.628100
     23 C23         4.5770    1.0300   -0.0020 ca        1 DY6      0.055600
     24 C24         5.6790    0.4390    0.6700 ca        1 DY6     -0.159600
     25 C25         4.5640    2.4230   -0.2280 ca        1 DY6     -0.158000
     26 C26         6.7420    1.2590    1.0600 ca        1 DY6     -0.093000
     27 C27         5.7810   -1.0410    1.0130 c         1 DY6      0.916200
     28 C28         5.6330    3.2100    0.1870 ca        1 DY6     -0.137000
     29 C29         6.7280    2.6310    0.8250 ca        1 DY6     -0.173000
     30 O30         6.9070   -1.4860    1.3630 o         1 DY6     -0.837800
     31 O31         4.7450   -1.7780    0.9550 o         1 DY6     -0.837800
     32 H3         -4.3460   -1.7760    0.4280 h1        1 DY6      0.062700
     33 H3A        -3.3880   -0.7140    1.5730 h1        1 DY6      0.062700
     34 H4         -2.5450    1.5790    0.3000 h1        1 DY6      0.060700
     35 H4A        -2.5260    1.4230   -1.5220 h1        1 DY6      0.060700
     36 H9         -4.2910    2.9910   -0.4900 hc        1 DY6      0.059700
     37 H9A        -4.9000    1.7810   -1.6930 hc        1 DY6      0.059700
     38 H10        -0.2750    0.5040   -1.3390 ha        1 DY6      0.155000
     39 H11        -1.3640   -3.5370   -0.2380 ha        1 DY6      0.148000
     40 H13        -6.0270   -1.3630    2.3010 ha        1 DY6      0.132000
     41 H15         0.8970   -3.8610    0.7690 ha        1 DY6      0.145000
     42 H16        -6.7330    3.0980    0.1860 ha        1 DY6      0.129000
     43 H17        -8.0490   -0.0210    2.8700 ha        1 DY6      0.127000
     44 H19         2.5730   -2.0220    0.7530 ha        1 DY6      0.218000
     45 H20        -8.4020    2.2130    1.8130 ha        1 DY6      0.126000
     46 HN21        3.7630   -0.7740   -0.4490 hn        1 DY6      0.356500
     47 H25         3.6960    2.8900   -0.7180 ha        1 DY6      0.145000
     48 H26         7.5980    0.7790    1.5640 ha        1 DY6      0.156000
     49 H28         5.6080    4.2940    0.0080 ha        1 DY6      0.109000
     50 H29         7.5740    3.2540    1.1440 ha        1 DY6      0.110000
@<TRIPOS>BOND
     1    1    2 1   
     2    1    3 1   
     3    1    4 1   
     4    2    5 1   
     5    2    6 2   
     6    2    7 2   
     7    3    8 1   
     8    3   32 1   
     9    3   33 1   
    10    4    9 1   
    11    4   34 1   
    12    4   35 1   
    13    5   10 ar  
    14    5   11 ar  
    15    8   12 ar  
    16    8   13 ar  
    17    9   12 1   
    18    9   36 1   
    19    9   37 1   
    20   10   14 ar  
    21   10   38 1   
    22   11   15 ar  
    23   11   39 1   
    24   12   16 ar  
    25   13   17 ar  
    26   13   40 1   
    27   14   18 1   
    28   14   19 ar  
    29   15   19 ar  
    30   15   41 1   
    31   16   20 ar  
    32   16   42 1   
    33   17   20 ar  
    34   17   43 1   
    35   18   21 1   
    36   18   22 2   
    37   19   44 1   
    38   20   45 1   
    39   21   23 1   
    40   21   46 1   
    41   23   24 ar  
    42   23   25 ar  
    43   24   26 ar  
    44   24   27 1   
    45   25   28 ar  
    46   25   47 1   
    47   26   29 ar  
    48   26   48 1   
    49   27   30 1   
    50   27   31 1   
    51   28   29 ar  
    52   28   49 1   
    53   29   50 1   
@<TRIPOS>SUBSTRUCTURE
     1 DY6         1 TEMP              0 ****  ****    0 ROOT
