@<TRIPOS>MOLECULE
DY6
   51    54     1     0     0
SMALL
bcc


@<TRIPOS>ATOM
      1 N1          0.0570   -0.1350   -0.1710 n3        1 DY6     -0.817500
      2 S2         -0.6110   -1.0680   -1.3190 sy        1 DY6      1.510200
      3 C3          1.4830   -0.0460    0.0220 c3        1 DY6      0.268100
      4 C4         -0.7310    0.6220    0.7680 c3        1 DY6      0.225800
      5 C5         -0.8270    0.0120   -2.6150 ca        1 DY6     -0.370500
      6 O6          0.3020   -2.0600   -1.7380 o         1 DY6     -0.648300
      7 O7         -1.8890   -1.5010   -0.9090 o         1 DY6     -0.648300
      8 C8          1.9270   -0.0200    1.4570 ca        1 DY6     -0.091300
      9 C9         -0.4430    0.2730    2.2300 c3        1 DY6     -0.051100
     10 C10        -1.9310    0.8680   -2.6510 ca        1 DY6      0.032000
     11 C11         0.0790    0.0360   -3.6820 ca        1 DY6      0.004000
     12 C12         1.0130    0.1580    2.5050 ca        1 DY6     -0.065300
     13 C13         3.2910   -0.1520    1.7350 ca        1 DY6     -0.122000
     14 C14        -2.1300    1.7320   -3.7320 ca        1 DY6     -0.179600
     15 C15        -0.1070    0.9040   -4.7570 ca        1 DY6     -0.159000
     16 C16         1.4790    0.2040    3.8240 ca        1 DY6     -0.126000
     17 C17         3.7450   -0.1060    3.0500 ca        1 DY6     -0.127000
     18 C18        -3.3170    2.6370   -3.6920 c         1 DY6      0.687700
     19 C19        -1.2100    1.7570   -4.7840 ca        1 DY6     -0.043000
     20 C20         2.8380    0.0730    4.0960 ca        1 DY6     -0.124000
     21 N21        -4.0000    2.7930   -4.8960 n         1 DY6     -0.480100
     22 O22        -3.6720    3.1830   -2.6330 o         1 DY6     -0.574100
     23 C23        -5.1010    3.6240   -5.1470 ca        1 DY6      0.108600
     24 C24        -5.7390    3.5530   -6.4160 ca        1 DY6     -0.236600
     25 C25        -5.5990    4.5490   -4.2030 ca        1 DY6     -0.164000
     26 C26        -6.8070    4.4020   -6.7190 ca        1 DY6     -0.052000
     27 C27        -5.2790    2.6150   -7.4570 c         1 DY6      0.635700
     28 C28        -6.6780    5.3670   -4.5200 ca        1 DY6     -0.076000
     29 C29        -7.2850    5.3030   -5.7740 ca        1 DY6     -0.163000
     30 O30        -4.8920    2.8800   -8.5940 o         1 DY6     -0.474000
     31 O31        -5.2390    1.2750   -7.1670 oh        1 DY6     -0.594100
     32 H3          1.9740   -0.9260   -0.4930 h1        1 DY6      0.063200
     33 H3A         1.8620    0.9030   -0.4670 h1        1 DY6      0.063200
     34 H4         -1.8250    0.4360    0.5600 h1        1 DY6      0.057200
     35 H4A        -0.5250    1.7220    0.6140 h1        1 DY6      0.057200
     36 H9         -0.9390   -0.7010    2.4930 hc        1 DY6      0.064200
     37 H9A        -0.9000    1.0690    2.8760 hc        1 DY6      0.064200
     38 H10        -2.6640    0.8600   -1.8210 ha        1 DY6      0.167000
     39 H11         0.9430   -0.6540   -3.6730 ha        1 DY6      0.164000
     40 H13         4.0050   -0.2970    0.9100 ha        1 DY6      0.133000
     41 H15         0.6160    0.9150   -5.5870 ha        1 DY6      0.151000
     42 H16         0.7620    0.3430    4.6470 ha        1 DY6      0.134000
     43 H17         4.8190   -0.2120    3.2650 ha        1 DY6      0.134000
     44 H19        -1.3370    2.4510   -5.6310 ha        1 DY6      0.146000
     45 H20         3.1970    0.1100    5.1350 ha        1 DY6      0.134000
     46 HN21       -3.6550    2.2710   -5.6750 hn        1 DY6      0.330500
     47 H25        -5.1380    4.6330   -3.2040 ha        1 DY6      0.180000
     48 H26        -7.2640    4.3490   -7.7210 ha        1 DY6      0.151000
     49 H28        -7.0510    6.0780   -3.7660 ha        1 DY6      0.143000
     50 H29        -8.1310    5.9630   -6.0170 ha        1 DY6      0.144000
     51 H212       -5.7110    1.1000   -6.3410 ho        1 DY6      0.435000
@<TRIPOS>BOND
     1    1    2 1   
     2    1    3 1   
     3    1    4 1   
     4    2    5 1   
     5    2    6 2   
     6    2    7 2   
     7    3    8 1   
     8    3   32 1   
     9    3   33 1   
    10    4    9 1   
    11    4   34 1   
    12    4   35 1   
    13    5   10 ar  
    14    5   11 ar  
    15    8   12 ar  
    16    8   13 ar  
    17    9   12 1   
    18    9   36 1   
    19    9   37 1   
    20   10   14 ar  
    21   10   38 1   
    22   11   15 ar  
    23   11   39 1   
    24   12   16 ar  
    25   13   17 ar  
    26   13   40 1   
    27   14   18 1   
    28   14   19 ar  
    29   15   19 ar  
    30   15   41 1   
    31   16   20 ar  
    32   16   42 1   
    33   17   20 ar  
    34   17   43 1   
    35   18   21 1   
    36   18   22 2   
    37   19   44 1   
    38   20   45 1   
    39   21   23 1   
    40   21   46 1   
    41   23   24 ar  
    42   23   25 ar  
    43   24   26 ar  
    44   24   27 1   
    45   25   28 ar  
    46   25   47 1   
    47   26   29 ar  
    48   26   48 1   
    49   27   30 2   
    50   27   31 1   
    51   28   29 ar  
    52   28   49 1   
    53   29   50 1   
    54   31   51 1   
@<TRIPOS>SUBSTRUCTURE
     1 DY6         1 TEMP              0 ****  ****    0 ROOT
