@<TRIPOS>MOLECULE
DY6
   50    53     1     0     0
SMALL
bcc


@<TRIPOS>ATOM
      1 N1         -0.0880   -0.3260   -0.1900 n3        1 DY6     -0.810500
      2 S2         -0.7040   -1.4390   -1.2170 sy        1 DY6      1.518200
      3 C3          1.3170   -0.0220   -0.1340 c3        1 DY6      0.269100
      4 C4         -0.9120    0.4290    0.7160 c3        1 DY6      0.224800
      5 C5         -1.1090   -0.5360   -2.5670 ca        1 DY6     -0.419500
      6 O6          0.3090   -2.3670   -1.5680 o         1 DY6     -0.661800
      7 O7         -1.8730   -1.9950   -0.6490 o         1 DY6     -0.661800
      8 C8          1.8520    0.2410    1.2450 ca        1 DY6     -0.080300
      9 C9         -0.4770    0.3140    2.1790 c3        1 DY6     -0.051100
     10 C10        -2.2020    0.3370   -2.5500 ca        1 DY6      0.030000
     11 C11        -0.3650   -0.6460   -3.7530 ca        1 DY6     -0.013000
     12 C12         0.9960    0.4270    2.3410 ca        1 DY6     -0.060300
     13 C13         3.2370    0.3270    1.4200 ca        1 DY6     -0.125000
     14 C14        -2.5410    1.0920   -3.6750 ca        1 DY6     -0.170600
     15 C15        -0.6950    0.1020   -4.8750 ca        1 DY6     -0.172000
     16 C16         1.5410    0.7020    3.6010 ca        1 DY6     -0.130000
     17 C17         3.7700    0.6000    2.6780 ca        1 DY6     -0.134000
     18 C18        -3.6870    2.0550   -3.5660 c         1 DY6      0.665700
     19 C19        -1.7820    0.9820   -4.8460 ca        1 DY6     -0.023000
     20 C20         2.9210    0.7880    3.7690 ca        1 DY6     -0.133000
     21 N21        -4.4600    2.2200   -4.7020 n         1 DY6     -0.430100
     22 O22        -3.9330    2.5990   -2.4670 o         1 DY6     -0.628100
     23 C23        -5.1940    3.3940   -4.9830 ca        1 DY6      0.055600
     24 C24        -5.1620    3.9480   -6.2890 ca        1 DY6     -0.159600
     25 C25        -5.9980    3.9950   -3.9910 ca        1 DY6     -0.158000
     26 C26        -5.9620    5.0600   -6.5640 ca        1 DY6     -0.093000
     27 C27        -4.2960    3.4180   -7.4240 c         1 DY6      0.916200
     28 C28        -6.7710    5.1110   -4.2960 ca        1 DY6     -0.137000
     29 C29        -6.7620    5.6420   -5.5840 ca        1 DY6     -0.173000
     30 O30        -4.5510    3.8170   -8.5920 o         1 DY6     -0.837800
     31 O31        -3.3440    2.6120   -7.1720 o         1 DY6     -0.837800
     32 H3          1.8900   -0.8860   -0.5870 h1        1 DY6      0.062700
     33 H3A         1.5250    0.9010   -0.7560 h1        1 DY6      0.062700
     34 H4         -1.9780    0.0670    0.6280 h1        1 DY6      0.060700
     35 H4A        -0.8870    1.5190    0.4200 h1        1 DY6      0.060700
     36 H9         -0.8100   -0.6750    2.5970 hc        1 DY6      0.059700
     37 H9A        -0.9960    1.1190    2.7640 hc        1 DY6      0.059700
     38 H10        -2.8120    0.4430   -1.6330 ha        1 DY6      0.155000
     39 H11         0.4900   -1.3440   -3.7840 ha        1 DY6      0.148000
     40 H13         3.9050    0.1780    0.5590 ha        1 DY6      0.132000
     41 H15        -0.1040    0.0060   -5.7980 ha        1 DY6      0.145000
     42 H16         0.8710    0.8490    4.4600 ha        1 DY6      0.129000
     43 H17         4.8590    0.6660    2.8100 ha        1 DY6      0.127000
     44 H19        -2.0240    1.5870   -5.7490 ha        1 DY6      0.218000
     45 H20         3.3410    1.0040    4.7620 ha        1 DY6      0.126000
     46 HN21       -4.1080    1.7740   -5.5410 hn        1 DY6      0.356500
     47 H25        -6.0000    3.5900   -2.9670 ha        1 DY6      0.145000
     48 H26        -5.9390    5.4660   -7.5900 ha        1 DY6      0.156000
     49 H28        -7.3900    5.5700   -3.5130 ha        1 DY6      0.109000
     50 H29        -7.3800    6.5180   -5.8240 ha        1 DY6      0.110000
@<TRIPOS>BOND
     1    1    2 1   
     2    1    3 1   
     3    1    4 1   
     4    2    5 1   
     5    2    6 2   
     6    2    7 2   
     7    3    8 1   
     8    3   32 1   
     9    3   33 1   
    10    4    9 1   
    11    4   34 1   
    12    4   35 1   
    13    5   10 ar  
    14    5   11 ar  
    15    8   12 ar  
    16    8   13 ar  
    17    9   12 1   
    18    9   36 1   
    19    9   37 1   
    20   10   14 ar  
    21   10   38 1   
    22   11   15 ar  
    23   11   39 1   
    24   12   16 ar  
    25   13   17 ar  
    26   13   40 1   
    27   14   18 1   
    28   14   19 ar  
    29   15   19 ar  
    30   15   41 1   
    31   16   20 ar  
    32   16   42 1   
    33   17   20 ar  
    34   17   43 1   
    35   18   21 1   
    36   18   22 2   
    37   19   44 1   
    38   20   45 1   
    39   21   23 1   
    40   21   46 1   
    41   23   24 ar  
    42   23   25 ar  
    43   24   26 ar  
    44   24   27 1   
    45   25   28 ar  
    46   25   47 1   
    47   26   29 ar  
    48   26   48 1   
    49   27   30 1   
    50   27   31 1   
    51   28   29 ar  
    52   28   49 1   
    53   29   50 1   
@<TRIPOS>SUBSTRUCTURE
     1 DY6         1 TEMP              0 ****  ****    0 ROOT
