@<TRIPOS>MOLECULE
DY6
   50    53     1     0     0
SMALL
bcc


@<TRIPOS>ATOM
      1 N1         -0.1020   -0.3190   -0.1740 n3        1 DY6     -0.810500
      2 S2         -0.7360   -1.4410   -1.1810 sy        1 DY6      1.518200
      3 C3          1.3070   -0.0290   -0.1320 c3        1 DY6      0.269100
      4 C4         -0.9120    0.4570    0.7270 c3        1 DY6      0.224800
      5 C5         -1.1380   -0.5530   -2.5420 ca        1 DY6     -0.419500
      6 O6          0.2650   -2.3850   -1.5240 o         1 DY6     -0.661800
      7 O7         -1.9070   -1.9750   -0.5980 o         1 DY6     -0.661800
      8 C8          1.8550    0.2510    1.2390 ca        1 DY6     -0.080300
      9 C9         -0.4670    0.3590    2.1880 c3        1 DY6     -0.051100
     10 C10        -2.2180    0.3370   -2.5300 ca        1 DY6      0.030000
     11 C11        -0.4050   -0.6920   -3.7310 ca        1 DY6     -0.013000
     12 C12         1.0090    0.4620    2.3370 ca        1 DY6     -0.060300
     13 C13         3.2420    0.3260    1.4020 ca        1 DY6     -0.125000
     14 C14        -2.5550    1.0790   -3.6640 ca        1 DY6     -0.170600
     15 C15        -0.7340    0.0430   -4.8630 ca        1 DY6     -0.172000
     16 C16         1.5660    0.7500    3.5890 ca        1 DY6     -0.130000
     17 C17         3.7870    0.6130    2.6510 ca        1 DY6     -0.134000
     18 C18        -3.6850    2.0600   -3.5620 c         1 DY6      0.665700
     19 C19        -1.8060    0.9390   -4.8390 ca        1 DY6     -0.023000
     20 C20         2.9470    0.8260    3.7460 ca        1 DY6     -0.133000
     21 N21        -4.4640    2.2190   -4.6940 ns        1 DY6     -0.430100
     22 O22        -3.9150    2.6240   -2.4690 o         1 DY6     -0.628100
     23 C23        -5.1830    3.4000   -4.9870 ca        1 DY6      0.055600
     24 C24        -5.1540    3.9330   -6.3020 ca        1 DY6     -0.159600
     25 C25        -5.9710    4.0280   -3.9980 ca        1 DY6     -0.158000
     26 C26        -5.9400    5.0520   -6.5880 ca        1 DY6     -0.093000
     27 C27        -4.3050    3.3720   -7.4350 c         1 DY6      0.916200
     28 C28        -6.7290    5.1500   -4.3150 ca        1 DY6     -0.137000
     29 C29        -6.7230    5.6620   -5.6110 ca        1 DY6     -0.173000
     30 O30        -4.5640    3.7560   -8.6070 o         1 DY6     -0.837800
     31 O31        -3.3630    2.5560   -7.1780 o         1 DY6     -0.837800
     32 H3          1.8690   -0.9050   -0.5760 h1        1 DY6      0.062700
     33 H3A         1.5200    0.8820   -0.7710 h1        1 DY6      0.062700
     34 H4         -1.9820    0.1030    0.6510 h1        1 DY6      0.060700
     35 H4A        -0.8790    1.5420    0.4140 h1        1 DY6      0.060700
     36 H9         -0.8050   -0.6200    2.6230 hc        1 DY6      0.059700
     37 H9A        -0.9730    1.1780    2.7650 hc        1 DY6      0.059700
     38 H10        -2.8180    0.4660   -1.6100 ha        1 DY6      0.155000
     39 H11         0.4400   -1.4040   -3.7590 ha        1 DY6      0.148000
     40 H13         3.9020    0.1570    0.5380 ha        1 DY6      0.132000
     41 H15        -0.1510   -0.0770   -5.7890 ha        1 DY6      0.145000
     42 H16         0.9030    0.9170    4.4510 ha        1 DY6      0.129000
     43 H17         4.8780    0.6710    2.7750 ha        1 DY6      0.127000
     44 H19        -2.0480    1.5330   -5.7490 ha        1 DY6      0.218000
     45 H20         3.3760    1.0530    4.7320 ha        1 DY6      0.126000
     46 HN21       -4.1260    1.7560   -5.5280 hn        1 DY6      0.356500
     47 H25        -5.9700    3.6390   -2.9680 ha        1 DY6      0.145000
     48 H26        -5.9190    5.4410   -7.6200 ha        1 DY6      0.156000
     49 H28        -7.3350    5.6310   -3.5340 ha        1 DY6      0.109000
     50 H29        -7.3290    6.5430   -5.8600 ha        1 DY6      0.110000
@<TRIPOS>BOND
     1    1    2 1   
     2    1    3 1   
     3    1    4 1   
     4    2    5 1   
     5    2    6 2   
     6    2    7 2   
     7    3    8 1   
     8    3   32 1   
     9    3   33 1   
    10    4    9 1   
    11    4   34 1   
    12    4   35 1   
    13    5   10 ar  
    14    5   11 ar  
    15    8   12 ar  
    16    8   13 ar  
    17    9   12 1   
    18    9   36 1   
    19    9   37 1   
    20   10   14 ar  
    21   10   38 1   
    22   11   15 ar  
    23   11   39 1   
    24   12   16 ar  
    25   13   17 ar  
    26   13   40 1   
    27   14   18 1   
    28   14   19 ar  
    29   15   19 ar  
    30   15   41 1   
    31   16   20 ar  
    32   16   42 1   
    33   17   20 ar  
    34   17   43 1   
    35   18   21 1   
    36   18   22 2   
    37   19   44 1   
    38   20   45 1   
    39   21   23 1   
    40   21   46 1   
    41   23   24 ar  
    42   23   25 ar  
    43   24   26 ar  
    44   24   27 1   
    45   25   28 ar  
    46   25   47 1   
    47   26   29 ar  
    48   26   48 1   
    49   27   30 1   
    50   27   31 1   
    51   28   29 ar  
    52   28   49 1   
    53   29   50 1   
@<TRIPOS>SUBSTRUCTURE
     1 DY6         1 TEMP              0 ****  ****    0 ROOT
