@<TRIPOS>MOLECULE
DYG
   37    38     1     0     0
SMALL
bcc


@<TRIPOS>ATOM
      1 N           2.4810    1.2550   -2.0560 n3        1 DYG     -0.897800
      2 OD2         2.9690    3.8760   -1.2330 o         1 DYG     -0.858800
      3 OD1         2.7060    4.2540    0.9420 o         1 DYG     -0.858800
      4 CG1         2.4940    3.5660   -0.0970 c         1 DYG      0.905600
      5 CB1         1.5670    2.3460    0.0270 c3        1 DYG     -0.219400
      6 CA1         2.1130    1.0890   -0.6550 c3        1 DYG      0.149200
      7 C1          1.1100   -0.0650   -0.5430 cc        1 DYG      0.526900
      8 N2         -0.1920    0.0950   -0.2550 nd        1 DYG     -0.678300
      9 N3          1.4740   -1.4060   -0.8420 n         1 DYG     -0.361300
     10 C2          0.3060   -2.1960   -0.6800 c         1 DYG      0.672700
     11 O2          0.1610   -3.4010   -0.9120 o         1 DYG     -0.606500
     12 CA2        -0.7880   -1.1900   -0.2920 cd        1 DYG      0.072400
     13 CA3         2.8030   -1.9520   -0.8840 c3        1 DYG     -0.035000
     14 CB2        -2.0620   -1.5780   -0.0810 ce        1 DYG     -0.121200
     15 CG2        -3.2040   -0.7560    0.2550 ca        1 DYG     -0.039800
     16 CD1        -4.4910   -1.3000    0.0790 ca        1 DYG     -0.088500
     17 CD2        -3.0900    0.5490    0.7620 ca        1 DYG     -0.088500
     18 CE1        -5.6350   -0.5720    0.3830 ca        1 DYG     -0.193000
     19 CE2        -4.2260    1.2920    1.0720 ca        1 DYG     -0.193000
     20 CZ         -5.4950    0.7320    0.8790 ca        1 DYG      0.089100
     21 OH         -6.6610    1.4180    1.1680 oh        1 DYG     -0.521100
     22 C           3.3500   -2.6380    0.4030 c         1 DYG      0.905600
     23 O           2.7010   -2.5890    1.4800 o         1 DYG     -0.836800
     24 OXT         4.4630   -3.2210    0.2560 o         1 DYG     -0.836800
     25 HB11        1.3990    2.1260    1.1110 hc        1 DYG      0.045200
     26 HB12        0.5870    2.6410   -0.4270 hc        1 DYG      0.045200
     27 HA1         3.0430    0.7660   -0.0920 h1        1 DYG      0.087700
     28 HN1         1.7190    1.6940   -2.5410 hn        1 DYG      0.358300
     29 HN2         3.2560    1.9010   -2.0900 hn        1 DYG      0.358300
     30 HB2        -2.2710   -2.6600   -0.1880 ha        1 DYG      0.132000
     31 H1         -2.0960    0.9990    0.9230 ha        1 DYG      0.155500
     32 HE2        -4.1240    2.3130    1.4630 ha        1 DYG      0.127000
     33 HOH        -6.4050    2.2980    1.4770 ho        1 DYG      0.408000
     34 HE1        -6.6360   -0.9970    0.2400 ha        1 DYG      0.127000
     35 HD1        -4.5930   -2.3240   -0.3110 ha        1 DYG      0.155500
     36 HA31        2.8080   -2.7290   -1.7000 h1        1 DYG      0.056700
     37 HA32        3.5170   -1.1320   -1.1630 h1        1 DYG      0.056700
@<TRIPOS>BOND
     1    1    6 1   
     2    1   28 1   
     3    1   29 1   
     4    2    4 1   
     5    3    4 1   
     6    4    5 1   
     7    5    6 1   
     8    5   25 1   
     9    5   26 1   
    10    6    7 1   
    11    6   27 1   
    12    7    8 2   
    13    7    9 1   
    14    8   12 1   
    15    9   10 1   
    16    9   13 1   
    17   10   11 2   
    18   10   12 1   
    19   12   14 2   
    20   13   22 1   
    21   13   36 1   
    22   13   37 1   
    23   14   15 1   
    24   14   30 1   
    25   15   16 ar  
    26   15   17 ar  
    27   16   18 ar  
    28   16   35 1   
    29   17   19 ar  
    30   17   31 1   
    31   18   20 ar  
    32   18   34 1   
    33   19   20 ar  
    34   19   32 1   
    35   20   21 1   
    36   21   33 1   
    37   22   23 1   
    38   22   24 1   
@<TRIPOS>SUBSTRUCTURE
     1 DYG         1 TEMP              0 ****  ****    0 ROOT
