@<TRIPOS>MOLECULE
DYG
   37    34     1     0     0
SMALL
bcc


@<TRIPOS>ATOM
      1 N          -2.1480    0.2490   -3.0800 n3        1 DYG     -0.328000
      2 OD2        -0.2950    1.9920   -5.7280 o         1 DYG     -0.594000
      3 OD1        -2.2980    2.8090   -5.4740 o         1 DYG     -0.594000
      4 CG1        -1.2230    2.3890   -4.9770 c2        1 DYG      0.322000
      5 CB1        -1.0520    2.3420   -3.4760 c3        1 DYG     -0.248000
      6 CA1        -0.8900    0.9060   -3.0320 c3        1 DYG      0.031000
      7 C1         -0.3530    0.8740   -1.6040 c2        1 DYG      0.105000
      8 N2         -1.1930    0.8810   -0.5770 n1        1 DYG     -0.219000
      9 N3          0.8800    0.2570   -1.3310 n         1 DYG     -0.246000
     10 C2          0.7500   -0.1840    0.1300 c2        1 DYG      0.330000
     11 O2          1.6670   -0.4130    0.8920 o         1 DYG     -0.319000
     12 CA2        -0.7010    0.2910    0.5400 c1        1 DYG     -0.068000
     13 CA3         1.7850   -0.3000   -2.3080 c3        1 DYG     -0.109000
     14 CB2        -1.3340    0.1370    1.7740 c1        1 DYG     -0.108000
     15 CG2        -0.6000   -0.5720    2.9400 c2        1 DYG     -0.052000
     16 CD1        -0.7780   -1.9300    3.1460 c2        1 DYG     -0.109000
     17 CD2         0.1520    0.1730    3.8410 c1        1 DYG     -0.044000
     18 CE1        -0.2030   -2.5500    4.2580 c1        1 DYG     -0.183000
     19 CE2         0.7260   -0.4450    4.9500 c2        1 DYG     -0.210000
     20 CZ          0.5470   -1.8050    5.1550 c1        1 DYG      0.047000
     21 OH          1.1950   -2.4490    6.2430 oh        1 DYG     -0.280000
     22 C           3.1750   -0.3990   -1.7120 c2        1 DYG      0.320000
     23 O           3.7170    0.6210   -1.2060 o         1 DYG     -0.576000
     24 OXT         3.8260   -1.4690   -1.8140 o         1 DYG     -0.576000
     25 HB11       -1.8400    2.7290   -3.0460 hc        1 DYG      0.084000
     26 HB12       -0.2600    2.8520   -3.2220 hc        1 DYG      0.084000
     27 HA1        -0.2620    0.4510   -3.6260 h1        1 DYG      0.116000
     28 HN1        -2.0300   -0.6150   -3.3530 hn        1 DYG      0.152500
     29 HN2        -2.7000    0.6850   -3.6720 hn        1 DYG      0.152500
     30 HB2        -2.2400    0.4760    1.9030 DU        1 DYG      0.172500
     31 H1          0.2780    1.1380    3.6960 DU        1 DYG      0.172500
     32 HE2         1.2620    0.0780    5.5800 ha        1 DYG      0.131000
     33 HOH         0.7370   -2.3110    6.9800 ho        1 DYG      0.206000
     34 HE1        -0.2750   -3.5200    4.3680 ha        1 DYG      0.123000
     35 HD1        -1.3060   -2.4540    2.5140 ha        1 DYG      0.119000
     36 HA31        1.4750   -1.1970   -2.5690 h1        1 DYG      0.097000
     37 HA32        1.8090    0.2820   -3.1020 h1        1 DYG      0.097000
@<TRIPOS>BOND
     1    1    6 1   
     2    1   28 1   
     3    1   29 1   
     4    2    4 1   
     5    3    4 1   
     6    4    5 1   
     7    5    6 1   
     8    5   25 1   
     9    5   26 1   
    10    6    7 1   
    11    6   27 1   
    12    7    8 1   
    13    7    9 1   
    14    9   10 1   
    15    9   13 1   
    16   10   11 1   
    17   10   12 1   
    18   12   14 1   
    19   13   22 1   
    20   13   36 1   
    21   13   37 1   
    22   14   15 1   
    23   15   16 1   
    24   15   17 1   
    25   16   18 1   
    26   16   35 1   
    27   17   19 1   
    28   18   34 1   
    29   19   20 1   
    30   19   32 1   
    31   20   21 1   
    32   21   33 1   
    33   22   23 1   
    34   22   24 1   
@<TRIPOS>SUBSTRUCTURE
     1 DYG         1 TEMP              0 ****  ****    0 ROOT
