@<TRIPOS>MOLECULE
DYH
   39    40     1     0     0
SMALL
bcc


@<TRIPOS>ATOM
      1 CAA         1.7160    3.1520   -0.9290 c3        1 DYH      0.151100
      2 NH          2.4920    1.9530   -1.1100 n3        1 DYH     -0.815200
      3 CAH         2.5220    1.0840    0.0600 c3        1 DYH      0.144500
      4 CAG         3.5130   -0.0810   -0.1670 c3        1 DYH      0.138100
      5 OAC         3.2250   -0.8560   -1.3020 oh        1 DYH     -0.627800
      6 CAP         3.5580   -0.9220    1.1100 c3        1 DYH      0.105400
      7 OAQ         2.3180   -1.5210    1.4170 os        1 DYH     -0.417600
      8 CAR         1.2150   -0.6180    1.5380 c3        1 DYH      0.122100
      9 CAS        -0.0410   -1.4330    1.2080 c3        1 DYH     -0.095400
     10 CAI         1.1570    0.5570    0.5450 c3        1 DYH      0.061100
     11 OAJ         0.3660    0.1370   -0.5730 os        1 DYH     -0.419600
     12 CAK        -0.5100   -0.9450   -0.1740 c3        1 DYH      0.039800
     13 CAE        -0.3460   -2.0900   -1.2240 c         1 DYH      0.917600
     14 OAB         0.6920   -2.1200   -1.9470 o         1 DYH     -0.845300
     15 OAF        -1.2610   -2.9580   -1.2960 o         1 DYH     -0.845300
     16 CB         -1.9720   -0.4980   -0.1490 c3        1 DYH     -0.066400
     17 CA         -2.3520    0.8570    0.4580 c3        1 DYH      0.044500
     18 C          -2.0300    0.9310    1.9800 c         1 DYH      0.896600
     19 O          -2.6860    0.1850    2.7630 o         1 DYH     -0.864300
     20 OXT        -1.1590    1.7590    2.3910 o         1 DYH     -0.864300
     21 N          -1.8890    2.0070   -0.3060 n3        1 DYH     -0.916800
     22 HAA         1.7620    3.7480   -1.8790 h1        1 DYH      0.021700
     23 HAAA        0.6360    2.9670   -0.6770 h1        1 DYH      0.021700
     24 HAAB        2.1660    3.7610   -0.1020 h1        1 DYH      0.021700
     25 HNH         2.1360    1.4160   -1.8850 hn        1 DYH      0.383800
     26 HAH         2.9340    1.7000    0.9170 h1        1 DYH      0.034700
     27 HAG         4.5440    0.3340   -0.3610 h1        1 DYH      0.037700
     28 HOAC        2.2870   -1.1470   -1.2530 ho        1 DYH      0.485000
     29 HAP         4.2530   -1.7930    0.9710 h1        1 DYH      0.021200
     30 HAPA        3.9050   -0.2890    1.9710 h1        1 DYH      0.021200
     31 HAR         1.2120   -0.2300    2.5920 h1        1 DYH      0.050700
     32 HAS         0.1880   -2.5250    1.1790 hc        1 DYH      0.079200
     33 HASA       -0.8250   -1.2380    1.9850 hc        1 DYH      0.079200
     34 HAI         0.5890    1.3950    1.0550 h1        1 DYH      0.098700
     35 HB         -2.3420   -0.5240   -1.2100 hc        1 DYH      0.048200
     36 HBA        -2.5350   -1.2880    0.4180 hc        1 DYH      0.048200
     37 HA         -3.4850    0.9040    0.4020 h1        1 DYH      0.025700
     38 HN         -1.4330    2.6460    0.3260 hn        1 DYH      0.338300
     39 HNA        -1.1960    1.7080   -0.9710 hn        1 DYH      0.338300
@<TRIPOS>BOND
     1    1    2 1   
     2    1   22 1   
     3    1   23 1   
     4    1   24 1   
     5    2    3 1   
     6    2   25 1   
     7    3    4 1   
     8    3   10 1   
     9    3   26 1   
    10    4    5 1   
    11    4    6 1   
    12    4   27 1   
    13    5   28 1   
    14    6    7 1   
    15    6   29 1   
    16    6   30 1   
    17    7    8 1   
    18    8    9 1   
    19    8   10 1   
    20    8   31 1   
    21    9   12 1   
    22    9   32 1   
    23    9   33 1   
    24   10   11 1   
    25   10   34 1   
    26   11   12 1   
    27   12   13 1   
    28   12   16 1   
    29   13   14 1   
    30   13   15 1   
    31   16   17 1   
    32   16   35 1   
    33   16   36 1   
    34   17   18 1   
    35   17   21 1   
    36   17   37 1   
    37   18   19 1   
    38   18   20 1   
    39   21   38 1   
    40   21   39 1   
@<TRIPOS>SUBSTRUCTURE
     1 DYH         1 TEMP              0 ****  ****    0 ROOT
