@<TRIPOS>MOLECULE
DYH
   41    42     1     0     0
SMALL
bcc


@<TRIPOS>ATOM
      1 CAA         0.2310    0.4790   -0.0260 c3        1 DYH      0.095100
      2 NH          1.6660    0.4120    0.2910 n4        1 DYH     -0.767000
      3 CAH         1.9320    0.0170    1.7140 c3        1 DYH      0.068500
      4 CAG         1.8900    1.2600    2.6500 c3        1 DYH      0.106100
      5 OAC         2.2640    2.4440    1.9860 oh        1 DYH     -0.598800
      6 CAP         2.7700    1.0070    3.8720 c3        1 DYH      0.096400
      7 OAQ         4.1200    0.9220    3.4530 os        1 DYH     -0.391600
      8 CAR         4.3990   -0.2420    2.6850 c3        1 DYH      0.122100
      9 CAS         5.4570    0.1160    1.6340 c3        1 DYH     -0.107400
     10 CAI         3.2190   -0.8500    1.8900 c3        1 DYH      0.103100
     11 OAJ         3.7590   -1.2420    0.6350 os        1 DYH     -0.414600
     12 CAK         4.8980   -0.3840    0.3000 c3        1 DYH      0.024800
     13 CAE         4.2880    0.7560   -0.5500 c         1 DYH      0.847600
     14 OAB         3.7880    0.4610   -1.6810 o         1 DYH     -0.830300
     15 OAF         4.1600    1.9120   -0.0550 o         1 DYH     -0.830300
     16 CB          5.8620   -1.2580   -0.4860 c3        1 DYH     -0.071400
     17 CA          6.9510   -0.4560   -1.1760 c3        1 DYH     -0.059500
     18 C           8.1550   -1.4260   -1.5970 c         1 DYH      0.934600
     19 O           8.5690   -1.2800   -2.7760 o         1 DYH     -0.769800
     20 OXT         8.5570   -2.1920   -0.7020 o         1 DYH     -0.769800
     21 N           6.4580    0.2860   -2.3750 n4        1 DYH     -0.833600
     22 HAA        -0.2710    1.2090    0.6630 hx        1 DYH      0.090367
     23 HAAA        0.1160    0.8250   -1.0890 hx        1 DYH      0.090367
     24 HAAB       -0.2370   -0.5340    0.0890 hx        1 DYH      0.090367
     25 HNH         2.1480   -0.2530   -0.3500 hn        1 DYH      0.501800
     26 HAH         1.0730   -0.6520    2.0270 hx        1 DYH      0.081700
     27 HAG         0.8220    1.4400    2.9650 h1        1 DYH      0.081700
     28 HOAC        3.2320    2.4350    1.8470 ho        1 DYH      0.467000
     29 HAP         2.4510    0.0810    4.4140 h1        1 DYH      0.074200
     30 HAPA        2.7480    1.8960    4.5590 h1        1 DYH      0.074200
     31 HAR         4.7820   -1.0220    3.4010 h1        1 DYH      0.072700
     32 HAS         5.6150    1.2260    1.6050 hc        1 DYH      0.096200
     33 HASA        6.4290   -0.3800    1.8770 hc        1 DYH      0.096200
     34 HAI         2.8860   -1.8110    2.3780 h1        1 DYH      0.086700
     35 HB          6.3780   -1.9840    0.2030 hc        1 DYH      0.094700
     36 HBA         5.2740   -1.8630   -1.2270 hc        1 DYH      0.094700
     37 HA          7.3870    0.2960   -0.4610 hx        1 DYH      0.085700
     38 HN          7.1730    0.1680   -3.1180 hn        1 DYH      0.455133
     39 HNA         6.3120    1.2700   -2.1600 hn        1 DYH      0.455133
     40 HH2         2.1070    1.3490    0.1260 hn        1 DYH      0.501800
     41 HN3         5.5590   -0.1050   -2.6870 hn        1 DYH      0.455133
@<TRIPOS>BOND
     1    1    2 1   
     2    1   22 1   
     3    1   23 1   
     4    1   24 1   
     5    2    3 1   
     6    2   25 1   
     7    2   40 1   
     8    3    4 1   
     9    3   10 1   
    10    3   26 1   
    11    4    5 1   
    12    4    6 1   
    13    4   27 1   
    14    5   28 1   
    15    6    7 1   
    16    6   29 1   
    17    6   30 1   
    18    7    8 1   
    19    8    9 1   
    20    8   10 1   
    21    8   31 1   
    22    9   12 1   
    23    9   32 1   
    24    9   33 1   
    25   10   11 1   
    26   10   34 1   
    27   11   12 1   
    28   12   13 1   
    29   12   16 1   
    30   13   14 1   
    31   13   15 1   
    32   16   17 1   
    33   16   35 1   
    34   16   36 1   
    35   17   18 1   
    36   17   21 1   
    37   17   37 1   
    38   18   19 1   
    39   18   20 1   
    40   21   38 1   
    41   21   39 1   
    42   21   41 1   
@<TRIPOS>SUBSTRUCTURE
     1 DYH         1 TEMP              0 ****  ****    0 ROOT
