@<TRIPOS>MOLECULE
DYH
   41    42     1     0     0
SMALL
bcc


@<TRIPOS>ATOM
      1 CAA         0.2440    0.5240   -0.0770 c3        1 DYH      0.095100
      2 NH          1.6730    0.4390    0.2610 ny        1 DYH     -0.767000
      3 CAH         1.9150    0.0260    1.6830 c3        1 DYH      0.068500
      4 CAG         1.8710    1.2590    2.6320 c3        1 DYH      0.106100
      5 OAC         2.2670    2.4460    1.9870 oh        1 DYH     -0.598800
      6 CAP         2.7310    0.9830    3.8630 c3        1 DYH      0.096400
      7 OAQ         4.0860    0.8900    3.4620 os        1 DYH     -0.391600
      8 CAR         4.3640   -0.2690    2.6860 c3        1 DYH      0.122100
      9 CAS         5.4410    0.0900    1.6540 c3        1 DYH     -0.107400
     10 CAI         3.1900   -0.8560    1.8670 c3        1 DYH      0.103100
     11 OAJ         3.7440   -1.2400    0.6160 os        1 DYH     -0.414600
     12 CAK         4.8970   -0.3900    0.3070 c3        1 DYH      0.024800
     13 CAE         4.3110    0.7660   -0.5390 c         1 DYH      0.847600
     14 OAB         3.8250    0.4880   -1.6800 o         1 DYH     -0.830300
     15 OAF         4.1870    1.9180   -0.0330 o         1 DYH     -0.830300
     16 CB          5.8640   -1.2640   -0.4750 c3        1 DYH     -0.071400
     17 CA          6.9700   -0.4650   -1.1400 c3        1 DYH     -0.059500
     18 C           8.1710   -1.4430   -1.5540 c         1 DYH      0.934600
     19 O           8.6040   -1.2880   -2.7250 o         1 DYH     -0.769800
     20 OXT         8.5520   -2.2220   -0.6620 o         1 DYH     -0.769800
     21 N           6.5030    0.2950   -2.3370 nz        1 DYH     -0.833600
     22 HAA        -0.2610    1.2510    0.6130 hx        1 DYH      0.090367
     23 HAAA        0.1480    0.8830   -1.1370 hx        1 DYH      0.090367
     24 HAAB       -0.2350   -0.4860    0.0200 hx        1 DYH      0.090367
     25 HNH         2.1260    1.3730    0.1120 hn        1 DYH      0.501800
     26 HAH         1.0450   -0.6380    1.9750 hx        1 DYH      0.081700
     27 HAG         0.8010    1.4460    2.9330 h1        1 DYH      0.081700
     28 HOAC        3.2360    2.4290    1.8620 ho        1 DYH      0.467000
     29 HAP         2.7080    1.8640    4.5590 h1        1 DYH      0.074200
     30 HAPA        2.3950    0.0540    4.3900 h1        1 DYH      0.074200
     31 HAR         4.7300   -1.0610    3.3980 h1        1 DYH      0.072700
     32 HAS         5.6110    1.1990    1.6400 hc        1 DYH      0.096200
     33 HASA        6.4050   -0.4180    1.9050 hc        1 DYH      0.096200
     34 HAI         2.8410   -1.8190    2.3390 h1        1 DYH      0.086700
     35 HB          5.2810   -1.8550   -1.2320 hc        1 DYH      0.094700
     36 HBA         6.3620   -2.0030    0.2130 hc        1 DYH      0.094700
     37 HA          7.4040    0.2750   -0.4100 hx        1 DYH      0.085700
     38 HN          7.2270    0.1780   -3.0710 hn        1 DYH      0.455133
     39 HNA         6.3630    1.2780   -2.1140 hn        1 DYH      0.455133
     40 HH2         2.1580   -0.2230   -0.3810 hn        1 DYH      0.501800
     41 HN3         5.6040   -0.0840   -2.6670 hn        1 DYH      0.455133
@<TRIPOS>BOND
     1    1    2 1   
     2    1   22 1   
     3    1   23 1   
     4    1   24 1   
     5    2    3 1   
     6    2   25 1   
     7    2   40 1   
     8    3    4 1   
     9    3   10 1   
    10    3   26 1   
    11    4    5 1   
    12    4    6 1   
    13    4   27 1   
    14    5   28 1   
    15    6    7 1   
    16    6   29 1   
    17    6   30 1   
    18    7    8 1   
    19    8    9 1   
    20    8   10 1   
    21    8   31 1   
    22    9   12 1   
    23    9   32 1   
    24    9   33 1   
    25   10   11 1   
    26   10   34 1   
    27   11   12 1   
    28   12   13 1   
    29   12   16 1   
    30   13   14 1   
    31   13   15 1   
    32   16   17 1   
    33   16   35 1   
    34   16   36 1   
    35   17   18 1   
    36   17   21 1   
    37   17   37 1   
    38   18   19 1   
    39   18   20 1   
    40   21   38 1   
    41   21   39 1   
    42   21   41 1   
@<TRIPOS>SUBSTRUCTURE
     1 DYH         1 TEMP              0 ****  ****    0 ROOT
