@<TRIPOS>MOLECULE
DYH
   41    42     1     0     0
SMALL
bcc


@<TRIPOS>ATOM
      1 CAA         0.2200    0.4470    0.0220 c3        1 DYH      0.095100
      2 NH          1.6600    0.3930    0.3200 n4        1 DYH     -0.767000
      3 CAH         1.9480    0.0170    1.7440 c3        1 DYH      0.068500
      4 CAG         1.9100    1.2700    2.6660 c3        1 DYH      0.106100
      5 OAC         2.2680    2.4490    1.9830 oh        1 DYH     -0.598800
      6 CAP         2.8080    1.0370    3.8780 c3        1 DYH      0.096400
      7 OAQ         4.1530    0.9560    3.4410 os        1 DYH     -0.391600
      8 CAR         4.4290   -0.2160    2.6840 c3        1 DYH      0.122100
      9 CAS         5.4710    0.1380    1.6140 c3        1 DYH     -0.107400
     10 CAI         3.2430   -0.8400    1.9120 c3        1 DYH      0.103100
     11 OAJ         3.7680   -1.2440    0.6540 os        1 DYH     -0.414600
     12 CAK         4.8970   -0.3820    0.2940 c3        1 DYH      0.024800
     13 CAE         4.2680    0.7440   -0.5610 c         1 DYH      0.847600
     14 OAB         3.7550    0.4320   -1.6810 o         1 DYH     -0.830300
     15 OAF         4.1390    1.9050   -0.0770 o         1 DYH     -0.830300
     16 CB          5.8560   -1.2590   -0.4950 c3        1 DYH     -0.071400
     17 CA          6.9300   -0.4580   -1.2090 c3        1 DYH     -0.059500
     18 C           8.1340   -1.4250   -1.6350 c         1 DYH      0.934600
     19 O           8.5320   -1.2900   -2.8210 o         1 DYH     -0.769800
     20 OXT         8.5540   -2.1770   -0.7360 o         1 DYH     -0.769800
     21 N           6.4160    0.2670   -2.4090 n4        1 DYH     -0.833600
     22 HAA         0.0880    0.7800   -1.0430 hx        1 DYH      0.090367
     23 HAAA       -0.2390   -0.5680    0.1550 hx        1 DYH      0.090367
     24 HAAB       -0.2770    1.1820    0.7090 hx        1 DYH      0.090367
     25 HNH         2.1380   -0.2760   -0.3200 hn        1 DYH      0.501800
     26 HAH         1.0980   -0.6540    2.0760 hx        1 DYH      0.081700
     27 HAG         0.8460    1.4470    2.9930 h1        1 DYH      0.081700
     28 HOAC        3.2330    2.4440    1.8310 ho        1 DYH      0.467000
     29 HAP         2.5030    0.1150    4.4350 h1        1 DYH      0.074200
     30 HAPA        2.7900    1.9340    4.5550 h1        1 DYH      0.074200
     31 HAR         4.8280   -0.9850    3.4030 h1        1 DYH      0.072700
     32 HAS         5.6210    1.2480    1.5700 hc        1 DYH      0.096200
     33 HASA        6.4490   -0.3490    1.8490 hc        1 DYH      0.096200
     34 HAI         2.9230   -1.7970    2.4160 h1        1 DYH      0.086700
     35 HB          6.3860   -1.9740    0.1950 hc        1 DYH      0.094700
     36 HBA         5.2620   -1.8770   -1.2210 hc        1 DYH      0.094700
     37 HA          7.3710    0.3060   -0.5080 hx        1 DYH      0.085700
     38 HN          7.1220    0.1450   -3.1610 hn        1 DYH      0.455133
     39 HNA         6.2660    1.2520   -2.2050 hn        1 DYH      0.455133
     40 HH2         2.0920    1.3310    0.1380 hn        1 DYH      0.501800
     41 HN3         5.5160   -0.1340   -2.7040 hn        1 DYH      0.455133
@<TRIPOS>BOND
     1    1    2 1   
     2    1   22 1   
     3    1   23 1   
     4    1   24 1   
     5    2    3 1   
     6    2   25 1   
     7    2   40 1   
     8    3    4 1   
     9    3   10 1   
    10    3   26 1   
    11    4    5 1   
    12    4    6 1   
    13    4   27 1   
    14    5   28 1   
    15    6    7 1   
    16    6   29 1   
    17    6   30 1   
    18    7    8 1   
    19    8    9 1   
    20    8   10 1   
    21    8   31 1   
    22    9   12 1   
    23    9   32 1   
    24    9   33 1   
    25   10   11 1   
    26   10   34 1   
    27   11   12 1   
    28   12   13 1   
    29   12   16 1   
    30   13   14 1   
    31   13   15 1   
    32   16   17 1   
    33   16   35 1   
    34   16   36 1   
    35   17   18 1   
    36   17   21 1   
    37   17   37 1   
    38   18   19 1   
    39   18   20 1   
    40   21   38 1   
    41   21   39 1   
    42   21   41 1   
@<TRIPOS>SUBSTRUCTURE
     1 DYH         1 TEMP              0 ****  ****    0 ROOT
