@<TRIPOS>MOLECULE
DYH
   39    40     1     0     0
SMALL
bcc


@<TRIPOS>ATOM
      1 CAA        -2.1760   -0.1480    0.5470 c3        1 DYH      0.135100
      2 NH         -0.7380   -0.3600    0.5230 n3        1 DYH     -0.827200
      3 CAH        -0.2320   -0.3360    1.8710 c3        1 DYH      0.132500
      4 CAG        -1.0660    0.6010    2.6680 c3        1 DYH      0.115100
      5 OAC        -2.5000    0.2480    2.4760 oh        1 DYH     -0.619800
      6 CAP        -0.8620    1.9800    2.2680 c3        1 DYH      0.102400
      7 OAQ         0.4810    2.3340    2.2810 os        1 DYH     -0.423600
      8 CAR         1.4190    1.3090    1.4810 c3        1 DYH      0.108100
      9 CAS         1.3110    1.3440   -0.0870 c3        1 DYH     -0.109400
     10 CAI         1.2510    0.0610    1.8330 c3        1 DYH      0.099100
     11 OAJ         1.8290   -0.8160    0.6260 os        1 DYH     -0.410600
     12 CAK         1.4170   -0.1770   -0.5620 c3        1 DYH      0.036800
     13 CAE         2.3320   -0.3900   -1.7250 c         1 DYH      0.916600
     14 OAB         2.6180    0.5920   -2.5010 o         1 DYH     -0.843300
     15 OAF         2.8090   -1.5320   -1.9520 o         1 DYH     -0.843300
     16 CB          0.1670   -0.6970   -1.0690 c3        1 DYH     -0.042400
     17 CA          0.2450   -0.7970   -2.6720 c3        1 DYH      0.061500
     18 C           0.8180   -2.1340   -3.0700 c         1 DYH      0.913600
     19 O           0.2350   -3.1750   -2.7410 o         1 DYH     -0.868800
     20 OXT         1.7720   -2.1840   -3.8700 o         1 DYH     -0.868800
     21 N          -0.9990   -0.6640   -3.1970 n3        1 DYH     -0.920800
     22 HAA        -2.5750   -0.6830    1.2670 h1        1 DYH      0.034033
     23 HAAA       -2.5620   -0.4220   -0.3170 h1        1 DYH      0.034033
     24 HAAB       -2.3650    0.8090    0.7050 h1        1 DYH      0.034033
     25 HNH        -0.5560   -1.1730    0.1430 hn        1 DYH      0.399800
     26 HAH        -0.3090   -1.2410    2.2600 h1        1 DYH      0.044700
     27 HAG        -0.8330    0.5020    3.6440 h1        1 DYH      0.060700
     28 HOAC       -2.9390    0.2820    3.2920 ho        1 DYH      0.412000
     29 HAP        -1.2270    2.1090    1.3360 h1        1 DYH      0.043700
     30 HAPA       -1.3620    2.5810    2.8960 h1        1 DYH      0.043700
     31 HAR         2.3350    1.5440    1.7020 h1        1 DYH      0.074700
     32 HAS         2.0540    1.8730   -0.4700 hc        1 DYH      0.073700
     33 HASA        0.4380    1.7290   -0.3630 hc        1 DYH      0.073700
     34 HAI         1.7070   -0.1480    2.6800 h1        1 DYH      0.037700
     35 HB         -0.5590   -0.1020   -0.8170 hc        1 DYH      0.042200
     36 HBA         0.0020   -1.6160   -0.6800 hc        1 DYH      0.042200
     37 HA          0.8330   -0.0660   -3.0220 h1        1 DYH      0.013700
     38 HN         -1.1260    0.1870   -3.4540 hn        1 DYH      0.346300
     39 HNA        -1.0870   -1.2230   -3.9280 hn        1 DYH      0.346300
@<TRIPOS>BOND
     1    1    2 1   
     2    1   22 1   
     3    1   23 1   
     4    1   24 1   
     5    2    3 1   
     6    2   25 1   
     7    3    4 1   
     8    3   10 1   
     9    3   26 1   
    10    4    5 1   
    11    4    6 1   
    12    4   27 1   
    13    5   28 1   
    14    6    7 1   
    15    6   29 1   
    16    6   30 1   
    17    7    8 1   
    18    8    9 1   
    19    8   10 1   
    20    8   31 1   
    21    9   12 1   
    22    9   32 1   
    23    9   33 1   
    24   10   11 1   
    25   10   34 1   
    26   11   12 1   
    27   12   13 1   
    28   12   16 1   
    29   13   14 1   
    30   13   15 1   
    31   16   17 1   
    32   16   35 1   
    33   16   36 1   
    34   17   18 1   
    35   17   21 1   
    36   17   37 1   
    37   18   19 1   
    38   18   20 1   
    39   21   38 1   
    40   21   39 1   
@<TRIPOS>SUBSTRUCTURE
     1 DYH         1 TEMP              0 ****  ****    0 ROOT
