@<TRIPOS>MOLECULE
DYK
   58    62     1     0     0
SMALL
bcc


@<TRIPOS>ATOM
      1 C          -0.1260   -0.0960   -0.0820 c3        1 DYK      0.157100
      2 N           1.3170   -0.0450   -0.1700 n3        1 DYK     -0.732600
      3 O           3.9350   -1.9880    1.2530 os        1 DYK     -0.328900
      4 C1          1.9380    0.2070    1.1240 c3        1 DYK      0.169300
      5 N1          7.1460   -6.5790    0.9640 nh        1 DYK     -0.671300
      6 O1          7.4350   -4.6180   -0.9610 os        1 DYK     -0.338900
      7 C2          3.4580    0.3150    1.0460 c3        1 DYK     -0.089900
      8 N2          5.2430   -8.0770    0.9400 nb        1 DYK     -0.736000
      9 C3          4.0850   -0.8850    0.3420 c3        1 DYK      0.142100
     10 N3          7.4760   -8.8150    0.2150 nb        1 DYK     -0.749000
     11 C4          3.3870   -1.1650   -0.9820 c3        1 DYK     -0.089900
     12 N4          8.5800  -13.1100   -1.3040 na        1 DYK     -0.172400
     13 C5          1.8690   -1.2220   -0.8290 c3        1 DYK      0.169300
     14 N5         12.0470  -11.7940   -0.8120 nb        1 DYK     -0.654000
     15 C6          4.7540   -3.0820    1.0780 ca        1 DYK      0.162100
     16 C7          4.5710   -4.0990    2.0320 ca        1 DYK     -0.189000
     17 C8          5.3420   -5.2500    1.9720 ca        1 DYK     -0.039000
     18 C9          6.3100   -5.4320    0.9650 ca        1 DYK      0.050600
     19 C10         6.4730   -4.3910    0.0070 ca        1 DYK      0.132100
     20 C11         5.7070   -3.2220    0.0630 ca        1 DYK     -0.273000
     21 C12         7.6920   -3.5550   -1.8700 c3        1 DYK      0.118700
     22 C13         6.5880   -7.8520    0.6750 ca        1 DYK      0.862900
     23 C14         4.8120   -9.3340    0.7550 ca        1 DYK      0.461200
     24 C15         5.6350  -10.3820    0.3170 ca        1 DYK     -0.423600
     25 C16         6.9910  -10.0690    0.0490 ca        1 DYK      0.578100
     26 C17         7.8820  -11.1120   -0.4240 cc        1 DYK     -0.228000
     27 C18         7.4740  -12.3480   -0.9510 cd        1 DYK     -0.060100
     28 C19         9.7320  -12.3750   -1.0140 ca        1 DYK     -0.186500
     29 C20         9.3310  -11.1000   -0.4550 ca        1 DYK     -0.027800
     30 C21        10.3360  -10.2030   -0.0860 ca        1 DYK     -0.177300
     31 C22        11.6630  -10.6010   -0.2870 ca        1 DYK      0.356200
     32 C23        11.1060  -12.6710   -1.1710 ca        1 DYK      0.393200
     33 H          -0.5470   -0.2070   -1.1150 h1        1 DYK      0.031700
     34 HA         -0.5050   -0.9450    0.5520 h1        1 DYK      0.031700
     35 HB         -0.4950    0.8680    0.3560 h1        1 DYK      0.031700
     36 H1          1.5280    1.1790    1.5160 h1        1 DYK      0.037950
     37 H1A         1.6820   -0.6040    1.8700 h1        1 DYK      0.037950
     38 HN1         8.0220   -6.4150    0.5000 hn        1 DYK      0.436800
     39 H2          3.7520    1.2360    0.4800 hc        1 DYK      0.058450
     40 H2A         3.8610    0.3920    2.0880 hc        1 DYK      0.058450
     41 H3          5.1790   -0.6850    0.1740 h1        1 DYK      0.047700
     42 H4          3.6690   -0.3570   -1.7060 hc        1 DYK      0.058450
     43 H4A         3.7320   -2.1470   -1.3950 hc        1 DYK      0.058450
     44 H5          1.4070   -1.2870   -1.8540 h1        1 DYK      0.037950
     45 H5A         1.6080   -2.1680   -0.2700 h1        1 DYK      0.037950
     46 H7          3.8160   -3.9690    2.8210 ha        1 DYK      0.152000
     47 H8          5.1880   -6.0370    2.7290 ha        1 DYK      0.159000
     48 H11         5.8470   -2.4350   -0.6880 ha        1 DYK      0.144000
     49 H12         6.7880   -3.3420   -2.4920 h1        1 DYK      0.046033
     50 H12A        8.5220   -3.9560   -2.5060 h1        1 DYK      0.046033
     51 H12B        8.0210   -2.6370   -1.3250 h1        1 DYK      0.046033
     52 H14         3.7420   -9.5030    0.9740 h4        1 DYK      0.024100
     53 H15         5.2450  -11.3960    0.1940 ha        1 DYK      0.145000
     54 H18         6.4610  -12.7300   -1.1030 h4        1 DYK      0.172000
     55 H21        10.0990   -9.2200    0.3430 ha        1 DYK      0.167000
     56 H22        12.4960   -9.9290   -0.0130 h4        1 DYK      0.021100
     57 H23        11.4500  -13.6300   -1.5920 h4        1 DYK      0.020100
     58 HN4         8.5620  -14.0080   -1.7070 hn        1 DYK      0.305700
@<TRIPOS>BOND
     1    1    2 1   
     2    1   33 1   
     3    1   34 1   
     4    1   35 1   
     5    2    4 1   
     6    2   13 1   
     7    3    9 1   
     8    3   15 1   
     9    4    7 1   
    10    4   36 1   
    11    4   37 1   
    12    5   18 1   
    13    5   22 1   
    14    5   38 1   
    15    6   19 1   
    16    6   21 1   
    17    7    9 1   
    18    7   39 1   
    19    7   40 1   
    20    8   22 ar  
    21    8   23 ar  
    22    9   11 1   
    23    9   41 1   
    24   10   22 ar  
    25   10   25 ar  
    26   11   13 1   
    27   11   42 1   
    28   11   43 1   
    29   12   27 1   
    30   12   28 1   
    31   12   58 1   
    32   13   44 1   
    33   13   45 1   
    34   14   31 ar  
    35   14   32 ar  
    36   15   16 ar  
    37   15   20 ar  
    38   16   17 ar  
    39   16   46 1   
    40   17   18 ar  
    41   17   47 1   
    42   18   19 ar  
    43   19   20 ar  
    44   20   48 1   
    45   21   49 1   
    46   21   50 1   
    47   21   51 1   
    48   23   24 ar  
    49   23   52 1   
    50   24   25 ar  
    51   24   53 1   
    52   25   26 1   
    53   26   27 2   
    54   26   29 1   
    55   27   54 1   
    56   28   29 ar  
    57   28   32 ar  
    58   29   30 ar  
    59   30   31 ar  
    60   30   55 1   
    61   31   56 1   
    62   32   57 1   
@<TRIPOS>SUBSTRUCTURE
     1 DYK         1 TEMP              0 ****  ****    0 ROOT
