@<TRIPOS>MOLECULE
DYK
   58    62     1     0     0
SMALL
bcc


@<TRIPOS>ATOM
      1 C          -0.1230   -0.0990   -0.0620 c3        1 DYK      0.157100
      2 N           1.3180   -0.0460   -0.1620 n3        1 DYK     -0.732600
      3 O           3.9490   -1.9790    1.2530 os        1 DYK     -0.328900
      4 C1          1.9500    0.2130    1.1260 c3        1 DYK      0.169300
      5 N1          7.1530   -6.5740    0.9590 nu        1 DYK     -0.671300
      6 O1          7.4310   -4.6220   -0.9760 os        1 DYK     -0.338900
      7 C2          3.4690    0.3220    1.0360 c3        1 DYK     -0.089900
      8 N2          5.2490   -8.0710    0.9550 nb        1 DYK     -0.736000
      9 C3          4.0910   -0.8810    0.3340 c3        1 DYK      0.142100
     10 N3          7.4750   -8.8140    0.2160 nb        1 DYK     -0.749000
     11 C4          3.3830   -1.1700   -0.9830 c3        1 DYK     -0.089900
     12 N4          8.5620  -13.1160   -1.2960 na        1 DYK     -0.172400
     13 C5          1.8670   -1.2270   -0.8180 c3        1 DYK      0.169300
     14 N5         12.0340  -11.8020   -0.8350 nb        1 DYK     -0.654000
     15 C6          4.7660   -3.0750    1.0760 ca        1 DYK      0.162100
     16 C7          4.5890   -4.0880    2.0360 ca        1 DYK     -0.189000
     17 C8          5.3580   -5.2400    1.9750 ca        1 DYK     -0.039000
     18 C9          6.3190   -5.4270    0.9620 ca        1 DYK      0.050600
     19 C10         6.4760   -4.3900   -0.0020 ca        1 DYK      0.132100
     20 C11         5.7120   -3.2200    0.0560 ca        1 DYK     -0.273000
     21 C12         7.6840   -3.5610   -1.8890 c3        1 DYK      0.118700
     22 C13         6.5920   -7.8480    0.6790 ca        1 DYK      0.862900
     23 C14         4.8150   -9.3280    0.7790 ca        1 DYK      0.461200
     24 C15         5.6330  -10.3790    0.3380 ca        1 DYK     -0.423600
     25 C16         6.9870  -10.0690    0.0580 ca        1 DYK      0.578100
     26 C17         7.8730  -11.1140   -0.4170 cc        1 DYK     -0.228000
     27 C18         7.4600  -12.3510   -0.9370 cd        1 DYK     -0.060100
     28 C19         9.7170  -12.3820   -1.0180 ca        1 DYK     -0.186500
     29 C20         9.3220  -11.1040   -0.4600 ca        1 DYK     -0.027800
     30 C21        10.3310  -10.2060   -0.1020 ca        1 DYK     -0.177300
     31 C22        11.6550  -10.6080   -0.3120 ca        1 DYK      0.356200
     32 C23        11.0890  -12.6790   -1.1840 ca        1 DYK      0.393200
     33 H          -0.5530   -0.2160   -1.0910 h1        1 DYK      0.031700
     34 HA         -0.4970   -0.9440    0.5800 h1        1 DYK      0.031700
     35 HB         -0.4900    0.8680    0.3730 h1        1 DYK      0.031700
     36 H1          1.7000   -0.5930    1.8790 h1        1 DYK      0.037950
     37 H1A         1.5420    1.1880    1.5150 h1        1 DYK      0.037950
     38 HN1         8.0260   -6.4130    0.4880 hn        1 DYK      0.436800
     39 H2          3.7580    1.2400    0.4620 hc        1 DYK      0.058450
     40 H2A         3.8800    0.4050    2.0740 hc        1 DYK      0.058450
     41 H3          5.1840   -0.6820    0.1560 h1        1 DYK      0.047700
     42 H4          3.6590   -0.3670   -1.7140 hc        1 DYK      0.058450
     43 H4A         3.7260   -2.1550   -1.3930 hc        1 DYK      0.058450
     44 H5          1.6100   -2.1710   -0.2510 h1        1 DYK      0.037950
     45 H5A         1.3970   -1.2980   -1.8390 h1        1 DYK      0.037950
     46 H7          3.8400   -3.9540    2.8290 ha        1 DYK      0.152000
     47 H8          5.2090   -6.0240    2.7360 ha        1 DYK      0.159000
     48 H11         5.8470   -2.4360   -0.7000 ha        1 DYK      0.144000
     49 H12         8.5100   -3.9660   -2.5290 h1        1 DYK      0.046033
     50 H12A        8.0180   -2.6420   -1.3490 h1        1 DYK      0.046033
     51 H12B        6.7770   -3.3490   -2.5060 h1        1 DYK      0.046033
     52 H14         3.7460   -9.4950    1.0060 h4        1 DYK      0.024100
     53 H15         5.2400  -11.3930    0.2220 ha        1 DYK      0.145000
     54 H18         6.4460  -12.7330   -1.0790 h4        1 DYK      0.172000
     55 H21        10.0980   -9.2220    0.3250 ha        1 DYK      0.167000
     56 H22        12.4910   -9.9350   -0.0470 h4        1 DYK      0.021100
     57 H23        11.4290  -13.6400   -1.6040 h4        1 DYK      0.020100
     58 HN4         8.5390  -14.0160   -1.6950 hn        1 DYK      0.305700
@<TRIPOS>BOND
     1    1    2 1   
     2    1   33 1   
     3    1   34 1   
     4    1   35 1   
     5    2    4 1   
     6    2   13 1   
     7    3    9 1   
     8    3   15 1   
     9    4    7 1   
    10    4   36 1   
    11    4   37 1   
    12    5   18 1   
    13    5   22 1   
    14    5   38 1   
    15    6   19 1   
    16    6   21 1   
    17    7    9 1   
    18    7   39 1   
    19    7   40 1   
    20    8   22 ar  
    21    8   23 ar  
    22    9   11 1   
    23    9   41 1   
    24   10   22 ar  
    25   10   25 ar  
    26   11   13 1   
    27   11   42 1   
    28   11   43 1   
    29   12   27 1   
    30   12   28 1   
    31   12   58 1   
    32   13   44 1   
    33   13   45 1   
    34   14   31 ar  
    35   14   32 ar  
    36   15   16 ar  
    37   15   20 ar  
    38   16   17 ar  
    39   16   46 1   
    40   17   18 ar  
    41   17   47 1   
    42   18   19 ar  
    43   19   20 ar  
    44   20   48 1   
    45   21   49 1   
    46   21   50 1   
    47   21   51 1   
    48   23   24 ar  
    49   23   52 1   
    50   24   25 ar  
    51   24   53 1   
    52   25   26 1   
    53   26   27 2   
    54   26   29 1   
    55   27   54 1   
    56   28   29 ar  
    57   28   32 ar  
    58   29   30 ar  
    59   30   31 ar  
    60   30   55 1   
    61   31   56 1   
    62   32   57 1   
@<TRIPOS>SUBSTRUCTURE
     1 DYK         1 TEMP              0 ****  ****    0 ROOT
