@<TRIPOS>MOLECULE
DYM
   36    36     1     0     0
SMALL
bcc


@<TRIPOS>ATOM
      1 C1         -1.1620   -3.6420    0.1520 c         1 DYM      0.934800
      2 C2         -1.3350   -2.1150    0.3180 ce        1 DYM      0.091900
      3 C3         -2.5150   -1.4830    0.4530 c2        1 DYM     -0.402200
      4 C4         -2.6390   -0.0220    0.6840 c3        1 DYM      0.192300
      5 C5         -1.3450    0.7050    0.2090 c3        1 DYM      0.042700
      6 C6         -0.1420   -0.1020    0.7690 c3        1 DYM      0.326900
      7 C8          3.3890    0.5780    0.1290 c3        1 DYM      0.102100
      8 C9          4.7150   -0.1290    0.4230 c3        1 DYM      0.133400
      9 C11        -1.3390    4.5300    0.3080 c3        1 DYM     -0.176100
     10 N5         -1.3080    2.0870    0.6140 n         1 DYM     -0.546900
     11 O1A        -0.5910   -4.2440    1.0950 o         1 DYM     -0.795300
     12 O1B        -1.6350   -4.1490   -0.8940 o         1 DYM     -0.795300
     13 O4         -3.7680    0.5370    0.0310 oh        1 DYM     -0.610800
     14 O6         -0.1260   -1.4580    0.3400 os        1 DYM     -0.339900
     15 O7          1.0400    0.4240    0.1960 os        1 DYM     -0.436600
     16 O8          3.4010    0.8880   -1.2580 oh        1 DYM     -0.625800
     17 O9          5.8180    0.7030    0.1210 oh        1 DYM     -0.611800
     18 O10        -1.1200    2.9680   -1.5060 o         1 DYM     -0.614100
     19 H3         -3.4530   -2.0490    0.4030 ha        1 DYM      0.155000
     20 H4         -2.8290    0.1920    1.7770 h1        1 DYM      0.051700
     21 H5         -1.2950    0.6600   -0.9200 h1        1 DYM      0.114700
     22 H6         -0.0910   -0.0720    1.8940 h2        1 DYM      0.036700
     23 H71         2.2450   -0.5900    1.5880 h1        1 DYM      0.061200
     24 H72         2.2170   -1.2680   -0.1160 h1        1 DYM      0.061200
     25 H8          3.3270    1.5430    0.7060 h1        1 DYM      0.046700
     26 H91         4.8020   -0.3500    1.5190 h1        1 DYM      0.050700
     27 H92         4.7810   -1.0800   -0.1690 h1        1 DYM      0.050700
     28 H111       -1.2540    5.2720   -0.5220 hc        1 DYM      0.058033
     29 H112       -2.3160    4.6750    0.8280 hc        1 DYM      0.058033
     30 H113       -0.5080    4.7000    1.0340 hc        1 DYM      0.058033
     31 HN5        -1.5290    2.2780    1.5610 hn        1 DYM      0.299500
     32 HO4        -3.7780    0.1850   -0.8680 ho        1 DYM      0.410000
     33 HO8         2.4860    1.0620   -1.5170 ho        1 DYM      0.436000
     34 HO9         5.6930    1.0140   -0.7850 ho        1 DYM      0.416000
     35 C7          2.2160   -0.3300    0.4990 c3        1 DYM      0.103400
     36 C10        -1.2540    3.1370   -0.2780 c         1 DYM      0.665100
@<TRIPOS>BOND
     1    1    2 1   
     2    1   11 1   
     3    1   12 1   
     4    2    3 2   
     5    2   14 1   
     6    3    4 1   
     7    3   19 1   
     8    4    5 1   
     9    4   13 1   
    10    4   20 1   
    11    5    6 1   
    12    5   10 1   
    13    5   21 1   
    14    6   14 1   
    15    6   15 1   
    16    6   22 1   
    17    7    8 1   
    18    7   16 1   
    19    7   25 1   
    20    7   35 1   
    21    8   17 1   
    22    8   26 1   
    23    8   27 1   
    24    9   28 1   
    25    9   29 1   
    26    9   30 1   
    27    9   36 1   
    28   10   31 1   
    29   10   36 1   
    30   13   32 1   
    31   15   35 1   
    32   16   33 1   
    33   17   34 1   
    34   18   36 2   
    35   23   35 1   
    36   24   35 1   
@<TRIPOS>SUBSTRUCTURE
     1 DYM         1 TEMP              0 ****  ****    0 ROOT
