@<TRIPOS>MOLECULE
DYM
   36    33     1     0     0
SMALL
bcc


@<TRIPOS>ATOM
      1 C1         -4.2200   -0.7780    1.4640 c1        1 DYM      0.390000
      2 C2         -2.7070   -0.7780    1.4640 c1        1 DYM      0.052000
      3 C3         -1.8530   -0.7780    2.9440 c1        1 DYM     -0.389000
      4 C4         -0.4030   -0.8440    2.8160 c2        1 DYM      0.076000
      5 C5          0.1200   -0.0920    1.4530 c3        1 DYM     -0.069000
      6 C6         -0.4780   -0.4380    0.3770 c3        1 DYM      0.138000
      7 C7         -0.4120    0.0000   -2.0140 c3        1 DYM     -0.017000
      8 C8          0.0980    0.9700   -3.0550 c3        1 DYM     -0.029000
      9 C9         -0.2150    0.4390   -4.4360 c3        1 DYM     -0.043000
     10 C10         2.5740    0.4780    1.8570 c1        1 DYM      0.307000
     11 C11         4.0480    0.1750    1.7040 c2        1 DYM     -0.242000
     12 N5          1.6080   -0.3910    1.2870 n3        1 DYM     -0.354000
     13 O1A        -4.8500    0.2900    1.6880 o         1 DYM     -0.539500
     14 O1B        -4.8500   -1.8450    1.2420 o         1 DYM     -0.539500
     15 O4          0.2650   -0.3360    3.9990 oh        1 DYM     -0.337000
     16 O6         -2.0160   -0.2490    0.3900 os        1 DYM     -0.221000
     17 O7          0.0810    0.3690   -0.7470 os        1 DYM     -0.273000
     18 O8         -0.5270    2.2190   -2.8800 oh        1 DYM     -0.355000
     19 O9          0.3080    1.3170   -5.4080 oh        1 DYM     -0.371000
     20 O10         2.2170    1.4590    2.4780 o         1 DYM     -0.383000
     21 H3         -2.2740   -1.1840    3.7250 ha        1 DYM      0.157000
     22 H4         -0.1060   -1.7740    2.8230 h4        1 DYM      0.096000
     23 H5          0.0090    0.8700    1.5710 h1        1 DYM      0.142000
     24 H6         -0.2860   -1.3800    0.2070 h2        1 DYM      0.108000
     25 H71        -0.1080   -0.9010   -2.2320 h1        1 DYM      0.101500
     26 H72        -1.3880    0.0200   -2.0020 h1        1 DYM      0.101500
     27 H8          1.0640    1.0740   -2.9580 h1        1 DYM      0.117000
     28 H91         0.1880   -0.4430   -4.5440 h1        1 DYM      0.097000
     29 H92        -1.1830    0.3700   -4.5460 h1        1 DYM      0.097000
     30 H111        4.2990    0.2460    0.7630 ha        1 DYM      0.098333
     31 H112        4.2290   -0.7300    2.0210 ha        1 DYM      0.098333
     32 H113        4.5680    0.8140    2.2280 ha        1 DYM      0.098333
     33 HN5         1.8750   -1.1510    0.8600 hn        1 DYM      0.218000
     34 HO4         0.0780   -0.8580    4.6920 ho        1 DYM      0.205000
     35 HO8         0.0640    2.8670   -3.0130 ho        1 DYM      0.211000
     36 HO9         0.1850    0.9720   -6.2160 ho        1 DYM      0.252000
@<TRIPOS>BOND
     1    1   13 1   
     2    1   14 1   
     3    2    3 1   
     4    2   16 1   
     5    3   21 1   
     6    4    5 1   
     7    4   15 1   
     8    4   22 1   
     9    5    6 1   
    10    5   12 1   
    11    5   23 1   
    12    6   16 1   
    13    6   17 1   
    14    6   24 1   
    15    7    8 1   
    16    7   17 1   
    17    7   25 1   
    18    7   26 1   
    19    8    9 1   
    20    8   18 1   
    21    8   27 1   
    22    9   19 1   
    23    9   28 1   
    24    9   29 1   
    25   10   12 1   
    26   10   20 1   
    27   11   30 1   
    28   11   31 1   
    29   11   32 1   
    30   12   33 1   
    31   15   34 1   
    32   18   35 1   
    33   19   36 1   
@<TRIPOS>SUBSTRUCTURE
     1 DYM         1 TEMP              0 ****  ****    0 ROOT
