@<TRIPOS>MOLECULE
DYM
   37    33     1     0     0
SMALL
bcc


@<TRIPOS>ATOM
      1 C1         -0.8420    0.6110   -0.0790 c1        1 DYM      0.456000
      2 C2          1.5680    0.1200   -0.0620 c1        1 DYM      0.054000
      3 C3          2.2210   -0.7010    0.9190 c2        1 DYM     -0.350000
      4 C4          3.3250   -0.4400    1.6500 c2        1 DYM      0.047000
      5 C5          3.8440    1.9500   -2.0510 c2        1 DYM     -0.082000
      6 C6          3.4520    0.5720   -1.5410 c3        1 DYM      0.092000
      7 C8          3.8090   -3.0960   -4.3040 c3        1 DYM     -0.097000
      8 C9          3.6570   -1.8760   -5.1760 c1        1 DYM      0.011000
      9 C11         8.7800    0.7660    0.5790 c3        1 DYM     -0.289000
     10 N5          5.0180    2.4110   -1.8620 n2        1 DYM     -0.222000
     11 O1A        -0.7260    1.7260    0.3290 o         1 DYM     -0.241500
     12 O1B        -1.1280   -0.4730   -0.4860 o         1 DYM     -0.241500
     13 O4          4.0540    0.6900    1.4100 oh        1 DYM     -0.279000
     14 O6          2.0690    0.6750   -1.1060 os        1 DYM     -0.131000
     15 O7          3.3900   -0.3780   -2.5680 oh        1 DYM     -0.352000
     16 O8          4.7230   -2.8610   -3.2360 oh        1 DYM     -0.351000
     17 O9          4.3450   -0.8240   -4.8960 oh        1 DYM     -0.165000
     18 O10         6.8270    0.3940    1.9180 o         1 DYM     -0.336000
     19 H3          1.6350   -1.6070    1.1650 ha        1 DYM      0.174000
     20 H4          3.6620   -1.0870    2.4780 h4        1 DYM      0.142000
     21 H5          3.0100    2.4640   -2.5780 h4        1 DYM      0.119000
     22 H6          4.1270    0.1540   -0.7460 h2        1 DYM      0.161000
     23 H71         2.7910   -0.0530   -3.2580 ho        1 DYM      0.235000
     24 H72         2.5660   -4.4840   -3.1980 hc        1 DYM      0.091333
     25 H8          1.9820   -2.7650   -3.1810 hc        1 DYM      0.091333
     26 H91         1.7870   -3.7710   -4.6810 hc        1 DYM      0.091333
     27 H92         4.3030   -3.9020   -4.9240 h1        1 DYM      0.144000
     28 H111        9.1530    1.8030    0.3890 hc        1 DYM      0.108333
     29 H112        9.3540    0.3250    1.4300 hc        1 DYM      0.108333
     30 H113        8.9620    0.1530   -0.3380 hc        1 DYM      0.108333
     31 HN5         6.6780    1.2420    0.0630 h4        1 DYM      0.116000
     32 HO4         4.7880    0.7260    2.0480 ho        1 DYM      0.258000
     33 HO8         4.2360   -2.4300   -2.5220 ho        1 DYM      0.215000
     34 HO9         4.9430   -0.8880   -4.1100 ho        1 DYM      0.190000
     35 C7          2.4530   -3.5580   -3.8120 c3        1 DYM     -0.223000
     36 C10         7.3210    0.8090    0.8640 c2        1 DYM      0.192000
     37 H52         5.1910    3.3220   -2.2340 hn        1 DYM      0.155000
@<TRIPOS>BOND
     1    1   11 1   
     2    1   12 1   
     3    2    3 1   
     4    2   14 1   
     5    3    4 1   
     6    3   19 1   
     7    4   13 1   
     8    4   20 1   
     9    5    6 1   
    10    5   10 1   
    11    5   21 1   
    12    6   14 1   
    13    6   15 1   
    14    6   22 1   
    15    7    8 1   
    16    7   16 1   
    17    7   27 1   
    18    7   35 1   
    19    8   17 1   
    20    9   28 1   
    21    9   29 1   
    22    9   30 1   
    23    9   36 1   
    24   10   37 1   
    25   13   32 1   
    26   15   23 1   
    27   16   33 1   
    28   17   34 1   
    29   18   36 1   
    30   24   35 1   
    31   25   35 1   
    32   26   35 1   
    33   31   36 1   
@<TRIPOS>SUBSTRUCTURE
     1 DYM         1 TEMP              0 ****  ****    0 ROOT
