@<TRIPOS>MOLECULE
DYM
   37    32     1     0     0
SMALL
bcc


@<TRIPOS>ATOM
      1 C1          2.2420   -1.1770    2.7590 c1        1 DYM      0.485000
      2 C2          1.4910    0.7650   -0.5750 c1        1 DYM      0.069000
      3 C3          2.0790    1.6100    0.5020 c3        1 DYM     -0.350000
      4 C4          1.9050    0.9760    1.8320 c1        1 DYM     -0.031000
      5 C5          4.3430   -0.1040   -2.0790 c2        1 DYM     -0.268000
      6 C6          3.4980   -0.5860   -0.9460 c3        1 DYM      0.111000
      7 C8          2.5080   -2.2730   -4.1190 c2        1 DYM     -0.030000
      8 C9          5.6090   -0.6520   -4.7450 c1        1 DYM     -0.080000
      9 C11         6.5000    0.5770   -1.1330 c2        1 DYM     -0.459000
     10 N5          5.6010    0.2830   -2.0950 n3        1 DYM      0.124000
     11 O1A         2.5670   -1.7670    1.7730 o         1 DYM     -0.267000
     12 O1B         1.9440   -0.7880    3.8500 o         1 DYM     -0.267000
     13 O4          1.5760    1.8300    2.7760 oh        1 DYM     -0.205000
     14 O6          2.1210   -0.1540   -1.2020 os        1 DYM     -0.141000
     15 O7          3.3610   -1.9780   -1.1200 oh        1 DYM     -0.343000
     16 O8          3.8840   -2.4200   -4.0700 oh        1 DYM     -0.340000
     17 O9          6.1610   -1.7870   -4.5290 oh        1 DYM     -0.128000
     18 O10         5.2230    0.9790    0.8560 o         1 DYM     -0.405000
     19 H3          3.1970    1.7620    0.3860 hc        1 DYM      0.150500
     20 H4          3.8450   -0.1860   -3.0690 h4        1 DYM      0.169000
     21 H5          1.5930    2.6230    0.4290 hc        1 DYM      0.150500
     22 H6          3.8220   -0.3140    0.0930 h2        1 DYM      0.160000
     23 H71         2.8710   -2.3170   -0.3580 ho        1 DYM      0.240000
     24 H72         2.3980   -2.7020   -6.2110 ha        1 DYM      0.124000
     25 H8          0.7950   -2.2860   -5.3640 ha        1 DYM      0.124000
     26 H91         4.8870   -0.5440   -5.5800 ha        1 DYM      0.046000
     27 H92         2.0290   -2.0050   -3.1600 h4        1 DYM      0.159000
     28 H111        9.3260    1.0710   -0.1440 ha        1 DYM      0.000500
     29 H112        9.8800    1.0690   -0.5340 ha        1 DYM      0.000500
     30 H113        7.5370    0.6740   -1.5040 h4        1 DYM      0.154000
     31 HN5         7.2670    0.9910    0.8100 h4        1 DYM      0.091000
     32 HO4         1.5140    1.3380    3.6210 ho        1 DYM      0.269000
     33 HO8         4.1310   -2.5040   -3.1340 ho        1 DYM      0.250000
     34 HO9         5.8820   -2.5300   -5.1100 ho        1 DYM      0.190000
     35 C7          1.8780   -2.4300   -5.2860 c2        1 DYM     -0.287000
     36 C10         6.3070    0.8490    0.2580 c2        1 DYM      0.241000
     37 H52         5.9820    0.3310   -3.0620 hn        1 DYM      0.290000
@<TRIPOS>BOND
     1    1   11 1   
     2    1   12 1   
     3    2    3 1   
     4    2   14 1   
     5    3    4 1   
     6    3   19 1   
     7    3   21 1   
     8    4   13 1   
     9    5    6 1   
    10    5   10 1   
    11    5   20 1   
    12    6   14 1   
    13    6   15 1   
    14    6   22 1   
    15    7   16 1   
    16    7   27 1   
    17    7   35 1   
    18    8   17 1   
    19    8   26 1   
    20    9   10 1   
    21    9   30 1   
    22    9   36 1   
    23   10   37 1   
    24   13   32 1   
    25   15   23 1   
    26   16   33 1   
    27   17   34 1   
    28   18   36 1   
    29   24   35 1   
    30   25   35 1   
    31   28   29 1   
    32   31   36 1   
@<TRIPOS>SUBSTRUCTURE
     1 DYM         1 TEMP              0 ****  ****    0 ROOT
