@<TRIPOS>MOLECULE
DYM
   37    33     1     0     0
SMALL
bcc


@<TRIPOS>ATOM
      1 C1          0.3110   -0.9050   -0.2180 c1        1 DYM      0.469000
      2 C2          2.5610   -0.2840    0.6280 c1        1 DYM     -0.063000
      3 C3          3.3380   -0.0320    1.8600 c3        1 DYM     -0.371000
      4 C4          2.5560    0.2300    3.0990 c1        1 DYM      0.033000
      5 C5          4.9950    1.0660   -0.5200 c2        1 DYM     -0.810000
      6 C6          4.5530   -0.3030   -0.7630 c3        1 DYM      0.210000
      7 C8          1.8190   -2.1700   -4.3430 c2        1 DYM     -0.021000
      8 C9          6.3220   -1.9700   -3.3450 c1        1 DYM     -0.043000
      9 C11         7.5290    0.9400   -2.3850 c3        1 DYM     -0.253000
     10 N5          6.3250    1.3750   -0.1660 ny        1 DYM      0.098000
     11 O1A        -0.2830   -0.1150    0.4490 o         1 DYM     -0.245500
     12 O1B         0.7530   -1.7420   -0.9440 o         1 DYM     -0.245500
     13 O4          1.2870    0.4320    3.0770 oh        1 DYM     -0.152000
     14 O6          3.1030   -0.4050   -0.5250 os        1 DYM     -0.126000
     15 O7          4.5800   -0.7450   -2.0970 oh        1 DYM     -0.368000
     16 O8          2.6460   -1.4260   -3.5370 oh        1 DYM     -0.306000
     17 O9          5.5490   -1.4170   -4.2070 oh        1 DYM     -0.155000
     18 O10         7.3940    3.1110   -1.2950 o         1 DYM     -0.253000
     19 H3          4.0060   -0.9160    2.0750 hc        1 DYM      0.151500
     20 H4          4.3500    1.9090   -0.7670 hx        1 DYM      0.171000
     21 H5          4.0230    0.8560    1.7080 hc        1 DYM      0.151500
     22 H6          5.0740   -1.1020   -0.1670 h2        1 DYM      0.097000
     23 H71         4.2200   -0.0470   -2.6630 ho        1 DYM      0.238000
     24 H72         0.6280   -3.1230   -2.8460 ha        1 DYM      0.131500
     25 H8          0.2310   -3.5530   -4.6110 ha        1 DYM      0.131500
     26 H91         5.9080   -2.8000   -2.7260 ha        1 DYM      0.005000
     27 H92         2.0800   -1.9850   -5.3980 h4        1 DYM      0.151000
     28 H111        7.8270    1.5010   -3.3060 hc        1 DYM      0.142333
     29 H112        6.6860    0.2390   -2.6430 hc        1 DYM      0.142333
     30 H113        8.3980    0.3300   -2.0340 hc        1 DYM      0.142333
     31 HN5         6.7960    0.5420    0.1940 hn        1 DYM      0.214000
     32 HO4         0.8430    0.3880    2.1990 ho        1 DYM      0.199000
     33 HO8         2.4110   -1.5630   -2.6020 ho        1 DYM      0.246000
     34 HO9         4.6200   -1.7440   -4.2450 ho        1 DYM      0.187000
     35 C7          0.8540   -2.9850   -3.9110 c2        1 DYM     -0.331000
     36 C10         7.1380    1.9090   -1.3260 c2        1 DYM      0.219000
     37 H52         6.3130    2.1020    0.5610 hn        1 DYM      0.214000
@<TRIPOS>BOND
     1    1   11 1   
     2    1   12 1   
     3    2    3 1   
     4    2   14 1   
     5    3    4 1   
     6    3   19 1   
     7    3   21 1   
     8    4   13 1   
     9    5    6 1   
    10    5   10 1   
    11    5   20 1   
    12    6   14 1   
    13    6   15 1   
    14    6   22 1   
    15    7   16 1   
    16    7   27 1   
    17    7   35 1   
    18    8   17 1   
    19    8   26 1   
    20    9   28 1   
    21    9   29 1   
    22    9   30 1   
    23    9   36 1   
    24   10   31 1   
    25   10   36 1   
    26   10   37 1   
    27   13   32 1   
    28   15   23 1   
    29   16   33 1   
    30   17   34 1   
    31   18   36 1   
    32   24   35 1   
    33   25   35 1   
@<TRIPOS>SUBSTRUCTURE
     1 DYM         1 TEMP              0 ****  ****    0 ROOT
