@<TRIPOS>MOLECULE
DYP
   59    62     1     0     0
SMALL
bcc


@<TRIPOS>ATOM
      1 CAY        -0.3940   -0.1090    1.0170 c3        1 DYP     -0.089100
      2 CAX         1.0900   -0.1490    0.7660 c3        1 DYP     -0.181400
      3 CAW         1.9010    0.1900    1.9850 c         1 DYP      0.567100
      4 OBF         1.4040    0.6580    3.0130 o         1 DYP     -0.525100
      5 CAV         3.3830   -0.0840    1.8510 c3        1 DYP     -0.166700
      6 CAU         4.2030    0.8940    2.6750 c3        1 DYP     -0.069900
      7 CAT         5.6900    0.5560    2.6070 c3        1 DYP      0.169800
      8 CAI         3.6860   -1.5080    2.2960 c3        1 DYP     -0.069900
      9 CAH         5.1850   -1.7860    2.2220 c3        1 DYP      0.169800
     10 NAG         5.9840   -0.8250    2.9700 n3        1 DYP     -0.728600
     11 CAF         7.4140   -1.1050    2.8970 c3        1 DYP      0.223100
     12 CAE         7.8100   -2.4290    3.4770 ca        1 DYP     -0.130300
     13 CAS         8.6280   -3.2970    2.7470 ca        1 DYP     -0.082000
     14 CAR         9.0470   -4.5050    3.2890 ca        1 DYP     -0.190500
     15 CAD         7.4180   -2.7920    4.7680 ca        1 DYP     -0.082000
     16 CAC         7.8280   -3.9980    5.3260 ca        1 DYP     -0.190500
     17 CAQ         8.6610   -4.8790    4.5990 ca        1 DYP      0.143600
     18 N10         9.1760   -6.0550    5.1690 nu        1 DYP     -0.724600
     19 C9          8.4250   -6.6670    6.2420 c3        1 DYP      0.151500
     20 C6          8.7250   -8.1340    6.4390 ca        1 DYP      0.236300
     21 C7          9.1630   -8.5710    7.7500 ca        1 DYP      0.353900
     22 N8          9.4250   -9.8240    8.0550 nb        1 DYP     -0.625000
     23 C8A         9.2670  -10.7710    7.0300 ca        1 DYP      0.631000
     24 N1          9.5340  -12.0850    7.3040 nb        1 DYP     -0.773000
     25 C2          9.3760  -12.9680    6.2600 ca        1 DYP      0.943900
     26 N2          9.7250  -14.2910    6.4900 nv        1 DYP     -0.941500
     27 N3          8.9290  -12.6610    4.9710 nb        1 DYP     -0.847000
     28 C4          8.6640  -11.3640    4.6950 ca        1 DYP      0.716900
     29 N4          8.2360  -11.0290    3.4390 nv        1 DYP     -0.955500
     30 C4A         8.8260  -10.3210    5.7220 ca        1 DYP      0.029000
     31 N5          8.5650   -9.0050    5.4480 nb        1 DYP     -0.603000
     32 HAY1       -0.6970    0.8950    1.4020 hc        1 DYP      0.043367
     33 HAY2       -0.6820   -0.8710    1.7810 hc        1 DYP      0.043367
     34 HAY3       -0.9510   -0.3190    0.0730 hc        1 DYP      0.043367
     35 HAX1        1.3620    0.5840   -0.0410 hc        1 DYP      0.063200
     36 HAX2        1.3950   -1.1690    0.4080 hc        1 DYP      0.063200
     37 HAV         3.6680    0.0250    0.7670 hc        1 DYP      0.058700
     38 HAU1        4.0570    1.9360    2.2900 hc        1 DYP      0.057450
     39 HAU2        3.8470    0.8700    3.7390 hc        1 DYP      0.057450
     40 HAT1        6.0660    0.7990    1.5690 h1        1 DYP      0.032950
     41 HAT2        6.2400    1.2210    3.3320 h1        1 DYP      0.032950
     42 HAI1        3.1560   -2.2400    1.6340 hc        1 DYP      0.057450
     43 HAI2        3.3190   -1.6570    3.3450 hc        1 DYP      0.057450
     44 HAH1        5.3880   -2.8030    2.6620 h1        1 DYP      0.032950
     45 HAH2        5.4890   -1.8170    1.1330 h1        1 DYP      0.032950
     46 HAF1        7.7900   -1.0420    1.8310 h1        1 DYP      0.036700
     47 HAF2        7.9420   -0.2990    3.4860 h1        1 DYP      0.036700
     48 HAS         8.9460   -3.0260    1.7280 ha        1 DYP      0.138000
     49 HAR         9.6930   -5.1670    2.6920 ha        1 DYP      0.131500
     50 HAD         6.7710   -2.1160    5.3500 ha        1 DYP      0.138000
     51 HAC         7.5070   -4.2490    6.3480 ha        1 DYP      0.131500
     52 H10         9.5210   -6.7010    4.4890 hn        1 DYP      0.406800
     53 H91         8.6920   -6.1170    7.1920 h1        1 DYP      0.054700
     54 H92         7.3090   -6.5560    6.0890 h1        1 DYP      0.054700
     55 H7          9.2960   -7.8290    8.5600 h4        1 DYP      0.038100
     56 HN21        9.8950  -14.5780    7.4230 hn        1 DYP      0.444300
     57 HN22        9.4620  -14.9750    5.8230 hn        1 DYP      0.444300
     58 HN41        8.0180  -10.0880    3.2250 hn        1 DYP      0.452800
     59 HN42        8.1180  -11.7250    2.7440 hn        1 DYP      0.452800
@<TRIPOS>BOND
     1    1    2 1   
     2    1   32 1   
     3    1   33 1   
     4    1   34 1   
     5    2    3 1   
     6    2   35 1   
     7    2   36 1   
     8    3    4 2   
     9    3    5 1   
    10    5    6 1   
    11    5    8 1   
    12    5   37 1   
    13    6    7 1   
    14    6   38 1   
    15    6   39 1   
    16    7   10 1   
    17    7   40 1   
    18    7   41 1   
    19    8    9 1   
    20    8   42 1   
    21    8   43 1   
    22    9   10 1   
    23    9   44 1   
    24    9   45 1   
    25   10   11 1   
    26   11   12 1   
    27   11   46 1   
    28   11   47 1   
    29   12   13 ar  
    30   12   15 ar  
    31   13   14 ar  
    32   13   48 1   
    33   14   17 ar  
    34   14   49 1   
    35   15   16 ar  
    36   15   50 1   
    37   16   17 ar  
    38   16   51 1   
    39   17   18 1   
    40   18   19 1   
    41   18   52 1   
    42   19   20 1   
    43   19   53 1   
    44   19   54 1   
    45   20   21 ar  
    46   20   31 ar  
    47   21   22 ar  
    48   21   55 1   
    49   22   23 ar  
    50   23   24 ar  
    51   23   30 ar  
    52   24   25 ar  
    53   25   26 1   
    54   25   27 ar  
    55   26   56 1   
    56   26   57 1   
    57   27   28 ar  
    58   28   29 1   
    59   28   30 ar  
    60   29   58 1   
    61   29   59 1   
    62   30   31 ar  
@<TRIPOS>SUBSTRUCTURE
     1 DYP         1 TEMP              0 ****  ****    0 ROOT
