@<TRIPOS>MOLECULE
DYP
   59    57     1     0     0
SMALL
bcc


@<TRIPOS>ATOM
      1 CAY        -0.3420    8.2430    3.9450 c3        1 DYP     -0.207000
      2 CAX        -1.2610    7.0320    4.2370 c3        1 DYP     -0.210000
      3 CAW        -0.6590    5.7810    3.6170 c2        1 DYP      0.228000
      4 OBF         0.5710    5.7240    3.3910 o         1 DYP     -0.284000
      5 CAV        -1.5620    4.5810    3.2780 c3        1 DYP     -0.156000
      6 CAU        -1.6480    4.3480    1.7550 c3        1 DYP     -0.148500
      7 CAT        -2.4670    3.0750    1.3790 c3        1 DYP     -0.067000
      8 CAI        -1.0870    3.3070    3.9400 c3        1 DYP     -0.148500
      9 CAH        -1.9130    2.0640    3.5150 c3        1 DYP     -0.067000
     10 NAG        -2.0130    1.9040    2.0520 n3        1 DYP     -0.254000
     11 CAF        -2.8810    0.8300    1.7590 c3        1 DYP     -0.021000
     12 CAE        -2.0670   -0.3440    1.1270 c2        1 DYP     -0.119000
     13 CAS        -1.3110   -0.1260    0.0750 c2        1 DYP     -0.075000
     14 CAR        -0.6300   -1.1880   -0.5260 c1        1 DYP     -0.178000
     15 CAD        -2.1910   -1.6590    1.6530 c1        1 DYP     -0.097000
     16 CAC        -1.5210   -2.7040    1.0610 c1        1 DYP     -0.189000
     17 CAQ        -0.7530   -2.4820   -0.0080 c1        1 DYP      0.062000
     18 N10        -0.0940   -3.5790   -0.6610 n3        1 DYP     -0.260000
     19 C9          1.2150   -3.4200   -1.1470 c3        1 DYP      0.002000
     20 C6          1.4740   -4.4400   -2.2780 c2        1 DYP     -0.143000
     21 C7          1.3360   -5.8130   -2.3000 c2        1 DYP     -0.057000
     22 N8          1.9130   -6.5410   -3.2990 n1        1 DYP     -0.095000
     23 C8A         2.6260   -5.9120   -4.2750 c1        1 DYP      0.179000
     24 N1          3.2100   -6.6230   -5.2560 n2        1 DYP     -0.281500
     25 C2          3.9320   -5.9860   -6.2210 c1        1 DYP      0.219000
     26 N2          4.3790   -6.9230   -7.2030 n2        1 DYP     -0.342500
     27 N3          4.0640   -4.6290   -6.1930 n2        1 DYP     -0.281500
     28 C4          3.4940   -3.9310   -5.2330 c1        1 DYP      0.179000
     29 N4          3.7720   -2.5950   -5.5810 n2        1 DYP     -0.342500
     30 C4A         2.7590   -4.5710   -4.2500 c2        1 DYP     -0.228000
     31 N5          2.1680   -3.8280   -3.2270 n2        1 DYP     -0.075000
     32 HAY1       -0.2850    8.3890    2.9470 hc        1 DYP      0.082667
     33 HAY2       -0.7160    9.0570    4.3770 hc        1 DYP      0.082667
     34 HAY3        0.6110    8.0550    4.3240 hc        1 DYP      0.082667
     35 HAX1       -1.3400    6.9150    5.1730 hc        1 DYP      0.102000
     36 HAX2       -2.0700    7.1790    3.8870 hc        1 DYP      0.102000
     37 HAV        -2.3940    4.8680    3.6360 hc        1 DYP      0.097000
     38 HAU1       -2.0640    5.1210    1.3440 hc        1 DYP      0.097500
     39 HAU2       -0.7430    4.2550    1.4030 hc        1 DYP      0.097500
     40 HAT1       -2.4010    2.9250    0.3850 h1        1 DYP      0.072000
     41 HAT2       -3.4210    3.2270    1.6170 h1        1 DYP      0.072000
     42 HAI1       -0.1020    3.1540    3.6940 hc        1 DYP      0.097500
     43 HAI2       -1.1580    3.4180    4.9470 hc        1 DYP      0.097500
     44 HAH1       -2.8400    2.1490    3.8930 h1        1 DYP      0.072000
     45 HAH2       -1.5170    1.3090    3.8690 h1        1 DYP      0.072000
     46 HAF1       -3.3290    0.5090    2.6230 h1        1 DYP      0.075000
     47 HAF2       -3.6060    1.1450    1.0900 h1        1 DYP      0.075000
     48 HAS        -1.2280    0.7570   -0.2790 ha        1 DYP      0.148000
     49 HAR        -0.0400   -1.0190   -1.3460 ha        1 DYP      0.132000
     50 HAD        -2.7200   -1.8120    2.3900 ha        1 DYP      0.128000
     51 HAC        -1.6040   -3.5940    1.4170 ha        1 DYP      0.128000
     52 H10        -0.4970   -4.3580   -0.7290 hn        1 DYP      0.192000
     53 H91         1.3130   -2.5650   -1.4760 h1        1 DYP      0.109500
     54 H92         1.8860   -3.5780   -0.3830 h1        1 DYP      0.109500
     55 H7          0.8310   -6.3120   -1.4910 h4        1 DYP      0.171000
     56 HN21        4.1050   -7.8680   -7.1420 hn        1 DYP      0.240500
     57 HN22        4.9820   -6.6330   -7.9260 hn        1 DYP      0.240500
     58 HN41        4.2560   -2.3990   -6.4080 hn        1 DYP      0.240500
     59 HN42        3.5800   -1.8910   -4.9610 hn        1 DYP      0.240500
@<TRIPOS>BOND
     1    1    2 1   
     2    1   32 1   
     3    1   33 1   
     4    1   34 1   
     5    2    3 1   
     6    2   35 1   
     7    2   36 1   
     8    3    4 1   
     9    3    5 1   
    10    5    6 1   
    11    5    8 1   
    12    5   37 1   
    13    6    7 1   
    14    6   38 1   
    15    6   39 1   
    16    7   10 1   
    17    7   40 1   
    18    7   41 1   
    19    8    9 1   
    20    8   42 1   
    21    8   43 1   
    22    9   10 1   
    23    9   44 1   
    24    9   45 1   
    25   10   11 1   
    26   11   12 1   
    27   11   46 1   
    28   11   47 1   
    29   12   13 1   
    30   12   15 1   
    31   13   14 1   
    32   13   48 1   
    33   14   49 1   
    34   15   50 1   
    35   16   17 1   
    36   16   51 1   
    37   17   18 1   
    38   18   19 1   
    39   18   52 1   
    40   19   20 1   
    41   19   53 1   
    42   19   54 1   
    43   20   21 1   
    44   20   31 1   
    45   21   22 1   
    46   21   55 1   
    47   23   24 1   
    48   23   30 1   
    49   24   25 1   
    50   25   27 1   
    51   26   56 1   
    52   26   57 1   
    53   27   28 1   
    54   28   30 1   
    55   29   58 1   
    56   29   59 1   
    57   30   31 1   
@<TRIPOS>SUBSTRUCTURE
     1 DYP         1 TEMP              0 ****  ****    0 ROOT
