@<TRIPOS>MOLECULE
DYP
   59    62     1     0     0
SMALL
bcc


@<TRIPOS>ATOM
      1 CAY        -8.7630    3.7750   -0.7950 c3        1 DYP     -0.089100
      2 CAX        -8.1360    2.7200    0.0770 c3        1 DYP     -0.181400
      3 CAW        -7.6700    1.5180   -0.6970 c         1 DYP      0.567100
      4 OBF        -7.9660    1.3280   -1.8800 o         1 DYP     -0.525100
      5 CAV        -6.8110    0.5560    0.0920 c3        1 DYP     -0.166700
      6 CAU        -6.9980   -0.8740   -0.3880 c3        1 DYP     -0.069900
      7 CAT        -6.0630   -1.8270    0.3500 c3        1 DYP      0.169800
      8 CAI        -5.3460    0.9500   -0.0330 c3        1 DYP     -0.069900
      9 CAH        -4.4570   -0.0440    0.7100 c3        1 DYP      0.169800
     10 NAG        -4.6630   -1.4230    0.2900 n3        1 DYP     -0.728600
     11 CAF        -3.8040   -2.3620    1.0040 c3        1 DYP      0.223100
     12 CAE        -2.3380   -2.1370    0.7880 ca        1 DYP     -0.130300
     13 CAS        -1.4700   -2.0710    1.8820 ca        1 DYP     -0.082000
     14 CAR        -0.1030   -1.9150    1.6990 ca        1 DYP     -0.190500
     15 CAD        -1.8090   -2.0420   -0.5020 ca        1 DYP     -0.082000
     16 CAC        -0.4430   -1.8860   -0.7050 ca        1 DYP     -0.190500
     17 CAQ         0.4430   -1.8250    0.3950 ca        1 DYP      0.143600
     18 N10         1.8370   -1.7700    0.2260 nh        1 DYP     -0.724600
     19 C9          2.3410   -1.1920   -1.0000 c3        1 DYP      0.151500
     20 C6          3.7630   -0.6900   -0.9000 ca        1 DYP      0.236300
     21 C7          4.7370   -1.2070   -1.8400 ca        1 DYP      0.353900
     22 N8          5.9960   -0.8250   -1.8740 nb        1 DYP     -0.625000
     23 C8A         6.3920    0.1360   -0.9300 ca        1 DYP      0.631000
     24 N1          7.6940    0.5560   -0.9280 nb        1 DYP     -0.773000
     25 C2          8.0300    1.4890    0.0270 ca        1 DYP      0.944900
     26 N2          9.3640    1.8650    0.1040 nh        1 DYP     -0.941500
     27 N3          7.1670    2.0770    0.9560 nb        1 DYP     -0.847000
     28 C4          5.8790    1.6640    0.9590 ca        1 DYP      0.716900
     29 N4          5.0110    2.2120    1.8650 nh        1 DYP     -0.955500
     30 C4A         5.4060    0.6470    0.0050 ca        1 DYP      0.029000
     31 N5          4.1040    0.2220    0.0050 nb        1 DYP     -0.603000
     32 HAY1       -8.0190    4.1700   -1.5280 hc        1 DYP      0.043367
     33 HAY2       -9.6190    3.3460   -1.3710 hc        1 DYP      0.043367
     34 HAY3       -9.1360    4.6210   -0.1690 hc        1 DYP      0.043367
     35 HAX1       -7.2580    3.1480    0.6310 hc        1 DYP      0.063200
     36 HAX2       -8.8760    2.3670    0.8450 hc        1 DYP      0.063200
     37 HAV        -7.1120    0.6180    1.1760 hc        1 DYP      0.058700
     38 HAU1       -8.0540   -1.2020   -0.2110 hc        1 DYP      0.057450
     39 HAU2       -6.8070   -0.9190   -1.4930 hc        1 DYP      0.057450
     40 HAT1       -6.4190   -1.9230    1.4190 h1        1 DYP      0.032950
     41 HAT2       -6.1420   -2.8450   -0.1270 h1        1 DYP      0.032950
     42 HAI1       -5.0610    0.9850   -1.1170 hc        1 DYP      0.057450
     43 HAI2       -5.1830    1.9690    0.4030 hc        1 DYP      0.057450
     44 HAH1       -4.6340    0.0810    1.8200 h1        1 DYP      0.032950
     45 HAH2       -3.3790    0.2100    0.5050 h1        1 DYP      0.032950
     46 HAF1       -4.0190   -2.3510    2.1150 h1        1 DYP      0.036700
     47 HAF2       -4.0530   -3.3960    0.6240 h1        1 DYP      0.036700
     48 HAS        -1.8710   -2.1430    2.9050 ha        1 DYP      0.138000
     49 HAR         0.5560   -1.8700    2.5790 ha        1 DYP      0.131500
     50 HAD        -2.4850   -2.0900   -1.3710 ha        1 DYP      0.138000
     51 HAC        -0.0600   -1.8230   -1.7340 ha        1 DYP      0.131500
     52 H10         2.3200   -1.4730    1.0490 hn        1 DYP      0.406800
     53 H91         2.3030   -1.9990   -1.7900 h1        1 DYP      0.054700
     54 H92         1.6930   -0.3360   -1.3580 h1        1 DYP      0.054700
     55 H7          4.4330   -1.9700   -2.5820 h4        1 DYP      0.038100
     56 HN21        9.9730    1.5940   -0.6300 hn        1 DYP      0.444300
     57 HN22        9.6050    2.6520    0.6550 hn        1 DYP      0.444300
     58 HN41        5.3190    2.9020    2.5060 hn        1 DYP      0.452800
     59 HN42        4.0610    1.9380    1.8670 hn        1 DYP      0.452800
@<TRIPOS>BOND
     1    1    2 1   
     2    1   32 1   
     3    1   33 1   
     4    1   34 1   
     5    2    3 1   
     6    2   35 1   
     7    2   36 1   
     8    3    4 2   
     9    3    5 1   
    10    5    6 1   
    11    5    8 1   
    12    5   37 1   
    13    6    7 1   
    14    6   38 1   
    15    6   39 1   
    16    7   10 1   
    17    7   40 1   
    18    7   41 1   
    19    8    9 1   
    20    8   42 1   
    21    8   43 1   
    22    9   10 1   
    23    9   44 1   
    24    9   45 1   
    25   10   11 1   
    26   11   12 1   
    27   11   46 1   
    28   11   47 1   
    29   12   13 ar  
    30   12   15 ar  
    31   13   14 ar  
    32   13   48 1   
    33   14   17 ar  
    34   14   49 1   
    35   15   16 ar  
    36   15   50 1   
    37   16   17 ar  
    38   16   51 1   
    39   17   18 1   
    40   18   19 1   
    41   18   52 1   
    42   19   20 1   
    43   19   53 1   
    44   19   54 1   
    45   20   21 ar  
    46   20   31 ar  
    47   21   22 ar  
    48   21   55 1   
    49   22   23 ar  
    50   23   24 ar  
    51   23   30 ar  
    52   24   25 ar  
    53   25   26 1   
    54   25   27 ar  
    55   26   56 1   
    56   26   57 1   
    57   27   28 ar  
    58   28   29 1   
    59   28   30 ar  
    60   29   58 1   
    61   29   59 1   
    62   30   31 ar  
@<TRIPOS>SUBSTRUCTURE
     1 DYP         1 TEMP              0 ****  ****    0 ROOT
