@<TRIPOS>MOLECULE
DYP
   59    62     1     0     0
SMALL
bcc


@<TRIPOS>ATOM
      1 CAY        -0.3780   -0.1190    0.9790 c3        1 DYP     -0.089100
      2 CAX         1.1080   -0.1550    0.7370 c3        1 DYP     -0.181400
      3 CAW         1.9110    0.1860    1.9620 c         1 DYP      0.567100
      4 OBF         1.4060    0.6530    2.9860 o         1 DYP     -0.525100
      5 CAV         3.3940   -0.0860    1.8370 c3        1 DYP     -0.166700
      6 CAU         4.2070    0.8930    2.6670 c3        1 DYP     -0.069900
      7 CAT         5.6950    0.5570    2.6090 c3        1 DYP      0.169800
      8 CAI         3.6960   -1.5100    2.2840 c3        1 DYP     -0.069900
      9 CAH         5.1960   -1.7860    2.2200 c3        1 DYP      0.169800
     10 NAG         5.9880   -0.8240    2.9740 n3        1 DYP     -0.728600
     11 CAF         7.4190   -1.1010    2.9090 c3        1 DYP      0.223100
     12 CAE         7.8140   -2.4250    3.4910 ca        1 DYP     -0.130300
     13 CAS         8.6370   -3.2920    2.7670 ca        1 DYP     -0.082000
     14 CAR         9.0550   -4.5000    3.3100 ca        1 DYP     -0.190500
     15 CAD         7.4130   -2.7910    4.7790 ca        1 DYP     -0.082000
     16 CAC         7.8210   -3.9950    5.3400 ca        1 DYP     -0.190500
     17 CAQ         8.6590   -4.8750    4.6170 ca        1 DYP      0.143600
     18 N10         9.1720   -6.0510    5.1900 nh        1 DYP     -0.724600
     19 C9          8.4130   -6.6650    6.2560 c3        1 DYP      0.151500
     20 C6          8.7100   -8.1340    6.4510 ca        1 DYP      0.236300
     21 C7          9.1360   -8.5750    7.7650 ca        1 DYP      0.353900
     22 N8          9.3930   -9.8300    8.0670 nb        1 DYP     -0.625000
     23 C8A         9.2430  -10.7740    7.0390 ca        1 DYP      0.631000
     24 N1          9.5060  -12.0880    7.3110 nb        1 DYP     -0.773000
     25 C2          9.3570  -12.9680    6.2620 ca        1 DYP      0.943900
     26 N2          9.7010  -14.2920    6.4910 nh        1 DYP     -0.941500
     27 N3          8.9210  -12.6570    4.9710 nb        1 DYP     -0.847000
     28 C4          8.6610  -11.3580    4.6960 ca        1 DYP      0.716900
     29 N4          8.2440  -11.0190    3.4370 nh        1 DYP     -0.955500
     30 C4A         8.8140  -10.3190    5.7280 ca        1 DYP      0.030000
     31 N5          8.5570   -9.0020    5.4560 nb        1 DYP     -0.603000
     32 HAY1       -0.6690   -0.8800    1.7420 hc        1 DYP      0.043367
     33 HAY2       -0.9280   -0.3300    0.0310 hc        1 DYP      0.043367
     34 HAY3       -0.6850    0.8850    1.3610 hc        1 DYP      0.043367
     35 HAX1        1.4170   -1.1750    0.3820 hc        1 DYP      0.063200
     36 HAX2        1.3840    0.5780   -0.0680 hc        1 DYP      0.063200
     37 HAV         3.6860    0.0240    0.7550 hc        1 DYP      0.058700
     38 HAU1        4.0620    1.9340    2.2820 hc        1 DYP      0.057450
     39 HAU2        3.8440    0.8680    3.7280 hc        1 DYP      0.057450
     40 HAT1        6.0770    0.8000    1.5730 h1        1 DYP      0.032950
     41 HAT2        6.2390    1.2220    3.3370 h1        1 DYP      0.032950
     42 HAI1        3.3220   -1.6600    3.3300 hc        1 DYP      0.057450
     43 HAI2        3.1710   -2.2420    1.6180 hc        1 DYP      0.057450
     44 HAH1        5.3980   -2.8030    2.6620 h1        1 DYP      0.032950
     45 HAH2        5.5070   -1.8160    1.1330 h1        1 DYP      0.032950
     46 HAF1        7.8020   -1.0380    1.8460 h1        1 DYP      0.036700
     47 HAF2        7.9420   -0.2950    3.5030 h1        1 DYP      0.036700
     48 HAS         8.9620   -3.0200    1.7500 ha        1 DYP      0.138000
     49 HAR         9.7050   -5.1600    2.7180 ha        1 DYP      0.131500
     50 HAD         6.7610   -2.1160    5.3580 ha        1 DYP      0.138000
     51 HAC         7.4930   -4.2480    6.3590 ha        1 DYP      0.131500
     52 H10         9.5240   -6.6960    4.5120 hn        1 DYP      0.406800
     53 H91         8.6740   -6.1190    7.2090 h1        1 DYP      0.054700
     54 H92         7.2980   -6.5540    6.0960 h1        1 DYP      0.054700
     55 H7          9.2620   -7.8360    8.5780 h4        1 DYP      0.038100
     56 HN21        9.8620  -14.5830    7.4260 hn        1 DYP      0.444300
     57 HN22        9.4430  -14.9740    5.8200 hn        1 DYP      0.444300
     58 HN41        8.0290  -10.0770    3.2250 hn        1 DYP      0.452800
     59 HN42        8.1320  -11.7120    2.7390 hn        1 DYP      0.452800
@<TRIPOS>BOND
     1    1    2 1   
     2    1   32 1   
     3    1   33 1   
     4    1   34 1   
     5    2    3 1   
     6    2   35 1   
     7    2   36 1   
     8    3    4 2   
     9    3    5 1   
    10    5    6 1   
    11    5    8 1   
    12    5   37 1   
    13    6    7 1   
    14    6   38 1   
    15    6   39 1   
    16    7   10 1   
    17    7   40 1   
    18    7   41 1   
    19    8    9 1   
    20    8   42 1   
    21    8   43 1   
    22    9   10 1   
    23    9   44 1   
    24    9   45 1   
    25   10   11 1   
    26   11   12 1   
    27   11   46 1   
    28   11   47 1   
    29   12   13 ar  
    30   12   15 ar  
    31   13   14 ar  
    32   13   48 1   
    33   14   17 ar  
    34   14   49 1   
    35   15   16 ar  
    36   15   50 1   
    37   16   17 ar  
    38   16   51 1   
    39   17   18 1   
    40   18   19 1   
    41   18   52 1   
    42   19   20 1   
    43   19   53 1   
    44   19   54 1   
    45   20   21 ar  
    46   20   31 ar  
    47   21   22 ar  
    48   21   55 1   
    49   22   23 ar  
    50   23   24 ar  
    51   23   30 ar  
    52   24   25 ar  
    53   25   26 1   
    54   25   27 ar  
    55   26   56 1   
    56   26   57 1   
    57   27   28 ar  
    58   28   29 1   
    59   28   30 ar  
    60   29   58 1   
    61   29   59 1   
    62   30   31 ar  
@<TRIPOS>SUBSTRUCTURE
     1 DYP         1 TEMP              0 ****  ****    0 ROOT
