@<TRIPOS>MOLECULE
DYP
   62    65     1     0     0
SMALL
bcc


@<TRIPOS>ATOM
      1 CAY        -0.2970    1.4320    2.4310 c3        1 DYP     -0.092100
      2 CAX         1.1790    1.5180    2.1420 c3        1 DYP     -0.175400
      3 CAW         1.9200    0.2680    2.5060 c         1 DYP      0.571100
      4 OBF         1.3970   -0.7130    3.0430 o         1 DYP     -0.530100
      5 CAV         3.4010    0.2680    2.1630 c3        1 DYP     -0.171700
      6 CAU         4.2090   -0.0920    3.4010 c3        1 DYP     -0.072400
      7 CAT         5.6830   -0.3150    3.0700 c3        1 DYP      0.177800
      8 CAI         3.6510   -0.7320    1.0440 c3        1 DYP     -0.072400
      9 CAH         5.1430   -0.9310    0.7850 c3        1 DYP      0.177800
     10 NAG         5.8710   -1.2820    1.9970 n3        1 DYP     -0.771600
     11 CAF         7.2520   -1.6530    1.7780 c3        1 DYP      0.205100
     12 CAE         7.5810   -3.0160    2.3350 ca        1 DYP      0.022700
     13 CAS         8.8980   -3.2890    2.7400 ca        1 DYP     -0.093500
     14 CAR         9.2480   -4.5340    3.2490 ca        1 DYP     -0.099500
     15 CAD         6.6100   -4.0270    2.4360 ca        1 DYP     -0.093500
     16 CAC         6.9350   -5.2790    2.9440 ca        1 DYP     -0.099500
     17 CAQ         8.2590   -5.5290    3.3520 ca        1 DYP     -0.131400
     18 N10         8.6120   -6.8590    3.8790 n4        1 DYP     -0.605400
     19 C9          8.2740   -6.9520    5.3250 c3        1 DYP      0.028500
     20 C6          8.4950   -8.2760    6.0090 ca        1 DYP      0.361300
     21 C7          8.1730   -8.2640    7.4460 ca        1 DYP      0.382900
     22 N8          8.2910   -9.3180    8.2170 nb        1 DYP     -0.510000
     23 C8A         8.7460  -10.4990    7.6130 ca        1 DYP      0.603000
     24 N1          8.8790  -11.6290    8.3940 nb        1 DYP     -0.530000
     25 C2          9.3170  -12.7430    7.7710 ca        1 DYP      0.760900
     26 N2          9.4630  -13.9700    8.6080 n4        1 DYP     -0.817300
     27 N3          9.6490  -12.8760    6.4250 nb        1 DYP     -0.648000
     28 C4          9.5200  -11.7780    5.6680 ca        1 DYP      0.529900
     29 N4          9.8660  -11.8960    4.2360 n4        1 DYP     -0.828300
     30 C4A         9.0630  -10.5090    6.1910 ca        1 DYP      0.175000
     31 N5          8.9300   -9.3750    5.4050 nb        1 DYP     -0.680000
     32 HAY1       -0.7630    0.6030    1.8470 hc        1 DYP      0.050700
     33 HAY2       -0.4730    1.2330    3.5160 hc        1 DYP      0.050700
     34 HAY3       -0.7970    2.3920    2.1550 hc        1 DYP      0.050700
     35 HAX1        1.3470    1.7210    1.0500 hc        1 DYP      0.071200
     36 HAX2        1.6340    2.3720    2.7140 hc        1 DYP      0.071200
     37 HAV         3.7040    1.2930    1.8130 hc        1 DYP      0.071700
     38 HAU1        4.1420    0.7360    4.1530 hc        1 DYP      0.065450
     39 HAU2        3.7740   -1.0160    3.8660 hc        1 DYP      0.065450
     40 HAT1        6.2030   -0.7080    3.9880 h1        1 DYP      0.038700
     41 HAT2        6.1520    0.6790    2.8080 h1        1 DYP      0.038700
     42 HAI1        3.1790   -0.3660    0.0950 hc        1 DYP      0.065450
     43 HAI2        3.1740   -1.7110    1.3120 hc        1 DYP      0.065450
     44 HAH1        5.2690   -1.7710    0.0450 h1        1 DYP      0.038700
     45 HAH2        5.5600    0.0080    0.3160 h1        1 DYP      0.038700
     46 HAF1        7.4920   -1.6970    0.6720 h1        1 DYP      0.076700
     47 HAF2        7.9660   -0.9050    2.2390 h1        1 DYP      0.076700
     48 HAS         9.6710   -2.5040    2.6560 ha        1 DYP      0.195500
     49 HAR        10.2900   -4.7170    3.5580 ha        1 DYP      0.149500
     50 HAD         5.5690   -3.8260    2.1160 ha        1 DYP      0.195500
     51 HAC         6.1530   -6.0520    3.0100 ha        1 DYP      0.149500
     52 H10         8.0870   -7.5650    3.3480 hn        1 DYP      0.455800
     53 H91         8.8820   -6.1630    5.8740 hx        1 DYP      0.162200
     54 H92         7.1770   -6.6750    5.4420 hx        1 DYP      0.162200
     55 H7          7.8090   -7.3270    7.9340 h4        1 DYP      0.117100
     56 HN21        8.8520  -14.7180    8.2380 hn        1 DYP      0.512800
     57 HN22       10.4470  -14.2900    8.5870 hn        1 DYP      0.512800
     58 HN41       10.6270  -11.2330    4.0180 hn        1 DYP      0.503133
     59 HN42        9.0340  -11.6650    3.6700 hn        1 DYP      0.503133
     60 H102        9.6170   -7.0130    3.7390 hn        1 DYP      0.455800
     61 H23         9.1930  -13.7670    9.5900 hn        1 DYP      0.512800
     62 H43        10.1790  -12.8550    3.9930 hn        1 DYP      0.503133
@<TRIPOS>BOND
     1    1    2 1   
     2    1   32 1   
     3    1   33 1   
     4    1   34 1   
     5    2    3 1   
     6    2   35 1   
     7    2   36 1   
     8    3    4 2   
     9    3    5 1   
    10    5    6 1   
    11    5    8 1   
    12    5   37 1   
    13    6    7 1   
    14    6   38 1   
    15    6   39 1   
    16    7   10 1   
    17    7   40 1   
    18    7   41 1   
    19    8    9 1   
    20    8   42 1   
    21    8   43 1   
    22    9   10 1   
    23    9   44 1   
    24    9   45 1   
    25   10   11 1   
    26   11   12 1   
    27   11   46 1   
    28   11   47 1   
    29   12   13 ar  
    30   12   15 ar  
    31   13   14 ar  
    32   13   48 1   
    33   14   17 ar  
    34   14   49 1   
    35   15   16 ar  
    36   15   50 1   
    37   16   17 ar  
    38   16   51 1   
    39   17   18 1   
    40   18   19 1   
    41   18   52 1   
    42   18   60 1   
    43   19   20 1   
    44   19   53 1   
    45   19   54 1   
    46   20   21 ar  
    47   20   31 ar  
    48   21   22 ar  
    49   21   55 1   
    50   22   23 ar  
    51   23   24 ar  
    52   23   30 ar  
    53   24   25 ar  
    54   25   26 1   
    55   25   27 ar  
    56   26   56 1   
    57   26   57 1   
    58   26   61 1   
    59   27   28 ar  
    60   28   29 1   
    61   28   30 ar  
    62   29   58 1   
    63   29   59 1   
    64   29   62 1   
    65   30   31 ar  
@<TRIPOS>SUBSTRUCTURE
     1 DYP         1 TEMP              0 ****  ****    0 ROOT
