@<TRIPOS>MOLECULE
DYS
   33    33     1     0     0
SMALL
bcc


@<TRIPOS>ATOM
      1 O           5.3650   -0.6300   -0.2660 o         1 DYS     -0.827300
      2 C           4.2270   -0.7250    0.2680 c         1 DYS      0.897600
      3 CA          3.2940    0.5460    0.2070 c3        1 DYS      0.012500
      4 N           3.7760    1.6020   -0.6720 n3        1 DYS     -0.886800
      5 CB          1.8890    0.0720   -0.1240 c3        1 DYS      0.020700
      6 SG          0.7740    1.3750    0.3540 ss        1 DYS     -0.228000
      7 CXP        -0.7860    0.8270   -0.0080 ca        1 DYS     -0.014100
      8 CXH        -1.1130   -0.5140   -0.2450 ca        1 DYS     -0.146000
      9 CXQ        -1.8230    1.7780   -0.0640 ca        1 DYS      0.036100
     10 OXF        -1.6370    3.1320    0.1410 oh        1 DYS     -0.530100
     11 CXO        -3.1490    1.3790   -0.3260 ca        1 DYS      0.110100
     12 OXE        -4.1910    2.2800   -0.3750 oh        1 DYS     -0.511100
     13 CXG        -3.4540    0.0320   -0.5410 ca        1 DYS     -0.160000
     14 CXN        -2.4260   -0.9150   -0.5040 ca        1 DYS     -0.068300
     15 CXJ        -2.7350   -2.3490   -0.7580 c3        1 DYS     -0.031100
     16 CXI        -2.3860   -3.2080    0.4610 c3        1 DYS      0.153800
     17 NXA        -2.8140   -4.5820    0.3230 n3        1 DYS     -0.915800
     18 OXT         3.7810   -1.7400    0.8650 o         1 DYS     -0.827300
     19 HA          3.2910    0.9730    1.2540 h1        1 DYS      0.059700
     20 HN1         4.7620    1.7090   -0.4900 hn        1 DYS      0.336300
     21 HN2         3.6980    1.2900   -1.6240 hn        1 DYS      0.336300
     22 HB1         1.7700   -0.1660   -1.2060 h1        1 DYS      0.080200
     23 HB2         1.6920   -0.8550    0.4730 h1        1 DYS      0.080200
     24 HXH        -0.3160   -1.2750   -0.2230 ha        1 DYS      0.151000
     25 HOXF       -0.6880    3.3150    0.0260 ho        1 DYS      0.444000
     26 HOXE       -3.8180    3.1670   -0.2570 ho        1 DYS      0.431000
     27 HXG        -4.4940   -0.2600   -0.7390 ha        1 DYS      0.139000
     28 HXJ1       -3.8220   -2.4670   -1.0130 hc        1 DYS      0.049700
     29 HXJ2       -2.1440   -2.7050   -1.6450 hc        1 DYS      0.049700
     30 HXI1       -1.2660   -3.2090    0.5910 h1        1 DYS      0.036700
     31 HXI2       -2.8260   -2.7120    1.3770 h1        1 DYS      0.036700
     32 HXA1       -2.5300   -5.1120    1.1220 hn        1 DYS      0.341800
     33 HXA2       -3.8080   -4.6370    0.2290 hn        1 DYS      0.341800
@<TRIPOS>BOND
     1    1    2 1   
     2    2    3 1   
     3    2   18 1   
     4    3    4 1   
     5    3    5 1   
     6    3   19 1   
     7    4   20 1   
     8    4   21 1   
     9    5    6 1   
    10    5   22 1   
    11    5   23 1   
    12    6    7 1   
    13    7    8 ar  
    14    7    9 ar  
    15    8   14 ar  
    16    8   24 1   
    17    9   10 1   
    18    9   11 ar  
    19   10   25 1   
    20   11   12 1   
    21   11   13 ar  
    22   12   26 1   
    23   13   14 ar  
    24   13   27 1   
    25   14   15 1   
    26   15   16 1   
    27   15   28 1   
    28   15   29 1   
    29   16   17 1   
    30   16   30 1   
    31   16   31 1   
    32   17   32 1   
    33   17   33 1   
@<TRIPOS>SUBSTRUCTURE
     1 DYS         1 TEMP              0 ****  ****    0 ROOT
