@<TRIPOS>MOLECULE
DYY
   48    51     1     0     0
SMALL
bcc


@<TRIPOS>ATOM
      1 CAY        -3.4430    0.3870    0.7760 ca        1 DYY     -0.004000
      2 CAZ        -4.3550   -0.6360    0.5160 ca        1 DYY      0.020100
      3 OBA        -4.8370   -1.3630    1.5950 os        1 DYY     -0.311900
      4 CBB        -6.0510   -2.0600    1.2950 c3        1 DYY      0.089400
      5 CAO        -5.9370   -2.8050   -0.0240 c3        1 DYY      0.088400
      6 OAN        -5.6520   -1.9150   -1.1120 os        1 DYY     -0.309900
      7 CAM        -4.7390   -0.9280   -0.8080 ca        1 DYY      0.126100
      8 CAL        -4.2180   -0.1770   -1.8720 ca        1 DYY     -0.154000
      9 CAK        -3.3100    0.8370   -1.5950 ca        1 DYY     -0.016000
     10 CAX        -2.9040    1.1240   -0.2840 ca        1 DYY     -0.387500
     11 SAW        -1.8190    2.3810    0.0180 sy        1 DYY      1.513200
     12 OBD        -1.8690    3.2800   -1.0710 o         1 DYY     -0.649800
     13 OAJ        -2.0900    2.9070    1.2990 o         1 DYY     -0.649800
     14 NAV        -0.3700    1.6320    0.0360 n3        1 DYY     -0.812500
     15 CAU         0.4390    1.4780   -1.1450 c3        1 DYY      0.209300
     16 CAT         1.9190    1.8790   -0.9360 c3        1 DYY      0.211800
     17 CAI         0.2090    1.0920    1.2380 c3        1 DYY      0.209300
     18 CAH         1.6880    1.4940    1.4460 c3        1 DYY      0.211800
     19 NAG         2.4990    1.3380    0.2660 n3        1 DYY     -0.812500
     20 SAF         3.9360    0.5900    0.2840 sy        1 DYY      1.507200
     21 OAS         4.7310    1.0310   -0.7890 o         1 DYY     -0.633800
     22 OAB         4.5060    0.6550    1.5680 o         1 DYY     -0.633800
     23 CAE         3.5220   -1.0530   -0.0180 ca        1 DYY     -0.429500
     24 CAD         3.2600   -1.9630    1.0340 ca        1 DYY      0.257400
     25 FAA         3.2110   -1.5180    2.3100 f         1 DYY     -0.112900
     26 CAC         3.0370   -3.3320    0.7990 ca        1 DYY     -0.210000
     27 CAP         3.0480   -3.8150   -0.5040 ca        1 DYY     -0.025000
     28 CAQ         3.2590   -2.9520   -1.5730 ca        1 DYY     -0.210000
     29 CAR         3.4820   -1.5850   -1.3290 ca        1 DYY      0.257400
     30 FBC         3.6510   -0.7660   -2.3910 f         1 DYY     -0.112900
     31 HAY        -3.1670    0.6180    1.8200 ha        1 DYY      0.169000
     32 HBB        -6.1760   -2.7680    2.1560 h1        1 DYY      0.076200
     33 HBBA       -6.8960   -1.3220    1.2660 h1        1 DYY      0.076200
     34 HAO        -5.1220   -3.5740    0.0220 h1        1 DYY      0.075700
     35 HAOA       -6.9110   -3.2790   -0.3150 h1        1 DYY      0.075700
     36 HAL        -4.5370   -0.3970   -2.9010 ha        1 DYY      0.160000
     37 HAK        -2.9080    1.4440   -2.4260 ha        1 DYY      0.159000
     38 HAU         0.4010    0.4020   -1.4840 h1        1 DYY      0.059450
     39 HAUA        0.0240    2.1280   -1.9680 h1        1 DYY      0.059450
     40 HAT         2.5090    1.5170   -1.8280 h1        1 DYY      0.068700
     41 HATA        1.9860    3.0050   -0.9010 h1        1 DYY      0.068700
     42 HAI        -0.3730    1.4640    2.1310 h1        1 DYY      0.059450
     43 HAIA        0.1400   -0.0340    1.2110 h1        1 DYY      0.059450
     44 HAH         1.7260    2.5720    1.7780 h1        1 DYY      0.068700
     45 HAHA        2.1120    0.8540    2.2740 h1        1 DYY      0.068700
     46 HAC         2.8570   -4.0030    1.6520 ha        1 DYY      0.162000
     47 HAP         2.8820   -4.8880   -0.6910 ha        1 DYY      0.150000
     48 HAQ         3.2560   -3.3220   -2.6090 ha        1 DYY      0.162000
@<TRIPOS>BOND
     1    1    2 ar  
     2    1   10 ar  
     3    1   31 1   
     4    2    3 1   
     5    2    7 ar  
     6    3    4 1   
     7    4    5 1   
     8    4   32 1   
     9    4   33 1   
    10    5    6 1   
    11    5   34 1   
    12    5   35 1   
    13    6    7 1   
    14    7    8 ar  
    15    8    9 ar  
    16    8   36 1   
    17    9   10 ar  
    18    9   37 1   
    19   10   11 1   
    20   11   12 2   
    21   11   13 2   
    22   11   14 1   
    23   14   15 1   
    24   14   17 1   
    25   15   16 1   
    26   15   38 1   
    27   15   39 1   
    28   16   19 1   
    29   16   40 1   
    30   16   41 1   
    31   17   18 1   
    32   17   42 1   
    33   17   43 1   
    34   18   19 1   
    35   18   44 1   
    36   18   45 1   
    37   19   20 1   
    38   20   21 2   
    39   20   22 2   
    40   20   23 1   
    41   23   24 ar  
    42   23   29 ar  
    43   24   25 1   
    44   24   26 ar  
    45   26   27 ar  
    46   26   46 1   
    47   27   28 ar  
    48   27   47 1   
    49   28   29 ar  
    50   28   48 1   
    51   29   30 1   
@<TRIPOS>SUBSTRUCTURE
     1 DYY         1 TEMP              0 ****  ****    0 ROOT
