@<TRIPOS>MOLECULE
DYY
   48    51     1     0     0
SMALL
bcc


@<TRIPOS>ATOM
      1 CAY        -0.0890    0.0390   -0.0050 ca        1 DYY     -0.004000
      2 CAZ         1.3040    0.1240   -0.0090 ca        1 DYY      0.020100
      3 OBA         1.9500    0.2170    1.2150 os        1 DYY     -0.311900
      4 CBB         3.3350   -0.1380    1.1380 c3        1 DYY      0.089400
      5 CAO         4.0080    0.5550   -0.0340 c3        1 DYY      0.088400
      6 OAN         3.3880    0.2090   -1.2810 os        1 DYY     -0.309900
      7 CAM         2.0120    0.1470   -1.2270 ca        1 DYY      0.126100
      8 CAL         1.3190    0.0640   -2.4440 ca        1 DYY     -0.154000
      9 CAK        -0.0670   -0.0190   -2.4210 ca        1 DYY     -0.016000
     10 CAX        -0.7850   -0.0220   -1.2170 ca        1 DYY     -0.387500
     11 SAW        -2.4680   -0.1520   -1.2270 sy        1 DYY      1.513200
     12 OBD        -2.8600   -0.7440   -2.4480 o         1 DYY     -0.649800
     13 OAJ        -2.8730   -0.7990   -0.0400 o         1 DYY     -0.649800
     14 NAV        -2.9660    1.4020   -1.1940 n3        1 DYY     -0.812500
     15 CAU        -3.2160    2.1620   -2.3900 c3        1 DYY      0.208800
     16 CAT        -4.5660    2.9170   -2.3710 c3        1 DYY      0.211800
     17 CAI        -3.2100    2.1110    0.0340 c3        1 DYY      0.208800
     18 CAH        -4.5600    2.8660    0.0530 c3        1 DYY      0.211800
     19 NAG        -4.8110    3.6290   -1.1430 n3        1 DYY     -0.812500
     20 SAF        -5.3010    5.1730   -1.1100 sy        1 DYY      1.507200
     21 OAS        -5.9730    5.4990   -2.3010 o         1 DYY     -0.633800
     22 OAB        -5.9730    5.4470    0.0950 o         1 DYY     -0.633800
     23 CAE        -3.8210    6.0510   -1.0910 ca        1 DYY     -0.429500
     24 CAD        -3.1950    6.4340    0.1190 ca        1 DYY      0.257400
     25 FAA        -3.6940    6.0030    1.2990 f         1 DYY     -0.112900
     26 CAC        -2.0500    7.2510    0.1410 ca        1 DYY     -0.210000
     27 CAP        -1.4920    7.6840   -1.0560 ca        1 DYY     -0.025000
     28 CAQ        -2.0480    7.2990   -2.2710 ca        1 DYY     -0.210000
     29 CAR        -3.1930    6.4820   -2.2840 ca        1 DYY      0.257400
     30 FBC        -3.6900    6.0980   -3.4810 f         1 DYY     -0.112900
     31 HAY        -0.6290    0.0010    0.9570 ha        1 DYY      0.169000
     32 HBB         3.7570    0.2100    2.1170 h1        1 DYY      0.076200
     33 HBBA        3.4200   -1.2520    1.0460 h1        1 DYY      0.076200
     34 HAO         5.0690    0.2140   -0.1600 h1        1 DYY      0.075700
     35 HAOA        3.9620    1.6690    0.0820 h1        1 DYY      0.075700
     36 HAL         1.8800    0.0610   -3.3900 ha        1 DYY      0.160000
     37 HAK        -0.6190   -0.1020   -3.3750 ha        1 DYY      0.159000
     38 HAU        -3.2290    1.4660   -3.2790 h1        1 DYY      0.059450
     39 HAUA       -2.3840    2.9110   -2.5350 h1        1 DYY      0.059450
     40 HAT        -4.5700    3.6490   -3.2310 h1        1 DYY      0.068700
     41 HATA       -5.3980    2.1740   -2.5360 h1        1 DYY      0.068700
     42 HAI        -2.3780    2.8540    0.2060 h1        1 DYY      0.059450
     43 HAIA       -3.2190    1.3790    0.8920 h1        1 DYY      0.059450
     44 HAH        -5.3920    2.1160    0.1900 h1        1 DYY      0.068700
     45 HAHA       -4.5610    3.5610    0.9430 h1        1 DYY      0.068700
     46 HAC        -1.6100    7.5380    1.1080 ha        1 DYY      0.162000
     47 HAP        -0.6010    8.3310   -1.0430 ha        1 DYY      0.150000
     48 HAQ        -1.6070    7.6240   -3.2250 ha        1 DYY      0.162000
@<TRIPOS>BOND
     1    1    2 ar  
     2    1   10 ar  
     3    1   31 1   
     4    2    3 1   
     5    2    7 ar  
     6    3    4 1   
     7    4    5 1   
     8    4   32 1   
     9    4   33 1   
    10    5    6 1   
    11    5   34 1   
    12    5   35 1   
    13    6    7 1   
    14    7    8 ar  
    15    8    9 ar  
    16    8   36 1   
    17    9   10 ar  
    18    9   37 1   
    19   10   11 1   
    20   11   12 2   
    21   11   13 2   
    22   11   14 1   
    23   14   15 1   
    24   14   17 1   
    25   15   16 1   
    26   15   38 1   
    27   15   39 1   
    28   16   19 1   
    29   16   40 1   
    30   16   41 1   
    31   17   18 1   
    32   17   42 1   
    33   17   43 1   
    34   18   19 1   
    35   18   44 1   
    36   18   45 1   
    37   19   20 1   
    38   20   21 2   
    39   20   22 2   
    40   20   23 1   
    41   23   24 ar  
    42   23   29 ar  
    43   24   25 1   
    44   24   26 ar  
    45   26   27 ar  
    46   26   46 1   
    47   27   28 ar  
    48   27   47 1   
    49   28   29 ar  
    50   28   48 1   
    51   29   30 1   
@<TRIPOS>SUBSTRUCTURE
     1 DYY         1 TEMP              0 ****  ****    0 ROOT
