@<TRIPOS>MOLECULE
DYY
   48    44     1     0     0
SMALL
bcc


@<TRIPOS>ATOM
      1 CAY         2.5150    2.6830   -0.2300 c1        1 DYY     -0.005000
      2 CAZ         3.8700    2.9340   -0.4680 c1        1 DYY     -0.023000
      3 OBA         4.2940    4.0280   -1.3510 o         1 DYY     -0.194000
      4 CBB         5.5920    4.2970   -1.4010 c3        1 DYY     -0.061000
      5 CAO         6.3440    4.1400   -0.1620 c3        1 DYY     -0.062000
      6 OAN         6.2250    2.9840    0.4580 os        1 DYY     -0.193000
      7 CAM         4.8990    2.3310    0.4140 c2        1 DYY      0.081000
      8 CAL         4.5150    1.5220    1.4660 c1        1 DYY     -0.152000
      9 CAK         3.1280    1.2670    1.7060 c1        1 DYY     -0.017000
     10 CAX         2.1270    1.8510    0.8530 c1        1 DYY     -0.832000
     11 SAW         0.4070    1.7970    1.3530 s4        1 DYY      2.068800
     12 OBD         0.2880    1.7270    2.7770 o         1 DYY     -0.539900
     13 OAJ        -0.2520    3.0370    1.0790 o         1 DYY     -0.539900
     14 NAV        -0.3800    0.5120    0.6110 n2        1 DYY     -0.834000
     15 CAU        -0.1140   -0.8270    1.0240 c3        1 DYY     -0.024500
     16 CAT        -1.2390   -1.7770    0.6570 c3        1 DYY     -0.027500
     17 CAI        -0.7460    0.6040   -0.7800 c3        1 DYY     -0.024500
     18 CAH        -1.8620   -0.3330   -1.1430 c3        1 DYY     -0.027500
     19 NAG        -1.6000   -1.6840   -0.7310 n3        1 DYY     -0.836000
     20 SAF        -2.3920   -2.9200   -1.4560 s4        1 DYY      2.064800
     21 OAS        -2.6170   -2.6480   -2.8690 o         1 DYY     -0.525900
     22 OAB        -1.5750   -4.0950   -1.5270 o         1 DYY     -0.525900
     23 CAE        -3.9170   -3.2490   -0.6120 c1        1 DYY     -0.873000
     24 CAD        -4.0740   -4.4450    0.0970 c2        1 DYY      0.227000
     25 FAA        -3.0510   -5.3690    0.1200 f         1 DYY     -0.069000
     26 CAC        -5.2910   -4.7560    0.6630 c1        1 DYY     -0.211000
     27 CAP        -6.3720   -3.8750    0.5300 c1        1 DYY     -0.115500
     28 CAQ        -6.2180   -2.6820   -0.1750 c1        1 DYY     -0.115500
     29 CAR        -4.9970   -2.3680   -0.7450 c1        1 DYY      0.221000
     30 FBC        -4.8900   -1.2890   -1.5480 f         1 DYY     -0.088000
     31 HAY         1.8160    3.0910   -0.8280 ha        1 DYY      0.169000
     32 HBB         5.6970    5.2490   -1.7080 h1        1 DYY      0.114500
     33 HBBA        5.9820    3.7340   -2.0510 h1        1 DYY      0.114500
     34 HAO         6.0390    4.8390    0.4570 h1        1 DYY      0.116000
     35 HAOA        7.3410    4.2650   -0.3900 h1        1 DYY      0.116000
     36 HAL         5.1810    1.1310    2.0370 ha        1 DYY      0.160000
     37 HAK         2.8550    0.6870    2.4610 ha        1 DYY      0.158000
     38 HAU         0.7010   -1.1290    0.6030 h1        1 DYY      0.102500
     39 HAUA        0.0150   -0.8390    2.0560 h1        1 DYY      0.102500
     40 HAT        -0.9580   -2.6740    0.8450 h1        1 DYY      0.105250
     41 HATA       -2.0020   -1.5740    1.1910 h1        1 DYY      0.105250
     42 HAI         0.0300    0.3940   -1.3240 h1        1 DYY      0.102500
     43 HAIA       -1.0340    1.5350   -0.9750 h1        1 DYY      0.102500
     44 HAH        -1.9830   -0.3160   -2.1030 h1        1 DYY      0.105250
     45 HAHA       -2.7060   -0.0170   -0.7040 h1        1 DYY      0.105250
     46 HAC        -5.4020   -5.6020    1.1630 ha        1 DYY      0.162000
     47 HAP        -7.2240   -4.0930    0.9270 ha        1 DYY      0.156000
     48 HAQ        -6.9620   -2.0770   -0.2670 ha        1 DYY      0.156000
@<TRIPOS>BOND
     1    1    2 1   
     2    1   31 1   
     3    2    7 1   
     4    3    4 1   
     5    4    5 1   
     6    4   32 1   
     7    4   33 1   
     8    5    6 1   
     9    5   34 1   
    10    5   35 1   
    11    6    7 1   
    12    7    8 1   
    13    8   36 1   
    14    9   10 1   
    15    9   37 1   
    16   10   11 1   
    17   11   12 1   
    18   11   13 1   
    19   14   15 1   
    20   14   17 1   
    21   15   16 1   
    22   15   38 1   
    23   15   39 1   
    24   16   19 1   
    25   16   40 1   
    26   16   41 1   
    27   17   18 1   
    28   17   42 1   
    29   17   43 1   
    30   18   19 1   
    31   18   44 1   
    32   18   45 1   
    33   19   20 1   
    34   20   21 1   
    35   20   22 1   
    36   23   24 1   
    37   23   29 1   
    38   24   25 1   
    39   24   26 1   
    40   26   46 1   
    41   27   28 1   
    42   27   47 1   
    43   28   48 1   
    44   29   30 1   
@<TRIPOS>SUBSTRUCTURE
     1 DYY         1 TEMP              0 ****  ****    0 ROOT
