@<TRIPOS>MOLECULE
DYY
   48    51     1     0     0
SMALL
bcc


@<TRIPOS>ATOM
      1 CAY        -0.0830    0.0410   -0.0080 ca        1 DYY     -0.004000
      2 CAZ         1.3090    0.1300   -0.0110 ca        1 DYY      0.020100
      3 OBA         1.9550    0.2230    1.2130 os        1 DYY     -0.311900
      4 CBB         3.3410   -0.1290    1.1360 c3        1 DYY      0.089400
      5 CAO         4.0120    0.5670   -0.0360 c3        1 DYY      0.088400
      6 OAN         3.3930    0.2220   -1.2830 os        1 DYY     -0.309900
      7 CAM         2.0180    0.1550   -1.2290 ca        1 DYY      0.126100
      8 CAL         1.3250    0.0720   -2.4460 ca        1 DYY     -0.154000
      9 CAK        -0.0610   -0.0150   -2.4240 ca        1 DYY     -0.016000
     10 CAX        -0.7790   -0.0200   -1.2200 ca        1 DYY     -0.387500
     11 SAW        -2.4620   -0.1540   -1.2300 sy        1 DYY      1.513200
     12 OBD        -2.8520   -0.7460   -2.4520 o         1 DYY     -0.649800
     13 OAJ        -2.8650   -0.8030   -0.0440 o         1 DYY     -0.649800
     14 NAV        -2.9630    1.3990   -1.1960 n3        1 DYY     -0.812500
     15 CAU        -3.2110    2.1610   -2.3910 c3        1 DYY      0.209300
     16 CAT        -4.5630    2.9130   -2.3730 c3        1 DYY      0.211800
     17 CAI        -3.2120    2.1050    0.0330 c3        1 DYY      0.209300
     18 CAH        -4.5630    2.8570    0.0500 c3        1 DYY      0.211800
     19 NAG        -4.8120    3.6220   -1.1450 n3        1 DYY     -0.812500
     20 SAF        -5.3070    5.1650   -1.1100 sy        1 DYY      1.507200
     21 OAS        -5.9770    5.4910   -2.3020 o         1 DYY     -0.633800
     22 OAB        -5.9810    5.4360    0.0940 o         1 DYY     -0.633800
     23 CAE        -3.8290    6.0460   -1.0870 ca        1 DYY     -0.429500
     24 CAD        -3.2050    6.4270    0.1240 ca        1 DYY      0.257400
     25 FAA        -3.7040    5.9920    1.3020 f         1 DYY     -0.112900
     26 CAC        -2.0610    7.2470    0.1490 ca        1 DYY     -0.210000
     27 CAP        -1.5040    7.6830   -1.0470 ca        1 DYY     -0.025000
     28 CAQ        -2.0570    7.3000   -2.2630 ca        1 DYY     -0.210000
     29 CAR        -3.2000    6.4810   -2.2790 ca        1 DYY      0.257400
     30 FBC        -3.6950    6.0980   -3.4770 f         1 DYY     -0.112900
     31 HAY        -0.6240    0.0010    0.9540 ha        1 DYY      0.169000
     32 HBB         3.4290   -1.2430    1.0430 h1        1 DYY      0.076200
     33 HBBA        3.7620    0.2190    2.1150 h1        1 DYY      0.076200
     34 HAO         3.9640    1.6820    0.0820 h1        1 DYY      0.075700
     35 HAOA        5.0740    0.2300   -0.1620 h1        1 DYY      0.075700
     36 HAL         1.8860    0.0720   -3.3920 ha        1 DYY      0.160000
     37 HAK        -0.6130   -0.0980   -3.3780 ha        1 DYY      0.159000
     38 HAU        -2.3810    2.9120   -2.5320 h1        1 DYY      0.059450
     39 HAUA       -3.2210    1.4660   -3.2810 h1        1 DYY      0.059450
     40 HAT        -5.3940    2.1680   -2.5420 h1        1 DYY      0.068700
     41 HATA       -4.5670    3.6460   -3.2320 h1        1 DYY      0.068700
     42 HAI        -3.2210    1.3710    0.8900 h1        1 DYY      0.059450
     43 HAIA       -2.3810    2.8490    0.2090 h1        1 DYY      0.059450
     44 HAH        -4.5670    3.5510    0.9410 h1        1 DYY      0.068700
     45 HAHA       -5.3940    2.1050    0.1840 h1        1 DYY      0.068700
     46 HAC        -1.6230    7.5320    1.1170 ha        1 DYY      0.162000
     47 HAP        -0.6130    8.3330   -1.0310 ha        1 DYY      0.150000
     48 HAQ        -1.6150    7.6290   -3.2160 ha        1 DYY      0.162000
@<TRIPOS>BOND
     1    1    2 ar  
     2    1   10 ar  
     3    1   31 1   
     4    2    3 1   
     5    2    7 ar  
     6    3    4 1   
     7    4    5 1   
     8    4   32 1   
     9    4   33 1   
    10    5    6 1   
    11    5   34 1   
    12    5   35 1   
    13    6    7 1   
    14    7    8 ar  
    15    8    9 ar  
    16    8   36 1   
    17    9   10 ar  
    18    9   37 1   
    19   10   11 1   
    20   11   12 2   
    21   11   13 2   
    22   11   14 1   
    23   14   15 1   
    24   14   17 1   
    25   15   16 1   
    26   15   38 1   
    27   15   39 1   
    28   16   19 1   
    29   16   40 1   
    30   16   41 1   
    31   17   18 1   
    32   17   42 1   
    33   17   43 1   
    34   18   19 1   
    35   18   44 1   
    36   18   45 1   
    37   19   20 1   
    38   20   21 2   
    39   20   22 2   
    40   20   23 1   
    41   23   24 ar  
    42   23   29 ar  
    43   24   25 1   
    44   24   26 ar  
    45   26   27 ar  
    46   26   46 1   
    47   27   28 ar  
    48   27   47 1   
    49   28   29 ar  
    50   28   48 1   
    51   29   30 1   
@<TRIPOS>SUBSTRUCTURE
     1 DYY         1 TEMP              0 ****  ****    0 ROOT
