@<TRIPOS>MOLECULE
DYY
   48    51     1     0     0
SMALL
bcc


@<TRIPOS>ATOM
      1 CAY        -0.0890    0.0410   -0.0050 ca        1 DYY     -0.004000
      2 CAZ         1.3040    0.1270   -0.0090 ca        1 DYY      0.020100
      3 OBA         1.9500    0.2220    1.2150 os        1 DYY     -0.311900
      4 CBB         3.3360   -0.1330    1.1380 c3        1 DYY      0.089400
      5 CAO         4.0080    0.5580   -0.0360 c3        1 DYY      0.088400
      6 OAN         3.3880    0.2100   -1.2820 os        1 DYY     -0.309900
      7 CAM         2.0120    0.1470   -1.2280 ca        1 DYY      0.126100
      8 CAL         1.3190    0.0620   -2.4440 ca        1 DYY     -0.154000
      9 CAK        -0.0670   -0.0220   -2.4210 ca        1 DYY     -0.016000
     10 CAX        -0.7850   -0.0220   -1.2170 ca        1 DYY     -0.387500
     11 SAW        -2.4680   -0.1520   -1.2260 sy        1 DYY      1.513200
     12 OBD        -2.8590   -0.7460   -2.4470 o         1 DYY     -0.649800
     13 OAJ        -2.8720   -0.7990   -0.0380 o         1 DYY     -0.649800
     14 NAV        -2.9660    1.4010   -1.1940 n3        1 DYY     -0.812500
     15 CAU        -3.2130    2.1620   -2.3900 c3        1 DYY      0.209300
     16 CAT        -4.5630    2.9170   -2.3740 c3        1 DYY      0.211800
     17 CAI        -3.2130    2.1100    0.0340 c3        1 DYY      0.209300
     18 CAH        -4.5630    2.8650    0.0500 c3        1 DYY      0.211800
     19 NAG        -4.8110    3.6280   -1.1460 n3        1 DYY     -0.812500
     20 SAF        -5.3010    5.1730   -1.1140 sy        1 DYY      1.507200
     21 OAS        -5.9700    5.4990   -2.3070 o         1 DYY     -0.633800
     22 OAB        -5.9760    5.4460    0.0900 o         1 DYY     -0.633800
     23 CAE        -3.8210    6.0500   -1.0910 ca        1 DYY     -0.429500
     24 CAD        -3.1980    6.4320    0.1210 ca        1 DYY      0.257400
     25 FAA        -3.7000    6.0010    1.2990 f         1 DYY     -0.112900
     26 CAC        -2.0520    7.2490    0.1460 ca        1 DYY     -0.210000
     27 CAP        -1.4920    7.6820   -1.0500 ca        1 DYY     -0.025000
     28 CAQ        -2.0450    7.2980   -2.2670 ca        1 DYY     -0.210000
     29 CAR        -3.1900    6.4810   -2.2820 ca        1 DYY      0.257400
     30 FBC        -3.6840    6.0980   -3.4800 f         1 DYY     -0.112900
     31 HAY        -0.6280    0.0050    0.9570 ha        1 DYY      0.169000
     32 HBB         3.7580    0.2170    2.1160 h1        1 DYY      0.076200
     33 HBBA        3.4210   -1.2470    1.0480 h1        1 DYY      0.076200
     34 HAO         3.9620    1.6730    0.0780 h1        1 DYY      0.075700
     35 HAOA        5.0690    0.2180   -0.1610 h1        1 DYY      0.075700
     36 HAL         1.8800    0.0580   -3.3900 ha        1 DYY      0.160000
     37 HAK        -0.6200   -0.1070   -3.3740 ha        1 DYY      0.159000
     38 HAU        -3.2250    1.4660   -3.2790 h1        1 DYY      0.059450
     39 HAUA       -2.3810    2.9100   -2.5330 h1        1 DYY      0.059450
     40 HAT        -4.5650    3.6490   -3.2340 h1        1 DYY      0.068700
     41 HATA       -5.3950    2.1730   -2.5410 h1        1 DYY      0.068700
     42 HAI        -3.2240    1.3770    0.8920 h1        1 DYY      0.059450
     43 HAIA       -2.3810    2.8530    0.2080 h1        1 DYY      0.059450
     44 HAH        -5.3950    2.1150    0.1850 h1        1 DYY      0.068700
     45 HAHA       -4.5660    3.5600    0.9400 h1        1 DYY      0.068700
     46 HAC        -1.6150    7.5350    1.1140 ha        1 DYY      0.162000
     47 HAP        -0.6000    8.3290   -1.0340 ha        1 DYY      0.150000
     48 HAQ        -1.6010    7.6240   -3.2190 ha        1 DYY      0.162000
@<TRIPOS>BOND
     1    1    2 ar  
     2    1   10 ar  
     3    1   31 1   
     4    2    3 1   
     5    2    7 ar  
     6    3    4 1   
     7    4    5 1   
     8    4   32 1   
     9    4   33 1   
    10    5    6 1   
    11    5   34 1   
    12    5   35 1   
    13    6    7 1   
    14    7    8 ar  
    15    8    9 ar  
    16    8   36 1   
    17    9   10 ar  
    18    9   37 1   
    19   10   11 1   
    20   11   12 2   
    21   11   13 2   
    22   11   14 1   
    23   14   15 1   
    24   14   17 1   
    25   15   16 1   
    26   15   38 1   
    27   15   39 1   
    28   16   19 1   
    29   16   40 1   
    30   16   41 1   
    31   17   18 1   
    32   17   42 1   
    33   17   43 1   
    34   18   19 1   
    35   18   44 1   
    36   18   45 1   
    37   19   20 1   
    38   20   21 2   
    39   20   22 2   
    40   20   23 1   
    41   23   24 ar  
    42   23   29 ar  
    43   24   25 1   
    44   24   26 ar  
    45   26   27 ar  
    46   26   46 1   
    47   27   28 ar  
    48   27   47 1   
    49   28   29 ar  
    50   28   48 1   
    51   29   30 1   
@<TRIPOS>SUBSTRUCTURE
     1 DYY         1 TEMP              0 ****  ****    0 ROOT
