@<TRIPOS>MOLECULE
DZ1
   33    34     1     0     0
SMALL
bcc


@<TRIPOS>ATOM
      1 CAA         4.0710    1.3670    2.0950 c3        1 DZ1     -0.069300
      2 CAN         4.6690    0.4360    1.1100 ca        1 DZ1     -0.033300
      3 CAH         5.9920    0.0060    1.2640 ca        1 DZ1     -0.141000
      4 CAG         6.5620   -0.8650    0.3380 ca        1 DZ1     -0.102000
      5 CAI         5.8220   -1.3150   -0.7530 ca        1 DZ1     -0.141000
      6 CAO         4.4970   -0.9000   -0.9270 ca        1 DZ1     -0.033300
      7 CAB         3.7160   -1.3780   -2.0920 c3        1 DZ1     -0.069300
      8 CAT         3.9270   -0.0270    0.0120 ca        1 DZ1     -0.155600
      9 CAM         2.5210    0.4510   -0.1800 c         1 DZ1      0.688700
     10 OAC         2.2590    1.5870   -0.6080 o         1 DZ1     -0.577100
     11 NAL         1.5440   -0.4800    0.1580 n         1 DZ1     -0.470100
     12 CAR         0.1510   -0.3100    0.1230 ca        1 DZ1      0.037600
     13 CAJ        -0.6630   -1.3410    0.6470 ca        1 DZ1     -0.103500
     14 CAP        -2.0510   -1.2430    0.6360 ca        1 DZ1     -0.061400
     15 BRAE       -3.0320   -2.6720    1.3540 br        1 DZ1     -0.064600
     16 CAS        -2.6660   -0.0940    0.0960 ca        1 DZ1      0.157100
     17 OAD        -4.0360   -0.0490    0.1120 oh        1 DZ1     -0.476100
     18 CAQ        -1.8630    0.9380   -0.4260 ca        1 DZ1     -0.061400
     19 BRAF       -2.6220    2.4920   -1.1590 br        1 DZ1     -0.064600
     20 CAK        -0.4740    0.8330   -0.4150 ca        1 DZ1     -0.103500
     21 HAA         3.4560    2.1470    1.5770 hc        1 DZ1      0.054867
     22 HAAA        3.4060    0.8060    2.8000 hc        1 DZ1      0.054867
     23 HAAB        4.8620    1.8800    2.6950 hc        1 DZ1      0.054867
     24 HAH         6.5830    0.3640    2.1200 ha        1 DZ1      0.138500
     25 HAG         7.6040   -1.1960    0.4670 ha        1 DZ1      0.137000
     26 HAI         6.2790   -1.9950   -1.4860 ha        1 DZ1      0.138500
     27 HAB         3.0400   -2.2160   -1.7850 hc        1 DZ1      0.054867
     28 HABA        3.0850   -0.5540   -2.5110 hc        1 DZ1      0.054867
     29 HABB        4.3900   -1.7520   -2.9010 hc        1 DZ1      0.054867
     30 HNAL        1.8620   -1.3610    0.4990 hn        1 DZ1      0.323500
     31 HAJ        -0.1970   -2.2460    1.0740 ha        1 DZ1      0.171000
     32 HOAD       -4.3200    0.7920   -0.2850 ho        1 DZ1      0.435000
     33 HAK         0.1360    1.6570   -0.8310 ha        1 DZ1      0.171000
@<TRIPOS>BOND
     1    1    2 1   
     2    1   21 1   
     3    1   22 1   
     4    1   23 1   
     5    2    3 ar  
     6    2    8 ar  
     7    3    4 ar  
     8    3   24 1   
     9    4    5 ar  
    10    4   25 1   
    11    5    6 ar  
    12    5   26 1   
    13    6    7 1   
    14    6    8 ar  
    15    7   27 1   
    16    7   28 1   
    17    7   29 1   
    18    8    9 1   
    19    9   10 2   
    20    9   11 1   
    21   11   12 1   
    22   11   30 1   
    23   12   13 ar  
    24   12   20 ar  
    25   13   14 ar  
    26   13   31 1   
    27   14   15 1   
    28   14   16 ar  
    29   16   17 1   
    30   16   18 ar  
    31   17   32 1   
    32   18   19 1   
    33   18   20 ar  
    34   20   33 1   
@<TRIPOS>SUBSTRUCTURE
     1 DZ1         1 TEMP              0 ****  ****    0 ROOT
