@<TRIPOS>MOLECULE
DZ1
   33    34     1     0     0
SMALL
bcc


@<TRIPOS>ATOM
      1 CAA         0.0340   -0.1980    0.2910 c3        1 DZ1     -0.069300
      2 CAN         1.5090   -0.1540    0.1540 ca        1 DZ1     -0.033300
      3 CAH         2.3240   -0.3120    1.2810 ca        1 DZ1     -0.141000
      4 CAG         3.7110   -0.2670    1.1610 ca        1 DZ1     -0.102000
      5 CAI         4.3020   -0.0610   -0.0840 ca        1 DZ1     -0.141000
      6 CAO         3.5080    0.0960   -1.2260 ca        1 DZ1     -0.033300
      7 CAB         4.1430    0.3200   -2.5470 c3        1 DZ1     -0.069300
      8 CAT         2.1120    0.0450   -1.0970 ca        1 DZ1     -0.155600
      9 CAM         1.2510    0.2450   -2.3050 c         1 DZ1      0.688700
     10 OAC         0.6620    1.3160   -2.5300 o         1 DZ1     -0.577100
     11 NAL         1.1710   -0.8590   -3.1470 n         1 DZ1     -0.470100
     12 CAR         0.4130   -0.9860   -4.3220 ca        1 DZ1      0.037600
     13 CAJ         0.3540   -2.2540   -4.9480 ca        1 DZ1     -0.103500
     14 CAP        -0.3690   -2.4490   -6.1210 ca        1 DZ1     -0.061400
     15 BRAE       -0.3750   -4.1700   -6.8650 br        1 DZ1     -0.064600
     16 CAS        -1.0610   -1.3660   -6.7020 ca        1 DZ1      0.157100
     17 OAD        -1.7580   -1.6150   -7.8570 oh        1 DZ1     -0.476100
     18 CAQ        -1.0090   -0.1010   -6.0870 ca        1 DZ1     -0.061400
     19 BRAF       -1.9080    1.3790   -6.8130 br        1 DZ1     -0.064600
     20 CAK        -0.2810    0.0880   -4.9130 ca        1 DZ1     -0.103500
     21 HAA        -0.2750   -0.0330    1.3520 hc        1 DZ1      0.054867
     22 HAAA       -0.3530   -1.1960   -0.0360 hc        1 DZ1      0.054867
     23 HAAB       -0.4430    0.5910   -0.3450 hc        1 DZ1      0.054867
     24 HAH         1.8620   -0.4670    2.2680 ha        1 DZ1      0.138500
     25 HAG         4.3430   -0.3900    2.0530 ha        1 DZ1      0.137000
     26 HAI         5.3980   -0.0170   -0.1730 ha        1 DZ1      0.138500
     27 HAB         3.5690    1.0770   -3.1380 hc        1 DZ1      0.054867
     28 HABA        5.1930    0.6840   -2.4310 hc        1 DZ1      0.054867
     29 HABB        4.1660   -0.6360   -3.1280 hc        1 DZ1      0.054867
     30 HNAL        1.6750   -1.6730   -2.8700 hn        1 DZ1      0.323500
     31 HAJ         0.8890   -3.1110   -4.5040 ha        1 DZ1      0.171000
     32 HOAD       -2.1840   -0.7880   -8.1420 ho        1 DZ1      0.435000
     33 HAK        -0.2540    1.0910   -4.4480 ha        1 DZ1      0.171000
@<TRIPOS>BOND
     1    1    2 1   
     2    1   21 1   
     3    1   22 1   
     4    1   23 1   
     5    2    3 ar  
     6    2    8 ar  
     7    3    4 ar  
     8    3   24 1   
     9    4    5 ar  
    10    4   25 1   
    11    5    6 ar  
    12    5   26 1   
    13    6    7 1   
    14    6    8 ar  
    15    7   27 1   
    16    7   28 1   
    17    7   29 1   
    18    8    9 1   
    19    9   10 2   
    20    9   11 1   
    21   11   12 1   
    22   11   30 1   
    23   12   13 ar  
    24   12   20 ar  
    25   13   14 ar  
    26   13   31 1   
    27   14   15 1   
    28   14   16 ar  
    29   16   17 1   
    30   16   18 ar  
    31   17   32 1   
    32   18   19 1   
    33   18   20 ar  
    34   20   33 1   
@<TRIPOS>SUBSTRUCTURE
     1 DZ1         1 TEMP              0 ****  ****    0 ROOT
