@<TRIPOS>MOLECULE
DZ1
   33    34     1     0     0
SMALL
bcc


@<TRIPOS>ATOM
      1 CAA         0.0380   -0.1970    0.2950 c3        1 DZ1     -0.069300
      2 CAN         1.5130   -0.1550    0.1550 ca        1 DZ1     -0.033300
      3 CAH         2.3300   -0.3140    1.2800 ca        1 DZ1     -0.141000
      4 CAG         3.7160   -0.2700    1.1570 ca        1 DZ1     -0.102000
      5 CAI         4.3050   -0.0650   -0.0880 ca        1 DZ1     -0.141000
      6 CAO         3.5090    0.0930   -1.2290 ca        1 DZ1     -0.033300
      7 CAB         4.1420    0.3160   -2.5500 c3        1 DZ1     -0.069300
      8 CAT         2.1140    0.0430   -1.0970 ca        1 DZ1     -0.155600
      9 CAM         1.2500    0.2450   -2.3040 c         1 DZ1      0.688700
     10 OAC         0.6610    1.3160   -2.5260 o         1 DZ1     -0.577100
     11 NAL         1.1680   -0.8590   -3.1460 ns        1 DZ1     -0.470100
     12 CAR         0.4110   -0.9850   -4.3210 ca        1 DZ1      0.037600
     13 CAJ         0.3610   -2.2490   -4.9550 ca        1 DZ1     -0.103500
     14 CAP        -0.3610   -2.4420   -6.1280 ca        1 DZ1     -0.061400
     15 BrAE       -0.3550   -4.1600   -6.8820 br        1 DZ1     -0.064600
     16 CAS        -1.0630   -1.3630   -6.7020 ca        1 DZ1      0.157100
     17 OAD        -1.7600   -1.6100   -7.8570 oh        1 DZ1     -0.476100
     18 CAQ        -1.0210   -0.1010   -6.0790 ca        1 DZ1     -0.061400
     19 BrAF       -1.9340    1.3760   -6.7940 br        1 DZ1     -0.064600
     20 CAK        -0.2930    0.0870   -4.9050 ca        1 DZ1     -0.103500
     21 HAA        -0.2690   -0.0350    1.3570 hc        1 DZ1      0.054867
     22 HAAA       -0.3510   -1.1940   -0.0340 hc        1 DZ1      0.054867
     23 HAAB       -0.4390    0.5940   -0.3380 hc        1 DZ1      0.054867
     24 HAH         1.8690   -0.4690    2.2680 ha        1 DZ1      0.138500
     25 HAG         4.3500   -0.3940    2.0490 ha        1 DZ1      0.137000
     26 HAI         5.4010   -0.0230   -0.1790 ha        1 DZ1      0.138500
     27 HAB         5.1920    0.6800   -2.4370 hc        1 DZ1      0.054867
     28 HABA        4.1630   -0.6400   -3.1320 hc        1 DZ1      0.054867
     29 HABB        3.5680    1.0740   -3.1410 hc        1 DZ1      0.054867
     30 HNAL        1.6750   -1.6720   -2.8710 hn        1 DZ1      0.323500
     31 HAJ         0.9040   -3.1040   -4.5170 ha        1 DZ1      0.171000
     32 HOAD       -2.1930   -0.7850   -8.1360 ho        1 DZ1      0.435000
     33 HAK        -0.2750    1.0880   -4.4330 ha        1 DZ1      0.171000
@<TRIPOS>BOND
     1    1    2 1   
     2    1   21 1   
     3    1   22 1   
     4    1   23 1   
     5    2    3 ar  
     6    2    8 ar  
     7    3    4 ar  
     8    3   24 1   
     9    4    5 ar  
    10    4   25 1   
    11    5    6 ar  
    12    5   26 1   
    13    6    7 1   
    14    6    8 ar  
    15    7   27 1   
    16    7   28 1   
    17    7   29 1   
    18    8    9 1   
    19    9   10 2   
    20    9   11 1   
    21   11   12 1   
    22   11   30 1   
    23   12   13 ar  
    24   12   20 ar  
    25   13   14 ar  
    26   13   31 1   
    27   14   15 1   
    28   14   16 ar  
    29   16   17 1   
    30   16   18 ar  
    31   17   32 1   
    32   18   19 1   
    33   18   20 ar  
    34   20   33 1   
@<TRIPOS>SUBSTRUCTURE
     1 DZ1         1 TEMP              0 ****  ****    0 ROOT
