@<TRIPOS>MOLECULE
DZ1
   33    30     1     0     0
SMALL
bcc


@<TRIPOS>ATOM
      1 CAA        -1.7420    0.5430    3.0290 c3        1 DZ1     -0.197000
      2 CAN        -0.2290    0.4850    3.0000 c2        1 DZ1     -0.020000
      3 CAH         0.4910    0.5780    4.1810 c2        1 DZ1     -0.141000
      4 CAG         1.8770    0.5730    4.1500 c1        1 DZ1     -0.103000
      5 CAI         2.5440    0.4750    2.9380 c1        1 DZ1     -0.141000
      6 CAO         1.8250    0.3810    1.7570 c1        1 DZ1     -0.032000
      7 CAB         2.5500    0.3800    0.4310 c2        1 DZ1     -0.192000
      8 CAT         0.4360    0.3860    1.7880 c2        1 DZ1     -0.135000
      9 CAM        -0.3520    0.1780    0.5040 c2        1 DZ1      0.362000
     10 OAC        -1.5640    0.0990    0.5420 o         1 DZ1     -0.336000
     11 NAL         0.3330   -0.0240   -0.7250 n         1 DZ1     -0.325000
     12 CAR        -0.3990   -0.3180   -1.9050 c2        1 DZ1      0.047000
     13 CAJ        -1.1450    0.6750   -2.5230 c2        1 DZ1     -0.104500
     14 CAP        -1.8070    0.4060   -3.7100 c1        1 DZ1     -0.202000
     15 BRAE       -2.7900    1.7900   -4.5900 br        1 DZ1      0.075500
     16 CAS        -1.7240   -0.8540   -4.2800 c2        1 DZ1      0.112000
     17 OAD        -2.4200   -1.1350   -5.4700 oh        1 DZ1     -0.228000
     18 CAQ        -0.9780   -1.8460   -3.6620 c1        1 DZ1     -0.202000
     19 BRAF       -0.8120   -3.5650   -4.4810 br        1 DZ1      0.075500
     20 CAK        -0.3160   -1.5780   -2.4750 c2        1 DZ1     -0.104500
     21 HAA        -2.0480    1.3300    2.5310 hc        1 DZ1      0.096000
     22 HAAA       -2.0480    0.6040    3.9580 hc        1 DZ1      0.096000
     23 HAAB       -2.1080   -0.2680    2.6170 hc        1 DZ1      0.096000
     24 HAH         0.0210    0.6470    5.0350 ha        1 DZ1      0.139000
     25 HAG         2.3840    0.6390    4.9820 ha        1 DZ1      0.136000
     26 HAI         3.5190    0.4710    2.9170 ha        1 DZ1      0.138000
     27 HAB         2.1170    1.0140   -0.1780 ha        1 DZ1      0.092333
     28 HABA        3.4840    0.6460    0.5690 ha        1 DZ1      0.092333
     29 HABB        2.5200   -0.5180    0.0430 ha        1 DZ1      0.092333
     30 HNAL        1.2390   -0.0190   -0.7440 hn        1 DZ1      0.237000
     31 HAJ        -1.2140    1.5590   -2.1150 ha        1 DZ1      0.171000
     32 HOAD       -1.8530   -1.4560   -6.0760 ho        1 DZ1      0.232000
     33 HAK         0.2100   -2.2760   -2.0400 ha        1 DZ1      0.171000
@<TRIPOS>BOND
     1    1    2 1   
     2    1   21 1   
     3    1   22 1   
     4    1   23 1   
     5    2    3 1   
     6    2    8 1   
     7    3    4 1   
     8    3   24 1   
     9    4   25 1   
    10    5    6 1   
    11    5   26 1   
    12    6    8 1   
    13    7   27 1   
    14    7   28 1   
    15    7   29 1   
    16    8    9 1   
    17    9   10 1   
    18    9   11 1   
    19   11   12 1   
    20   11   30 1   
    21   12   13 1   
    22   12   20 1   
    23   13   14 1   
    24   13   31 1   
    25   14   16 1   
    26   16   17 1   
    27   16   18 1   
    28   17   32 1   
    29   18   20 1   
    30   20   33 1   
@<TRIPOS>SUBSTRUCTURE
     1 DZ1         1 TEMP              0 ****  ****    0 ROOT
