@<TRIPOS>MOLECULE
DZ1
   34    35     1     0     0
SMALL
bcc


@<TRIPOS>ATOM
      1 CAA         0.3670   -0.4400    0.6700 c3        1 DZ1     -0.083800
      2 CAN         1.6850   -0.4230   -0.0080 ca        1 DZ1     -0.014800
      3 CAH         2.7960   -0.9560    0.6500 ca        1 DZ1     -0.129500
      4 CAG         4.0570   -0.9240    0.0520 ca        1 DZ1     -0.056000
      5 CAI         4.2240   -0.3490   -1.2040 ca        1 DZ1     -0.129500
      6 CAO         3.1310    0.2010   -1.8880 ca        1 DZ1     -0.014800
      7 CAB         3.3500    0.8350   -3.2080 c3        1 DZ1     -0.083800
      8 CAT         1.8620    0.1450   -1.2850 ca        1 DZ1     -0.210600
      9 CAM         0.7160    0.7410   -1.9800 c         1 DZ1      0.600700
     10 OAC         0.4760    1.8930   -2.2960 o         1 DZ1     -0.405100
     11 NAL        -0.3780   -0.2690   -2.3660 n4        1 DZ1     -0.547200
     12 CAR        -0.2230   -0.7390   -3.7420 ca        1 DZ1     -0.107400
     13 CAJ         0.1990   -2.0580   -3.9900 ca        1 DZ1     -0.030500
     14 CAP         0.3300   -2.5180   -5.2950 ca        1 DZ1     -0.092400
     15 BRAE        0.8930   -4.2830   -5.5490 br        1 DZ1      0.007400
     16 CAS         0.0330   -1.6450   -6.3750 ca        1 DZ1      0.244100
     17 OAD         0.1760   -2.1520   -7.6250 oh        1 DZ1     -0.439100
     18 CAQ        -0.3870   -0.3170   -6.1190 ca        1 DZ1     -0.092400
     19 BRAF       -0.7850    0.8740   -7.5050 br        1 DZ1      0.007400
     20 CAK        -0.5110    0.1300   -4.8080 ca        1 DZ1     -0.030500
     21 HAA         0.4990   -0.3390    1.7790 hc        1 DZ1      0.063700
     22 HAAA       -0.2850    0.4050    0.3360 hc        1 DZ1      0.063700
     23 HAAB       -0.1600   -1.4110    0.4860 hc        1 DZ1      0.063700
     24 HAH         2.6750   -1.3970    1.6540 ha        1 DZ1      0.165000
     25 HAG         4.9260   -1.3490    0.5830 ha        1 DZ1      0.166000
     26 HAI         5.2230   -0.3130   -1.6690 ha        1 DZ1      0.165000
     27 HAB         4.1090    0.2640   -3.8000 hc        1 DZ1      0.063700
     28 HABA        2.4080    0.8940   -3.8070 hc        1 DZ1      0.063700
     29 HABB        3.7370    1.8780   -3.0630 hc        1 DZ1      0.063700
     30 HNAL       -1.2990    0.1800   -2.2810 hn        1 DZ1      0.459800
     31 HAJ         0.4290   -2.7410   -3.1520 ha        1 DZ1      0.174000
     32 HOAD       -0.0630   -1.4750   -8.2870 ho        1 DZ1      0.462000
     33 HAK        -0.8310    1.1710   -4.6110 ha        1 DZ1      0.174000
     34 HAL2       -0.3320   -1.0690   -1.7240 hn        1 DZ1      0.459800
@<TRIPOS>BOND
     1    1    2 1   
     2    1   21 1   
     3    1   22 1   
     4    1   23 1   
     5    2    3 ar  
     6    2    8 ar  
     7    3    4 ar  
     8    3   24 1   
     9    4    5 ar  
    10    4   25 1   
    11    5    6 ar  
    12    5   26 1   
    13    6    7 1   
    14    6    8 ar  
    15    7   27 1   
    16    7   28 1   
    17    7   29 1   
    18    8    9 1   
    19    9   10 2   
    20    9   11 1   
    21   11   12 1   
    22   11   30 1   
    23   11   34 1   
    24   12   13 ar  
    25   12   20 ar  
    26   13   14 ar  
    27   13   31 1   
    28   14   15 1   
    29   14   16 ar  
    30   16   17 1   
    31   16   18 ar  
    32   17   32 1   
    33   18   19 1   
    34   18   20 ar  
    35   20   33 1   
@<TRIPOS>SUBSTRUCTURE
     1 DZ1         1 TEMP              0 ****  ****    0 ROOT
