@<TRIPOS>MOLECULE
DZ2
   28    29     1     0     0
SMALL
bcc


@<TRIPOS>ATOM
      1 CAJ         0.2180   -0.5240   -0.1640 ca        1 DZ2     -0.025500
      2 CAQ         1.5700   -0.7370    0.0870 ca        1 DZ2     -0.089400
      3 BRAE        2.5860   -1.6130   -1.2170 br        1 DZ2      0.006400
      4 CAP         2.1400   -0.2970    1.3060 ca        1 DZ2      0.248100
      5 OAB         3.4470   -0.4710    1.6210 oh        1 DZ2     -0.438100
      6 CAR         1.3350    0.3660    2.2690 ca        1 DZ2     -0.089400
      7 BRAF        2.0110    0.9800    3.9000 br        1 DZ2      0.006400
      8 CAK        -0.0140    0.5720    2.0040 ca        1 DZ2     -0.025500
      9 CAS        -0.5750    0.1360    0.7890 ca        1 DZ2     -0.103400
     10 NAL        -1.9890    0.3740    0.5170 n4        1 DZ2     -0.542200
     11 CAM        -2.9160   -0.7780    0.8840 c         1 DZ2      0.559700
     12 OAA        -2.4250   -1.7480    1.4360 o         1 DZ2     -0.372100
     13 CAT        -4.3330   -0.5480    0.5600 ca        1 DZ2     -0.192600
     14 CAI        -5.2590   -0.8910    1.5580 ca        1 DZ2     -0.054000
     15 CAN        -6.6290   -0.7390    1.3200 ca        1 DZ2      0.016400
     16 CLAC       -7.7350   -1.1390    2.5300 cl        1 DZ2     -0.007400
     17 CAG        -7.0800   -0.2630    0.0820 ca        1 DZ2     -0.055000
     18 CAH        -6.1610    0.0590   -0.9160 ca        1 DZ2     -0.098000
     19 CAO        -4.7900   -0.0780   -0.6830 ca        1 DZ2      0.032400
     20 CLAD       -3.7150    0.2990   -1.9480 cl        1 DZ2     -0.061400
     21 HAJ        -0.2190   -0.8780   -1.1150 ha        1 DZ2      0.166500
     22 HOAB        3.9040   -0.9430    0.8980 ho        1 DZ2      0.462000
     23 HAK        -0.6390    1.0830    2.7600 ha        1 DZ2      0.166500
     24 HNAL       -2.1170    0.5660   -0.4960 hn        1 DZ2      0.467300
     25 HAI        -4.9020   -1.2910    2.5240 ha        1 DZ2      0.181000
     26 HAG        -8.1610   -0.1480   -0.1110 ha        1 DZ2      0.186000
     27 HAH        -6.5220    0.4180   -1.8960 ha        1 DZ2      0.185000
     28 HAL2       -2.2950    1.2020    1.0440 hn        1 DZ2      0.467300
@<TRIPOS>BOND
     1    1    2 ar  
     2    1    9 ar  
     3    1   21 1   
     4    2    3 1   
     5    2    4 ar  
     6    4    5 1   
     7    4    6 ar  
     8    5   22 1   
     9    6    7 1   
    10    6    8 ar  
    11    8    9 ar  
    12    8   23 1   
    13    9   10 1   
    14   10   11 1   
    15   10   24 1   
    16   10   28 1   
    17   11   12 2   
    18   11   13 1   
    19   13   14 ar  
    20   13   19 ar  
    21   14   15 ar  
    22   14   25 1   
    23   15   16 1   
    24   15   17 ar  
    25   17   18 ar  
    26   17   26 1   
    27   18   19 ar  
    28   18   27 1   
    29   19   20 1   
@<TRIPOS>SUBSTRUCTURE
     1 DZ2         1 TEMP              0 ****  ****    0 ROOT
