@<TRIPOS>MOLECULE
DZ2
   27    28     1     0     0
SMALL
bcc


@<TRIPOS>ATOM
      1 CAJ        -1.0800    0.5630   -0.8830 ca        1 DZ2     -0.097000
      2 CAQ        -2.4720    0.6300   -0.8990 ca        1 DZ2     -0.063400
      3 BRAE       -3.2870    1.7210   -2.1920 br        1 DZ2     -0.062600
      4 CAP        -3.2360   -0.1040    0.0290 ca        1 DZ2      0.162100
      5 OAB        -4.6060   -0.0810    0.0630 oh        1 DZ2     -0.475100
      6 CAR        -2.5810   -0.9120    0.9820 ca        1 DZ2     -0.063400
      7 BRAF       -3.5080   -1.9260    2.2570 br        1 DZ2     -0.062600
      8 CAK        -1.1900   -0.9710    0.9950 ca        1 DZ2     -0.097000
      9 CAS        -0.4160   -0.2390    0.0650 ca        1 DZ2      0.033600
     10 NAL         0.9840   -0.3690    0.1140 n         1 DZ2     -0.458100
     11 CAM         1.9150    0.4570   -0.4980 c         1 DZ2      0.683700
     12 OAA         1.6110    1.3770   -1.2770 o         1 DZ2     -0.569100
     13 CAT         3.3500    0.1320   -0.2190 ca        1 DZ2     -0.132600
     14 CAI         4.1730   -0.1270   -1.3190 ca        1 DZ2     -0.072000
     15 CAN         5.5260   -0.4140   -1.1220 ca        1 DZ2      0.010400
     16 CLAC        6.5210   -0.7390   -2.4570 cl        1 DZ2     -0.069400
     17 CAG         6.0660   -0.4320    0.1690 ca        1 DZ2     -0.098000
     18 CAH         5.2500   -0.1600    1.2630 ca        1 DZ2     -0.120000
     19 CAO         3.8910    0.1200    1.0740 ca        1 DZ2      0.033400
     20 CLAD        2.9330    0.4640    2.4340 cl        1 DZ2     -0.072400
     21 HAJ        -0.5000    1.1500   -1.6200 ha        1 DZ2      0.170500
     22 HOAB       -4.9210    0.5140   -0.6390 ho        1 DZ2      0.436000
     23 HAK        -0.6910   -1.6050    1.7480 ha        1 DZ2      0.170500
     24 HNAL        1.3290   -1.0370    0.7690 hn        1 DZ2      0.325500
     25 HAI         3.7460   -0.0890   -2.3360 ha        1 DZ2      0.171000
     26 HAG         7.1340   -0.6550    0.3230 ha        1 DZ2      0.158000
     27 HAH         5.6760   -0.1620    2.2790 ha        1 DZ2      0.159000
@<TRIPOS>BOND
     1    1    2 ar  
     2    1    9 ar  
     3    1   21 1   
     4    2    3 1   
     5    2    4 ar  
     6    4    5 1   
     7    4    6 ar  
     8    5   22 1   
     9    6    7 1   
    10    6    8 ar  
    11    8    9 ar  
    12    8   23 1   
    13    9   10 1   
    14   10   11 1   
    15   10   24 1   
    16   11   12 2   
    17   11   13 1   
    18   13   14 ar  
    19   13   19 ar  
    20   14   15 ar  
    21   14   25 1   
    22   15   16 1   
    23   15   17 ar  
    24   17   18 ar  
    25   17   26 1   
    26   18   19 ar  
    27   18   27 1   
    28   19   20 1   
@<TRIPOS>SUBSTRUCTURE
     1 DZ2         1 TEMP              0 ****  ****    0 ROOT
