@<TRIPOS>MOLECULE
DZ2
   27    28     1     0     0
SMALL
bcc


@<TRIPOS>ATOM
      1 CAJ         0.1660    0.3830    0.1390 ca        1 DZ2     -0.097000
      2 CAQ         1.5520    0.3860    0.2770 ca        1 DZ2     -0.063400
      3 BrAE        2.5620    1.3360   -0.9900 br        1 DZ2     -0.062600
      4 CAP         2.1680   -0.3040    1.3390 ca        1 DZ2      0.162100
      5 OAB         3.5250   -0.3370    1.5300 oh        1 DZ2     -0.475100
      6 CAR         1.3690   -1.0040    2.2670 ca        1 DZ2     -0.063400
      7 BrAF        2.0940   -1.9500    3.7150 br        1 DZ2     -0.062600
      8 CAK        -0.0150   -1.0060    2.1210 ca        1 DZ2     -0.097000
      9 CAS        -0.6420   -0.3140    1.0590 ca        1 DZ2      0.033600
     10 NAL        -2.0460   -0.3320    0.9880 ns        1 DZ2     -0.458100
     11 CAM        -2.8260    0.0310   -0.1010 c         1 DZ2      0.683700
     12 OAA        -2.3650    0.5320   -1.1410 o         1 DZ2     -0.569100
     13 CAT        -4.3020   -0.1570    0.0710 ca        1 DZ2     -0.132600
     14 CAI        -5.1140    0.9700   -0.0990 ca        1 DZ2     -0.072000
     15 CAN        -6.5000    0.8510    0.0270 ca        1 DZ2      0.010400
     16 ClAC       -7.4820    2.2200   -0.1690 cl        1 DZ2     -0.069400
     17 CAG        -7.0830   -0.3890    0.3090 ca        1 DZ2     -0.098000
     18 CAH        -6.2760   -1.5120    0.4640 ca        1 DZ2     -0.120000
     19 CAO        -4.8850   -1.4000    0.3480 ca        1 DZ2      0.033400
     20 ClAD       -3.9380   -2.7980    0.5270 cl        1 DZ2     -0.072400
     21 HAJ        -0.2970    0.9290   -0.7050 ha        1 DZ2      0.170500
     22 HOAB        3.9480    0.1770    0.8200 ho        1 DZ2      0.436000
     23 HAK        -0.6270   -1.5600    2.8530 ha        1 DZ2      0.170500
     24 HNAL       -2.5070   -0.7820    1.7490 hn        1 DZ2      0.325500
     25 HAI        -4.6490    1.9400   -0.3440 ha        1 DZ2      0.171000
     26 HAG        -8.1770   -0.4820    0.4050 ha        1 DZ2      0.158000
     27 HAH        -6.7350   -2.4910    0.6760 ha        1 DZ2      0.159000
@<TRIPOS>BOND
     1    1    2 ar  
     2    1    9 ar  
     3    1   21 1   
     4    2    3 1   
     5    2    4 ar  
     6    4    5 1   
     7    4    6 ar  
     8    5   22 1   
     9    6    7 1   
    10    6    8 ar  
    11    8    9 ar  
    12    8   23 1   
    13    9   10 1   
    14   10   11 1   
    15   10   24 1   
    16   11   12 2   
    17   11   13 1   
    18   13   14 ar  
    19   13   19 ar  
    20   14   15 ar  
    21   14   25 1   
    22   15   16 1   
    23   15   17 ar  
    24   17   18 ar  
    25   17   26 1   
    26   18   19 ar  
    27   18   27 1   
    28   19   20 1   
@<TRIPOS>SUBSTRUCTURE
     1 DZ2         1 TEMP              0 ****  ****    0 ROOT
