@<TRIPOS>MOLECULE
DZ3
   34    35     1     0     0
SMALL
bcc


@<TRIPOS>ATOM
      1 CAA         0.0660    0.3060   -0.1530 c3        1 DZ3     -0.051300
      2 CAN         1.5270    0.0640   -0.1090 ca        1 DZ3     -0.133300
      3 CAJ         2.1880   -0.0330    1.1180 ca        1 DZ3     -0.061000
      4 CAS         2.2770   -0.0790   -1.2920 ca        1 DZ3      0.147100
      5 OAD         1.7230    0.0030   -2.5460 oh        1 DZ3     -0.492100
      6 CAO         3.6690   -0.3230   -1.2530 ca        1 DZ3     -0.133300
      7 CAB         4.4230   -0.4840   -2.5160 c3        1 DZ3     -0.051300
      8 CAK         4.2990   -0.4080   -0.0130 ca        1 DZ3     -0.061000
      9 CAU         3.5670   -0.2560    1.1680 ca        1 DZ3     -0.180600
     10 CAM         4.2040   -0.3600    2.5130 c         1 DZ3      0.686700
     11 OAC         3.6310   -0.9310    3.4590 o         1 DZ3     -0.586100
     12 NAL         5.4580    0.2270    2.6380 n         1 DZ3     -0.469100
     13 CAR         6.2400    0.3040    3.8030 ca        1 DZ3      0.037600
     14 CAH         6.0120   -0.5040    4.9340 ca        1 DZ3     -0.100000
     15 CAP         6.8360   -0.4010    6.0530 ca        1 DZ3     -0.062400
     16 BRAF        6.4680   -1.5100    7.5240 br        1 DZ3     -0.065600
     17 CAT         7.9110    0.5080    6.0700 ca        1 DZ3      0.158100
     18 OAE         8.7580    0.6540    7.1390 oh        1 DZ3     -0.476100
     19 CAQ         8.1510    1.3200    4.9430 ca        1 DZ3     -0.062400
     20 BRAG        9.5570    2.5580    4.8670 br        1 DZ3     -0.065600
     21 CAI         7.3210    1.2160    3.8300 ca        1 DZ3     -0.100000
     22 HAA        -0.1590    1.2560   -0.7020 hc        1 DZ3      0.049867
     23 HAAA       -0.4560   -0.5370   -0.6730 hc        1 DZ3      0.049867
     24 HAAB       -0.3570    0.3920    0.8780 hc        1 DZ3      0.049867
     25 HAJ         1.6210    0.0550    2.0600 ha        1 DZ3      0.148500
     26 HOAD        0.7690    0.1470   -2.4540 ho        1 DZ3      0.426000
     27 HAB         4.3400    0.4470   -3.1320 hc        1 DZ3      0.049867
     28 HABA        3.9910   -1.3270   -3.1130 hc        1 DZ3      0.049867
     29 HABB        5.5030   -0.6950   -2.3230 hc        1 DZ3      0.049867
     30 HAK         5.3800   -0.6190    0.0190 ha        1 DZ3      0.148500
     31 HNAL        5.7970    0.7470    1.8590 hn        1 DZ3      0.321500
     32 HAH         5.1710   -1.2220    4.9420 ha        1 DZ3      0.170500
     33 HOAE        8.4760    0.0410    7.8400 ho        1 DZ3      0.435000
     34 HAI         7.5180    1.8610    2.9560 ha        1 DZ3      0.170500
@<TRIPOS>BOND
     1    1    2 1   
     2    1   22 1   
     3    1   23 1   
     4    1   24 1   
     5    2    3 ar  
     6    2    4 ar  
     7    3    9 ar  
     8    3   25 1   
     9    4    5 1   
    10    4    6 ar  
    11    5   26 1   
    12    6    7 1   
    13    6    8 ar  
    14    7   27 1   
    15    7   28 1   
    16    7   29 1   
    17    8    9 ar  
    18    8   30 1   
    19    9   10 1   
    20   10   11 2   
    21   10   12 1   
    22   12   13 1   
    23   12   31 1   
    24   13   14 ar  
    25   13   21 ar  
    26   14   15 ar  
    27   14   32 1   
    28   15   16 1   
    29   15   17 ar  
    30   17   18 1   
    31   17   19 ar  
    32   18   33 1   
    33   19   20 1   
    34   19   21 ar  
    35   21   34 1   
@<TRIPOS>SUBSTRUCTURE
     1 DZ3         1 TEMP              0 ****  ****    0 ROOT
