@<TRIPOS>MOLECULE
DZ3
   35    36     1     0     0
SMALL
bcc


@<TRIPOS>ATOM
      1 CAA         0.1570   -0.3000   -0.1650 c3        1 DZ3     -0.064800
      2 CAN         1.6030   -0.1960    0.1370 ca        1 DZ3     -0.125800
      3 CAJ         2.1470   -0.8720    1.2260 ca        1 DZ3     -0.035000
      4 CAS         2.4550    0.5920   -0.6670 ca        1 DZ3      0.208100
      5 OAD         2.0270    1.2890   -1.7550 oh        1 DZ3     -0.461100
      6 CAO         3.8430    0.7070   -0.3760 ca        1 DZ3     -0.125800
      7 CAB         4.6970    1.5610   -1.2320 c3        1 DZ3     -0.064800
      8 CAK         4.3560    0.0180    0.7120 ca        1 DZ3     -0.035000
      9 CAU         3.5230   -0.7830    1.5140 ca        1 DZ3     -0.242600
     10 CAM         3.9900   -1.5240    2.6710 c         1 DZ3      0.590700
     11 OAC         3.3490   -1.9920    3.6040 o         1 DZ3     -0.449100
     12 NAL         5.4870   -1.8430    2.7410 n4        1 DZ3     -0.539200
     13 CAR         6.2420   -0.8140    3.4540 ca        1 DZ3     -0.106400
     14 CAH         5.9040   -0.4990    4.7810 ca        1 DZ3     -0.034500
     15 CAP         6.6330    0.4660    5.4710 ca        1 DZ3     -0.089900
     16 BRAF        6.1460    0.8510    7.2350 br        1 DZ3      0.006900
     17 CAT         7.7110    1.1260    4.8340 ca        1 DZ3      0.244100
     18 OAE         8.4640    2.0770    5.4400 oh        1 DZ3     -0.439100
     19 CAQ         8.0500    0.8040    3.4930 ca        1 DZ3     -0.089900
     20 BRAG        9.4600    1.6260    2.5820 br        1 DZ3      0.006900
     21 CAI         7.3140   -0.1630    2.8170 ca        1 DZ3     -0.034500
     22 HAA        -0.3260    0.7090   -0.1240 hc        1 DZ3      0.065700
     23 HAAA       -0.3640   -0.9610    0.5720 hc        1 DZ3      0.065700
     24 HAAB       -0.0010   -0.7310   -1.1870 hc        1 DZ3      0.065700
     25 HAJ         1.4950   -1.4850    1.8720 ha        1 DZ3      0.151000
     26 HOAD        1.0690    1.1620   -1.8680 ho        1 DZ3      0.450000
     27 HAB         5.7570    1.5650   -0.8820 hc        1 DZ3      0.065700
     28 HABA        4.3100    2.6130   -1.2260 hc        1 DZ3      0.065700
     29 HABB        4.6640    1.1940   -2.2890 hc        1 DZ3      0.065700
     30 HAK         5.4260    0.1420    0.9490 ha        1 DZ3      0.151000
     31 HNAL        5.8570   -1.9450    1.7900 hn        1 DZ3      0.461300
     32 HAH         5.0580   -1.0110    5.2790 ha        1 DZ3      0.173500
     33 HOAE        8.1510    2.2140    6.3550 ho        1 DZ3      0.462000
     34 HAI         7.5880   -0.4160    1.7760 ha        1 DZ3      0.173500
     35 HAL2        5.6050   -2.7330    3.2460 hn        1 DZ3      0.461300
@<TRIPOS>BOND
     1    1    2 1   
     2    1   22 1   
     3    1   23 1   
     4    1   24 1   
     5    2    3 ar  
     6    2    4 ar  
     7    3    9 ar  
     8    3   25 1   
     9    4    5 1   
    10    4    6 ar  
    11    5   26 1   
    12    6    7 1   
    13    6    8 ar  
    14    7   27 1   
    15    7   28 1   
    16    7   29 1   
    17    8    9 ar  
    18    8   30 1   
    19    9   10 1   
    20   10   11 2   
    21   10   12 1   
    22   12   13 1   
    23   12   31 1   
    24   12   35 1   
    25   13   14 ar  
    26   13   21 ar  
    27   14   15 ar  
    28   14   32 1   
    29   15   16 1   
    30   15   17 ar  
    31   17   18 1   
    32   17   19 ar  
    33   18   33 1   
    34   19   20 1   
    35   19   21 ar  
    36   21   34 1   
@<TRIPOS>SUBSTRUCTURE
     1 DZ3         1 TEMP              0 ****  ****    0 ROOT
