@<TRIPOS>MOLECULE
DZ3
   34    35     1     0     0
SMALL
bcc


@<TRIPOS>ATOM
      1 CAA        -6.5860    1.5310   -1.4760 c3        1 DZ3     -0.051300
      2 CAN        -5.6570    0.6790   -0.6980 ca        1 DZ3     -0.132800
      3 CAJ        -4.3040    1.0150   -0.6070 ca        1 DZ3     -0.061000
      4 CAS        -6.1110   -0.4750   -0.0330 ca        1 DZ3      0.147100
      5 OAD        -7.4200   -0.8930   -0.0640 oh        1 DZ3     -0.492100
      6 CAO        -5.2300   -1.2830    0.7200 ca        1 DZ3     -0.132800
      7 CAB        -5.7450   -2.4810    1.4200 c3        1 DZ3     -0.051300
      8 CAK        -3.8850   -0.9250    0.7860 ca        1 DZ3     -0.061000
      9 CAU        -3.4190    0.2140    0.1200 ca        1 DZ3     -0.180600
     10 CAM        -1.9920    0.6390    0.1850 c         1 DZ3      0.686700
     11 OAC        -1.6760    1.8390    0.2790 o         1 DZ3     -0.586100
     12 NAL        -1.0490   -0.3820    0.1200 n         1 DZ3     -0.469100
     13 CAR         0.3480   -0.2410    0.1150 ca        1 DZ3      0.037600
     14 CAH         1.0000    0.9410    0.5200 ca        1 DZ3     -0.099500
     15 CAP         2.3920    1.0160    0.5170 ca        1 DZ3     -0.062400
     16 BRAF        3.1890    2.6250    1.0670 br        1 DZ3     -0.065600
     17 CAT         3.1680   -0.0880    0.1150 ca        1 DZ3      0.158100
     18 OAE         4.5390   -0.0760    0.0930 oh        1 DZ3     -0.476100
     19 CAQ         2.5270   -1.2760   -0.2890 ca        1 DZ3     -0.062400
     20 BRAG        3.4720   -2.8000   -0.8400 br        1 DZ3     -0.065600
     21 CAI         1.1360   -1.3430   -0.2890 ca        1 DZ3     -0.099500
     22 HAA        -7.0600    0.9430   -2.3030 hc        1 DZ3      0.049867
     23 HAAA       -7.3970    1.9330   -0.8160 hc        1 DZ3      0.049867
     24 HAAB       -6.0490    2.3990   -1.9310 hc        1 DZ3      0.049867
     25 HAJ        -3.9260    1.9250   -1.1020 ha        1 DZ3      0.148500
     26 HOAD       -7.9350   -0.2580   -0.5840 ho        1 DZ3      0.426000
     27 HAB        -6.1830   -3.1970    0.6800 hc        1 DZ3      0.049867
     28 HABA       -4.9380   -2.9990    1.9910 hc        1 DZ3      0.049867
     29 HABB       -6.5590   -2.1870    2.1300 hc        1 DZ3      0.049867
     30 HAK        -3.2000   -1.5410    1.3900 ha        1 DZ3      0.148500
     31 HNAL       -1.3880   -1.3030   -0.0540 hn        1 DZ3      0.321500
     32 HAH         0.4080    1.8200    0.8370 ha        1 DZ3      0.170500
     33 HOAE        4.8440    0.7980    0.3890 ho        1 DZ3      0.435000
     34 HAI         0.6480   -2.2780   -0.6120 ha        1 DZ3      0.170500
@<TRIPOS>BOND
     1    1    2 1   
     2    1   22 1   
     3    1   23 1   
     4    1   24 1   
     5    2    3 ar  
     6    2    4 ar  
     7    3    9 ar  
     8    3   25 1   
     9    4    5 1   
    10    4    6 ar  
    11    5   26 1   
    12    6    7 1   
    13    6    8 ar  
    14    7   27 1   
    15    7   28 1   
    16    7   29 1   
    17    8    9 ar  
    18    8   30 1   
    19    9   10 1   
    20   10   11 2   
    21   10   12 1   
    22   12   13 1   
    23   12   31 1   
    24   13   14 ar  
    25   13   21 ar  
    26   14   15 ar  
    27   14   32 1   
    28   15   16 1   
    29   15   17 ar  
    30   17   18 1   
    31   17   19 ar  
    32   18   33 1   
    33   19   20 1   
    34   19   21 ar  
    35   21   34 1   
@<TRIPOS>SUBSTRUCTURE
     1 DZ3         1 TEMP              0 ****  ****    0 ROOT
