@<TRIPOS>MOLECULE
DZ3
   34    35     1     0     0
SMALL
bcc


@<TRIPOS>ATOM
      1 CAA         0.0700    0.3130   -0.1590 c3        1 DZ3     -0.051300
      2 CAN         1.5290    0.0650   -0.1120 ca        1 DZ3     -0.132800
      3 CAJ         2.1880   -0.0280    1.1160 ca        1 DZ3     -0.061000
      4 CAS         2.2800   -0.0890   -1.2930 ca        1 DZ3      0.147100
      5 OAD         1.7280   -0.0120   -2.5490 oh        1 DZ3     -0.492100
      6 CAO         3.6710   -0.3380   -1.2520 ca        1 DZ3     -0.132800
      7 CAB         4.4260   -0.5100   -2.5130 c3        1 DZ3     -0.051300
      8 CAK         4.2990   -0.4180   -0.0110 ca        1 DZ3     -0.061000
      9 CAU         3.5660   -0.2560    1.1690 ca        1 DZ3     -0.180600
     10 CAM         4.2010   -0.3550    2.5150 c         1 DZ3      0.686700
     11 OAC         3.6260   -0.9180    3.4640 o         1 DZ3     -0.586100
     12 NAL         5.4580    0.2280    2.6390 ns        1 DZ3     -0.469100
     13 CAR         6.2390    0.3090    3.8030 ca        1 DZ3      0.037600
     14 CAH         6.0070   -0.4930    4.9390 ca        1 DZ3     -0.099500
     15 CAP         6.8300   -0.3860    6.0580 ca        1 DZ3     -0.062400
     16 BrAF        6.4570   -1.4860    7.5340 br        1 DZ3     -0.065600
     17 CAT         7.9080    0.5200    6.0720 ca        1 DZ3      0.158100
     18 OAE         8.7540    0.6690    7.1410 oh        1 DZ3     -0.476100
     19 CAQ         8.1510    1.3250    4.9400 ca        1 DZ3     -0.062400
     20 BrAG        9.5610    2.5590    4.8600 br        1 DZ3     -0.065600
     21 CAI         7.3220    1.2180    3.8270 ca        1 DZ3     -0.099500
     22 HAA        -0.3540    0.4070    0.8710 hc        1 DZ3      0.049867
     23 HAAA       -0.4560   -0.5310   -0.6750 hc        1 DZ3      0.049867
     24 HAAB       -0.1510    1.2600   -0.7140 hc        1 DZ3      0.049867
     25 HAJ         1.6210    0.0690    2.0570 ha        1 DZ3      0.148500
     26 HOAD        0.7740    0.1370   -2.4580 ho        1 DZ3      0.426000
     27 HAB         3.9900   -1.3530   -3.1060 hc        1 DZ3      0.049867
     28 HABA        5.5040   -0.7260   -2.3170 hc        1 DZ3      0.049867
     29 HABB        4.3480    0.4180   -3.1340 hc        1 DZ3      0.049867
     30 HAK         5.3790   -0.6330    0.0240 ha        1 DZ3      0.148500
     31 HNAL        5.7990    0.7420    1.8560 hn        1 DZ3      0.321500
     32 HAH         5.1640   -1.2080    4.9490 ha        1 DZ3      0.170500
     33 HOAE        8.4680    0.0610    7.8450 ho        1 DZ3      0.435000
     34 HAI         7.5220    1.8570    2.9500 ha        1 DZ3      0.170500
@<TRIPOS>BOND
     1    1    2 1   
     2    1   22 1   
     3    1   23 1   
     4    1   24 1   
     5    2    3 ar  
     6    2    4 ar  
     7    3    9 ar  
     8    3   25 1   
     9    4    5 1   
    10    4    6 ar  
    11    5   26 1   
    12    6    7 1   
    13    6    8 ar  
    14    7   27 1   
    15    7   28 1   
    16    7   29 1   
    17    8    9 ar  
    18    8   30 1   
    19    9   10 1   
    20   10   11 2   
    21   10   12 1   
    22   12   13 1   
    23   12   31 1   
    24   13   14 ar  
    25   13   21 ar  
    26   14   15 ar  
    27   14   32 1   
    28   15   16 1   
    29   15   17 ar  
    30   17   18 1   
    31   17   19 ar  
    32   18   33 1   
    33   19   20 1   
    34   19   21 ar  
    35   21   34 1   
@<TRIPOS>SUBSTRUCTURE
     1 DZ3         1 TEMP              0 ****  ****    0 ROOT
