@<TRIPOS>MOLECULE
DZ3
   34    31     1     0     0
SMALL
bcc


@<TRIPOS>ATOM
      1 CAA        -4.5400    0.0210   -1.8320 c3        1 DZ3     -0.183000
      2 CAN        -3.0220    0.0420   -1.8280 c2        1 DZ3     -0.155000
      3 CAJ        -2.3310    0.0810   -0.6230 c2        1 DZ3     -0.043000
      4 CAS        -2.3240    0.0430   -3.0260 c1        1 DZ3      0.102000
      5 OAD        -3.0260    0.1000   -4.2490 o         1 DZ3     -0.246000
      6 CAO        -0.9390    0.0840   -3.0210 c2        1 DZ3     -0.097000
      7 CAB        -0.1800    0.1300   -4.3270 c3        1 DZ3     -0.170000
      8 CAK        -0.2490    0.1230   -1.8150 c1        1 DZ3     -0.079000
      9 CAU        -0.9450    0.1220   -0.6180 c1        1 DZ3     -0.160000
     10 CAM        -0.1830    0.0990    0.7100 c2        1 DZ3      0.360000
     11 OAC        -0.7940    0.0460    1.7590 o         1 DZ3     -0.345000
     12 NAL         1.2480    0.0880    0.7150 n         1 DZ3     -0.324000
     13 CAR         1.9590    0.0140    1.9560 c2        1 DZ3      0.046000
     14 CAH         2.3200    1.1770    2.6190 c2        1 DZ3     -0.100500
     15 CAP         3.0050    1.1060    3.8250 c1        1 DZ3     -0.203000
     16 BRAF        3.4250    2.7080    4.7810 br        1 DZ3      0.075000
     17 CAT         3.3290   -0.1310    4.3670 c2        1 DZ3      0.114000
     18 OAE         3.9450   -0.2040    5.6310 oh        1 DZ3     -0.229000
     19 CAQ         2.9670   -1.2950    3.7040 c1        1 DZ3     -0.203000
     20 BRAG        3.4540   -2.9980    4.4280 br        1 DZ3      0.075000
     21 CAI         2.2820   -1.2230    2.4990 c2        1 DZ3     -0.100500
     22 HAA        -4.8770    0.7570   -2.3920 hc        1 DZ3      0.088333
     23 HAAA       -4.8710    0.1300   -0.9140 hc        1 DZ3      0.088333
     24 HAAB       -4.8540   -0.8350   -2.1940 hc        1 DZ3      0.088333
     25 HAJ        -2.8240    0.0800    0.2240 ha        1 DZ3      0.157000
     26 HOAD       -3.3350   -0.7090   -4.4510 ho        1 DZ3      0.225000
     27 HAB         0.7780    0.1890   -4.1450 hc        1 DZ3      0.089333
     28 HABA       -0.3650   -0.6830   -4.8420 hc        1 DZ3      0.089333
     29 HABB       -0.4640    0.9150   -4.8430 hc        1 DZ3      0.089333
     30 HAK         0.7270    0.1510   -1.8120 ha        1 DZ3      0.140000
     31 HNAL        1.7070    0.1780   -0.0680 hn        1 DZ3      0.234000
     32 HAH         2.1220    2.0420    2.2240 ha        1 DZ3      0.170500
     33 HOAE        4.8230   -0.3030    5.5270 ho        1 DZ3      0.232000
     34 HAI         2.0280   -2.0430    2.0320 ha        1 DZ3      0.170500
@<TRIPOS>BOND
     1    1    2 1   
     2    1   22 1   
     3    1   23 1   
     4    1   24 1   
     5    2    3 1   
     6    2    4 1   
     7    3    9 1   
     8    3   25 1   
     9    4    6 1   
    10    5   26 1   
    11    6    7 1   
    12    6    8 1   
    13    7   27 1   
    14    7   28 1   
    15    7   29 1   
    16    8   30 1   
    17    9   10 1   
    18   10   11 1   
    19   10   12 1   
    20   12   13 1   
    21   12   31 1   
    22   13   14 1   
    23   13   21 1   
    24   14   15 1   
    25   14   32 1   
    26   15   17 1   
    27   17   18 1   
    28   17   19 1   
    29   18   33 1   
    30   19   21 1   
    31   21   34 1   
@<TRIPOS>SUBSTRUCTURE
     1 DZ3         1 TEMP              0 ****  ****    0 ROOT
