@<TRIPOS>MOLECULE
DZ8
   51    47     1     0     0
SMALL
bcc


@<TRIPOS>ATOM
      1 C96         0.2960    5.4150    2.5770 c3        1 DZ8     -0.228500
      2 C94        -0.8540    4.4740    2.2180 c3        1 DZ8     -0.025000
      3 C95        -1.8220    5.1910    1.2630 c3        1 DZ8     -0.228500
      4 N94        -0.3240    3.2910    1.5720 n3        1 DZ8     -0.297000
      5 C93        -0.8260    2.1070    2.2440 c3        1 DZ8     -0.067000
      6 C92        -0.0590    0.8580    1.7310 c3        1 DZ8     -0.188000
      7 C91        -0.9070   -0.4120    1.9950 c3        1 DZ8     -0.014000
      8 N9         -0.3710   -1.5180    1.2310 n3        1 DZ8     -0.163000
      9 C4          0.5300   -2.3310    1.8530 c1        1 DZ8      0.039500
     10 N3          1.1600   -2.2440    3.0640 n1        1 DZ8     -0.165500
     11 C2          2.0420   -3.2120    3.4470 c1        1 DZ8      0.234000
     12 F2          2.9010   -3.0570    4.4690 f         1 DZ8     -0.056000
     13 N1          2.2980   -4.2760    2.6180 n1        1 DZ8     -0.287000
     14 C6          1.6820   -4.3650    1.4280 c1        1 DZ8      0.266000
     15 N6          2.4190   -5.5310    1.0500 n3        1 DZ8     -0.354000
     16 C5          0.7810   -3.3770    1.0350 c1        1 DZ8     -0.254000
     17 N7          0.0350   -3.2150   -0.0980 n1        1 DZ8     -0.165500
     18 C8         -0.6730   -2.0680    0.0270 c1        1 DZ8      0.039500
     19 C81        -1.5200   -2.3680   -1.2200 c2        1 DZ8     -0.068000
     20 C1'        -0.9390   -1.6420   -2.4100 c2        1 DZ8     -0.038000
     21 C6'        -0.0510   -2.2940   -3.2550 c2        1 DZ8     -0.112000
     22 C5'         0.5220   -1.6090   -4.3330 c1        1 DZ8      0.031000
     23 O3'         1.3950   -2.0320   -5.3790 o         1 DZ8     -0.209000
     24 C7'         1.7060   -0.9120   -6.1600 c3        1 DZ8      0.097000
     25 O1'         0.9950    0.1820   -5.6440 os        1 DZ8     -0.212000
     26 C4'         0.2030   -0.2820   -4.5560 c2        1 DZ8      0.006000
     27 C3'        -0.6930    0.3760   -3.7040 c1        1 DZ8     -0.087000
     28 C2'        -1.2610   -0.3040   -2.6350 c1        1 DZ8     -0.270000
     29 I          -2.7140    0.6420   -1.4410 i         1 DZ8      0.153000
     30 H961        0.9380    4.9430    3.1440 hc        1 DZ8      0.077833
     31 H962        0.7430    5.7130    1.7560 hc        1 DZ8      0.077833
     32 H963       -0.0570    6.1940    3.0590 hc        1 DZ8      0.077833
     33 H94        -1.3280    4.2170    3.0290 h1        1 DZ8      0.095000
     34 H951       -1.3830    5.3260    0.3910 hc        1 DZ8      0.077833
     35 H952       -2.6300    4.6430    1.1430 hc        1 DZ8      0.077833
     36 H953       -2.0700    6.0600    1.6420 hc        1 DZ8      0.077833
     37 HN94       -0.5850    3.2790    0.6980 hn        1 DZ8      0.152000
     38 H931       -0.6930    2.1980    3.2060 h1        1 DZ8      0.069000
     39 H932       -1.7810    2.0050    2.0540 h1        1 DZ8      0.069000
     40 H921        0.8040    0.7830    2.2070 hc        1 DZ8      0.104500
     41 H922        0.1040    0.9470    0.7740 hc        1 DZ8      0.104500
     42 H911       -1.8380   -0.2470    1.7230 h1        1 DZ8      0.110500
     43 H912       -0.8790   -0.6320    2.9520 h1        1 DZ8      0.110500
     44 HN61        3.1880   -5.7510    1.4950 hn        1 DZ8      0.249000
     45 HN62        2.1360   -6.0430    0.3440 hn        1 DZ8      0.249000
     46 H811       -1.5160   -3.3350   -1.3930 ha        1 DZ8      0.131000
     47 H812       -2.4470   -2.0640   -1.0690 ha        1 DZ8      0.131000
     48 H6'         0.1660   -3.2280   -3.1040 ha        1 DZ8      0.175000
     49 H7'1        1.4220   -1.0740   -7.0820 h2        1 DZ8      0.118000
     50 H7'2        2.6680   -0.7310   -6.0950 h2        1 DZ8      0.118000
     51 H3'        -0.9180    1.3130   -3.8620 ha        1 DZ8      0.169000
@<TRIPOS>BOND
     1    1    2 1   
     2    1   30 1   
     3    1   31 1   
     4    1   32 1   
     5    2    3 1   
     6    2    4 1   
     7    2   33 1   
     8    3   34 1   
     9    3   35 1   
    10    3   36 1   
    11    4    5 1   
    12    4   37 1   
    13    5    6 1   
    14    5   38 1   
    15    5   39 1   
    16    6    7 1   
    17    6   40 1   
    18    6   41 1   
    19    7    8 1   
    20    7   42 1   
    21    7   43 1   
    22    8    9 1   
    23    8   18 1   
    24    9   10 1   
    25   11   12 1   
    26   11   13 1   
    27   14   15 1   
    28   14   16 1   
    29   15   44 1   
    30   15   45 1   
    31   17   18 1   
    32   19   20 1   
    33   19   46 1   
    34   19   47 1   
    35   20   21 1   
    36   20   28 1   
    37   21   22 1   
    38   21   48 1   
    39   22   26 1   
    40   23   24 1   
    41   24   25 1   
    42   24   49 1   
    43   24   50 1   
    44   25   26 1   
    45   26   27 1   
    46   27   51 1   
    47   28   29 1   
@<TRIPOS>SUBSTRUCTURE
     1 DZ8         1 TEMP              0 ****  ****    0 ROOT
