@<TRIPOS>MOLECULE
DZ8
   53    56     1     0     0
SMALL
bcc


@<TRIPOS>ATOM
      1 C96        -0.2250   -0.0080   -0.8520 c3        1 DZ8     -0.137600
      2 C94         1.2500   -0.0610   -0.4760 c3        1 DZ8      0.138500
      3 C95         1.4130   -0.0020    1.0350 c3        1 DZ8     -0.137600
      4 N94         1.8930   -1.3070   -1.0580 n4        1 DZ8     -0.777000
      5 C93         3.3690   -1.1740   -1.2060 c3        1 DZ8      0.106800
      6 C92         4.0250   -2.4460   -1.7380 c3        1 DZ8     -0.141400
      7 C91         5.3640   -2.0810   -2.3960 c3        1 DZ8      0.049300
      8 N9          5.9550   -3.1470   -3.1570 na        1 DZ8     -0.263000
      9 C4          6.7630   -4.1580   -2.6110 ca        1 DZ8      0.475800
     10 N3          7.0930   -4.4310   -1.3290 nb        1 DZ8     -0.660000
     11 C2          7.9340   -5.5190   -1.2000 ca        1 DZ8      0.911200
     12 F2          8.3010   -5.8490    0.0550 f         1 DZ8     -0.132200
     13 N1          8.4510   -6.3210   -2.2060 nb        1 DZ8     -0.691000
     14 C6          8.0920   -6.0120   -3.4720 ca        1 DZ8      0.567200
     15 N6          8.6290   -6.8270   -4.5790 n4        1 DZ8     -0.819300
     16 C5          7.2360   -4.9380   -3.7700 ca        1 DZ8     -0.146200
     17 N7          6.7100   -4.4070   -4.9500 nc        1 DZ8     -0.555100
     18 C8          5.9520   -3.3520   -4.5730 cd        1 DZ8      0.512800
     19 C81         5.2040   -2.4690   -5.5330 c3        1 DZ8     -0.070400
     20 C1'         3.7410   -2.7690   -5.5530 ca        1 DZ8     -0.076300
     21 C6'         2.9210   -2.0000   -4.6930 ca        1 DZ8     -0.140000
     22 C5'         1.5780   -2.2920   -4.6770 ca        1 DZ8      0.038100
     23 O3'         0.5720   -1.7410   -3.8870 os        1 DZ8     -0.400900
     24 C7'        -0.6840   -2.3170   -4.3560 c3        1 DZ8      0.327200
     25 O1'        -0.3520   -3.3350   -5.3280 os        1 DZ8     -0.295900
     26 C4'         1.0160   -3.2730   -5.5350 ca        1 DZ8      0.095100
     27 C3'         1.7980   -3.9970   -6.4110 ca        1 DZ8     -0.070000
     28 C2'         3.1830   -3.7300   -6.4020 ca        1 DZ8      0.052900
     29 I           4.2780   -4.7890   -7.7360 i         1 DZ8     -0.076900
     30 H961       -0.6330    0.9830   -0.5240 hc        1 DZ8      0.082700
     31 H962       -0.8070   -0.8110   -0.3380 hc        1 DZ8      0.082700
     32 H963       -0.3730   -0.0950   -1.9580 hc        1 DZ8      0.082700
     33 H94         1.7840    0.8190   -0.9490 hx        1 DZ8      0.106700
     34 H951        0.9470    0.9510    1.3980 hc        1 DZ8      0.082700
     35 H952        2.4880    0.0050    1.3380 hc        1 DZ8      0.082700
     36 H953        0.8930   -0.8530    1.5400 hc        1 DZ8      0.082700
     37 HN94        1.6810   -2.1030   -0.4470 hn        1 DZ8      0.458800
     38 H931        3.8010   -0.9120   -0.1960 hx        1 DZ8      0.109200
     39 H932        3.5590   -0.3070   -1.9040 hx        1 DZ8      0.109200
     40 H921        4.2040   -3.1660   -0.8950 hc        1 DZ8      0.089200
     41 H922        3.3600   -2.9590   -2.4860 hc        1 DZ8      0.089200
     42 H911        6.0930   -1.7760   -1.5870 h1        1 DZ8      0.092200
     43 H912        5.2220   -1.2040   -3.0940 h1        1 DZ8      0.092200
     44 HN61        7.8510   -7.0960   -5.1970 hn        1 DZ8      0.487800
     45 HN62        9.3020   -6.2560   -5.1100 hn        1 DZ8      0.487800
     46 H811        5.3790   -1.3920   -5.2550 hc        1 DZ8      0.111200
     47 H812        5.6430   -2.6100   -6.5650 hc        1 DZ8      0.111200
     48 H6'         3.3400   -1.1830   -4.0910 ha        1 DZ8      0.133000
     49 H7'1       -1.1890   -2.8070   -3.4880 h2        1 DZ8      0.097700
     50 H7'2       -1.2790   -1.5140   -4.8580 h2        1 DZ8      0.097700
     51 H3'         1.3520   -4.7420   -7.0910 ha        1 DZ8      0.198000
     52 H942        1.4730   -1.4920   -1.9830 hn        1 DZ8      0.458800
     53 H63         9.1020   -7.6730   -4.2260 hn        1 DZ8      0.487800
@<TRIPOS>BOND
     1    1    2 1   
     2    1   30 1   
     3    1   31 1   
     4    1   32 1   
     5    2    3 1   
     6    2    4 1   
     7    2   33 1   
     8    3   34 1   
     9    3   35 1   
    10    3   36 1   
    11    4    5 1   
    12    4   37 1   
    13    4   52 1   
    14    5    6 1   
    15    5   38 1   
    16    5   39 1   
    17    6    7 1   
    18    6   40 1   
    19    6   41 1   
    20    7    8 1   
    21    7   42 1   
    22    7   43 1   
    23    8    9 1   
    24    8   18 1   
    25    9   10 ar  
    26    9   16 ar  
    27   10   11 ar  
    28   11   12 1   
    29   11   13 ar  
    30   13   14 ar  
    31   14   15 1   
    32   14   16 ar  
    33   15   44 1   
    34   15   45 1   
    35   15   53 1   
    36   16   17 1   
    37   17   18 2   
    38   18   19 1   
    39   19   20 1   
    40   19   46 1   
    41   19   47 1   
    42   20   21 ar  
    43   20   28 ar  
    44   21   22 ar  
    45   21   48 1   
    46   22   23 1   
    47   22   26 ar  
    48   23   24 1   
    49   24   25 1   
    50   24   49 1   
    51   24   50 1   
    52   25   26 1   
    53   26   27 ar  
    54   27   28 ar  
    55   27   51 1   
    56   28   29 1   
@<TRIPOS>SUBSTRUCTURE
     1 DZ8         1 TEMP              0 ****  ****    0 ROOT
