@<TRIPOS>MOLECULE
DZ8
   52    55     1     0     0
SMALL
bcc


@<TRIPOS>ATOM
      1 C96        -0.2430   -0.2070   -0.9010 c3        1 DZ8     -0.134100
      2 C94         1.2320   -0.1620   -0.5220 c3        1 DZ8      0.135500
      3 C95         1.3870   -0.0740    0.9890 c3        1 DZ8     -0.134100
      4 N94         1.9560   -1.3630   -1.0900 ny        1 DZ8     -0.775000
      5 C93         3.4270   -1.1450   -1.2180 c3        1 DZ8      0.109800
      6 C92         4.1430   -2.3810   -1.7480 c3        1 DZ8     -0.150400
      7 C91         5.4540   -1.9600   -2.4350 c3        1 DZ8      0.066300
      8 N9          6.0640   -3.0090   -3.1850 na        1 DZ8     -0.277000
      9 C4          6.8120   -4.0560   -2.6190 ca        1 DZ8      0.479800
     10 N3          7.1470   -4.2740   -1.3160 nb        1 DZ8     -0.781000
     11 C2          7.9170   -5.4080   -1.1720 ca        1 DZ8      0.920200
     12 F2          8.2920   -5.6910    0.1000 f         1 DZ8     -0.185200
     13 N1          8.3570   -6.2990   -2.1220 nb        1 DZ8     -0.800000
     14 C6          7.9950   -6.0620   -3.4280 ca        1 DZ8      0.799200
     15 N6          8.3900   -6.9100   -4.4190 nv        1 DZ8     -0.936500
     16 C5          7.1850   -4.9120   -3.7280 ca        1 DZ8     -0.246200
     17 N7          6.6530   -4.4110   -4.9220 nc        1 DZ8     -0.497100
     18 C8          5.9770   -3.2960   -4.5880 cd        1 DZ8      0.393800
     19 C81         5.2480   -2.4180   -5.5590 c3        1 DZ8     -0.055400
     20 C1'         3.7810   -2.7090   -5.5910 ca        1 DZ8     -0.042300
     21 C6'         2.9620   -1.9600   -4.7130 ca        1 DZ8     -0.139000
     22 C5'         1.6190   -2.2570   -4.6940 ca        1 DZ8      0.029100
     23 O3'         0.6130   -1.7190   -3.8900 os        1 DZ8     -0.405900
     24 C7'        -0.6370   -2.3120   -4.3420 c3        1 DZ8      0.327200
     25 O1'        -0.3130   -3.3030   -5.3410 os        1 DZ8     -0.306900
     26 C4'         1.0580   -3.2280   -5.5590 ca        1 DZ8      0.074100
     27 C3'         1.8370   -3.9360   -6.4500 ca        1 DZ8     -0.070000
     28 C2'         3.2200   -3.6590   -6.4510 ca        1 DZ8      0.048900
     29 I           4.3090   -4.6970   -7.8060 i         1 DZ8     -0.073900
     30 H961       -0.7730   -1.0370   -0.3740 hc        1 DZ8      0.078033
     31 H962       -0.7120    0.7610   -0.5920 hc        1 DZ8      0.078033
     32 H963       -0.3820   -0.3250   -2.0050 hc        1 DZ8      0.078033
     33 H94         1.7080    0.7470   -1.0020 hx        1 DZ8      0.105700
     34 H951        0.8540    0.8450    1.3410 hc        1 DZ8      0.078033
     35 H952        2.4580    0.0090    1.2920 hc        1 DZ8      0.078033
     36 H953        0.9290   -0.9570    1.5000 hc        1 DZ8      0.078033
     37 HN94        1.5660   -1.5750   -2.0230 hn        1 DZ8      0.458800
     38 H931        3.8330   -0.8670   -0.2030 hx        1 DZ8      0.102700
     39 H932        3.5770   -0.2690   -1.9130 hx        1 DZ8      0.102700
     40 H921        4.3790   -3.0840   -0.9040 hc        1 DZ8      0.088700
     41 H922        3.4980   -2.9380   -2.4820 hc        1 DZ8      0.088700
     42 H911        6.1800   -1.6210   -1.6390 h1        1 DZ8      0.075700
     43 H912        5.2590   -1.0950   -3.1320 h1        1 DZ8      0.075700
     44 HN61        8.1410   -6.7060   -5.3560 hn        1 DZ8      0.462300
     45 HN62        8.9660   -7.6930   -4.2210 hn        1 DZ8      0.462300
     46 H811        5.6950   -2.5710   -6.5840 hc        1 DZ8      0.092700
     47 H812        5.4180   -1.3380   -5.2920 hc        1 DZ8      0.092700
     48 H6'         3.3860   -1.1630   -4.0890 ha        1 DZ8      0.133000
     49 H7'1       -1.2600   -1.5120   -4.8130 h2        1 DZ8      0.084700
     50 H7'2       -1.1140   -2.8260   -3.4730 h2        1 DZ8      0.084700
     51 H3'         1.3920   -4.6800   -7.1300 ha        1 DZ8      0.188000
     52 H942        1.7870   -2.1720   -0.4840 hn        1 DZ8      0.458800
@<TRIPOS>BOND
     1    1    2 1   
     2    1   30 1   
     3    1   31 1   
     4    1   32 1   
     5    2    3 1   
     6    2    4 1   
     7    2   33 1   
     8    3   34 1   
     9    3   35 1   
    10    3   36 1   
    11    4    5 1   
    12    4   37 1   
    13    4   52 1   
    14    5    6 1   
    15    5   38 1   
    16    5   39 1   
    17    6    7 1   
    18    6   40 1   
    19    6   41 1   
    20    7    8 1   
    21    7   42 1   
    22    7   43 1   
    23    8    9 1   
    24    8   18 1   
    25    9   10 ar  
    26    9   16 ar  
    27   10   11 ar  
    28   11   12 1   
    29   11   13 ar  
    30   13   14 ar  
    31   14   15 1   
    32   14   16 ar  
    33   15   44 1   
    34   15   45 1   
    35   16   17 1   
    36   17   18 2   
    37   18   19 1   
    38   19   20 1   
    39   19   46 1   
    40   19   47 1   
    41   20   21 ar  
    42   20   28 ar  
    43   21   22 ar  
    44   21   48 1   
    45   22   23 1   
    46   22   26 ar  
    47   23   24 1   
    48   24   25 1   
    49   24   49 1   
    50   24   50 1   
    51   25   26 1   
    52   26   27 ar  
    53   27   28 ar  
    54   27   51 1   
    55   28   29 1   
@<TRIPOS>SUBSTRUCTURE
     1 DZ8         1 TEMP              0 ****  ****    0 ROOT
