@<TRIPOS>MOLECULE
DZ8
   52    55     1     0     0
SMALL
bcc


@<TRIPOS>ATOM
      1 C96        -0.2400   -0.2300   -0.8650 c3        1 DZ8     -0.134100
      2 C94         1.2360   -0.1920   -0.4880 c3        1 DZ8      0.135500
      3 C95         1.3930   -0.1240    1.0240 c3        1 DZ8     -0.134100
      4 N94         1.9580   -1.3860   -1.0720 n4        1 DZ8     -0.775000
      5 C93         3.4290   -1.1670   -1.2000 c3        1 DZ8      0.109800
      6 C92         4.1430   -2.3970   -1.7460 c3        1 DZ8     -0.150400
      7 C91         5.4530   -1.9680   -2.4310 c3        1 DZ8      0.066300
      8 N9          6.0620   -3.0070   -3.1930 na        1 DZ8     -0.277000
      9 C4          6.8110   -4.0600   -2.6410 ca        1 DZ8      0.479800
     10 N3          7.1490   -4.2950   -1.3420 nb        1 DZ8     -0.781000
     11 C2          7.9190   -5.4300   -1.2130 ca        1 DZ8      0.920200
     12 F2          8.2950   -5.7290    0.0550 f         1 DZ8     -0.185200
     13 N1          8.3590   -6.3090   -2.1740 nb        1 DZ8     -0.800000
     14 C6          7.9950   -6.0560   -3.4770 ca        1 DZ8      0.799200
     15 N6          8.3890   -6.8910   -4.4790 nh        1 DZ8     -0.936500
     16 C5          7.1840   -4.9020   -3.7620 ca        1 DZ8     -0.246200
     17 N7          6.6510   -4.3870   -4.9490 nc        1 DZ8     -0.497100
     18 C8          5.9750   -3.2760   -4.6000 cd        1 DZ8      0.393800
     19 C81         5.2440   -2.3860   -5.5590 c3        1 DZ8     -0.055400
     20 C1'         3.7770   -2.6770   -5.5920 ca        1 DZ8     -0.042300
     21 C6'         2.9600   -1.9370   -4.7040 ca        1 DZ8     -0.139000
     22 C5'         1.6170   -2.2340   -4.6870 ca        1 DZ8      0.029100
     23 O3'         0.6120   -1.7050   -3.8750 os        1 DZ8     -0.405900
     24 C7'        -0.6390   -2.2920   -4.3330 c3        1 DZ8      0.327200
     25 O1'        -0.3170   -3.2720   -5.3420 os        1 DZ8     -0.306900
     26 C4'         1.0540   -3.1960   -5.5620 ca        1 DZ8      0.074100
     27 C3'         1.8310   -3.8940   -6.4620 ca        1 DZ8     -0.070000
     28 C2'         3.2140   -3.6170   -6.4620 ca        1 DZ8      0.048900
     29 I           4.3000   -4.6410   -7.8300 i         1 DZ8     -0.073900
     30 H961       -0.3800   -0.3340   -1.9710 hc        1 DZ8      0.078033
     31 H962       -0.7080    0.7340   -0.5420 hc        1 DZ8      0.078033
     32 H963       -0.7690   -1.0670   -0.3480 hc        1 DZ8      0.078033
     33 H94         1.7110    0.7230   -0.9570 hx        1 DZ8      0.105700
     34 H951        0.9350   -1.0120    1.5240 hc        1 DZ8      0.078033
     35 H952        0.8620    0.7920    1.3880 hc        1 DZ8      0.078033
     36 H953        2.4650   -0.0460    1.3260 hc        1 DZ8      0.078033
     37 HN94        1.7900   -2.2030   -0.4760 hn        1 DZ8      0.458800
     38 H931        3.5790   -0.2820   -1.8840 hx        1 DZ8      0.102700
     39 H932        3.8370   -0.9010   -0.1830 hx        1 DZ8      0.102700
     40 H921        4.3800   -3.1100   -0.9120 hc        1 DZ8      0.088700
     41 H922        3.4980   -2.9440   -2.4870 hc        1 DZ8      0.088700
     42 H911        6.1810   -1.6380   -1.6310 h1        1 DZ8      0.075700
     43 H912        5.2580   -1.0940   -3.1160 h1        1 DZ8      0.075700
     44 HN61        8.1390   -6.6750   -5.4130 hn        1 DZ8      0.462300
     45 HN62        8.9660   -7.6760   -4.2910 hn        1 DZ8      0.462300
     46 H811        5.6890   -2.5280   -6.5870 hc        1 DZ8      0.092700
     47 H812        5.4150   -1.3100   -5.2800 hc        1 DZ8      0.092700
     48 H6'         3.3850   -1.1470   -4.0730 ha        1 DZ8      0.133000
     49 H7'1       -1.2630   -1.4860   -4.7930 h2        1 DZ8      0.084700
     50 H7'2       -1.1150   -2.8150   -3.4680 h2        1 DZ8      0.084700
     51 H3'         1.3850   -4.6300   -7.1490 ha        1 DZ8      0.188000
     52 H942        1.5660   -1.5850   -2.0070 hn        1 DZ8      0.458800
@<TRIPOS>BOND
     1    1    2 1   
     2    1   30 1   
     3    1   31 1   
     4    1   32 1   
     5    2    3 1   
     6    2    4 1   
     7    2   33 1   
     8    3   34 1   
     9    3   35 1   
    10    3   36 1   
    11    4    5 1   
    12    4   37 1   
    13    4   52 1   
    14    5    6 1   
    15    5   38 1   
    16    5   39 1   
    17    6    7 1   
    18    6   40 1   
    19    6   41 1   
    20    7    8 1   
    21    7   42 1   
    22    7   43 1   
    23    8    9 1   
    24    8   18 1   
    25    9   10 ar  
    26    9   16 ar  
    27   10   11 ar  
    28   11   12 1   
    29   11   13 ar  
    30   13   14 ar  
    31   14   15 1   
    32   14   16 ar  
    33   15   44 1   
    34   15   45 1   
    35   16   17 1   
    36   17   18 2   
    37   18   19 1   
    38   19   20 1   
    39   19   46 1   
    40   19   47 1   
    41   20   21 ar  
    42   20   28 ar  
    43   21   22 ar  
    44   21   48 1   
    45   22   23 1   
    46   22   26 ar  
    47   23   24 1   
    48   24   25 1   
    49   24   49 1   
    50   24   50 1   
    51   25   26 1   
    52   26   27 ar  
    53   27   28 ar  
    54   27   51 1   
    55   28   29 1   
@<TRIPOS>SUBSTRUCTURE
     1 DZ8         1 TEMP              0 ****  ****    0 ROOT
