@<TRIPOS>MOLECULE
DZ8
   51    54     1     0     0
SMALL
bcc


@<TRIPOS>ATOM
      1 C96         8.3730    0.1480   -0.7530 c3        1 DZ8     -0.110100
      2 C94         7.2170   -0.5480   -1.4750 c3        1 DZ8      0.172500
      3 C95         7.6830   -1.9430   -1.8970 c3        1 DZ8     -0.110100
      4 N94         6.0050   -0.5120   -0.6650 n3        1 DZ8     -0.821200
      5 C93         4.8040   -0.8990   -1.3760 c3        1 DZ8      0.167800
      6 C92         3.5780   -0.9570   -0.4650 c3        1 DZ8     -0.108400
      7 C91         2.3460   -1.2520   -1.3230 c3        1 DZ8      0.043300
      8 N9          1.1180   -1.3570   -0.5920 na        1 DZ8     -0.255000
      9 C4          0.6030   -2.5160    0.0030 ca        1 DZ8      0.476800
     10 N3          1.0520   -3.8060   -0.0530 nb        1 DZ8     -0.752000
     11 C2          0.2390   -4.6610    0.6470 ca        1 DZ8      0.899200
     12 F2          0.6220   -5.9650    0.6370 f         1 DZ8     -0.198200
     13 N1         -0.9120   -4.4050    1.3630 nb        1 DZ8     -0.813000
     14 C6         -1.3400   -3.1020    1.4090 ca        1 DZ8      0.786200
     15 N6         -2.4640   -2.7670    2.1140 nh        1 DZ8     -0.954500
     16 C5         -0.5890   -2.0910    0.7200 ca        1 DZ8     -0.243200
     17 N7         -0.7700   -0.7100    0.5800 nc        1 DZ8     -0.525100
     18 C8          0.2560   -0.2900   -0.1880 cd        1 DZ8      0.402800
     19 C81         0.5210    1.1150   -0.6320 c3        1 DZ8     -0.054400
     20 C1'        -0.5000    2.0830   -0.1360 ca        1 DZ8     -0.031300
     21 C6'        -0.3730    2.5080    1.2090 ca        1 DZ8     -0.101000
     22 C5'        -1.2970    3.4210    1.6620 ca        1 DZ8      0.074100
     23 O3'        -1.4050    4.0020    2.9200 os        1 DZ8     -0.329900
     24 C7'        -2.5460    4.8920    2.8720 c3        1 DZ8      0.320200
     25 O1'        -3.1080    4.8230    1.5400 os        1 DZ8     -0.329900
     26 C4'        -2.3310    3.9200    0.8240 ca        1 DZ8      0.056100
     27 C3'        -2.4630    3.5110   -0.4840 ca        1 DZ8     -0.089000
     28 C2'        -1.5190    2.5740   -0.9550 ca        1 DZ8      0.034900
     29 I          -1.7500    1.9960   -2.8840 i         1 DZ8     -0.132900
     30 H961        9.2530    0.1950   -1.4390 hc        1 DZ8      0.039367
     31 H962        8.0910    1.1870   -0.4600 hc        1 DZ8      0.039367
     32 H963        8.6660   -0.4150    0.1650 hc        1 DZ8      0.039367
     33 H94         6.9940    0.0410   -2.4160 h1        1 DZ8      0.053700
     34 H951        6.9050   -2.4600   -2.5080 hc        1 DZ8      0.039367
     35 H952        8.6100   -1.8550   -2.5130 hc        1 DZ8      0.039367
     36 H953        7.9120   -2.5730   -1.0050 hc        1 DZ8      0.039367
     37 HN94        6.1230   -1.0690    0.1610 hn        1 DZ8      0.359800
     38 H931        4.6290   -0.1290   -2.1810 h1        1 DZ8      0.031200
     39 H932        4.9070   -1.9000   -1.8910 h1        1 DZ8      0.031200
     40 H921        3.7090   -1.7600    0.3070 hc        1 DZ8      0.061200
     41 H922        3.4500    0.0170    0.0750 hc        1 DZ8      0.061200
     42 H911        2.2220   -0.4280   -2.0840 h1        1 DZ8      0.072200
     43 H912        2.5070   -2.2250   -1.8730 h1        1 DZ8      0.072200
     44 HN61       -2.7790   -1.8290    2.0910 hn        1 DZ8      0.453800
     45 HN62       -3.0100   -3.4610    2.5600 hn        1 DZ8      0.453800
     46 H811        1.5370    1.4200   -0.2490 hc        1 DZ8      0.079200
     47 H812        0.5680    1.1340   -1.7580 hc        1 DZ8      0.079200
     48 H6'         0.4200    2.1110    1.8550 ha        1 DZ8      0.163000
     49 H7'1       -3.3110    4.5300    3.6020 h2        1 DZ8      0.075700
     50 H7'2       -2.1910    5.9360    3.0560 h2        1 DZ8      0.075700
     51 H3'        -3.2660    3.8990   -1.1250 ha        1 DZ8      0.168000
@<TRIPOS>BOND
     1    1    2 1   
     2    1   30 1   
     3    1   31 1   
     4    1   32 1   
     5    2    3 1   
     6    2    4 1   
     7    2   33 1   
     8    3   34 1   
     9    3   35 1   
    10    3   36 1   
    11    4    5 1   
    12    4   37 1   
    13    5    6 1   
    14    5   38 1   
    15    5   39 1   
    16    6    7 1   
    17    6   40 1   
    18    6   41 1   
    19    7    8 1   
    20    7   42 1   
    21    7   43 1   
    22    8    9 1   
    23    8   18 1   
    24    9   10 ar  
    25    9   16 ar  
    26   10   11 ar  
    27   11   12 1   
    28   11   13 ar  
    29   13   14 ar  
    30   14   15 1   
    31   14   16 ar  
    32   15   44 1   
    33   15   45 1   
    34   16   17 1   
    35   17   18 2   
    36   18   19 1   
    37   19   20 1   
    38   19   46 1   
    39   19   47 1   
    40   20   21 ar  
    41   20   28 ar  
    42   21   22 ar  
    43   21   48 1   
    44   22   23 1   
    45   22   26 ar  
    46   23   24 1   
    47   24   25 1   
    48   24   49 1   
    49   24   50 1   
    50   25   26 1   
    51   26   27 ar  
    52   27   28 ar  
    53   27   51 1   
    54   28   29 1   
@<TRIPOS>SUBSTRUCTURE
     1 DZ8         1 TEMP              0 ****  ****    0 ROOT
