@<TRIPOS>MOLECULE
DZ9
   37    40     1     0     0
SMALL
bcc


@<TRIPOS>ATOM
      1 CAL         0.2030    0.2480    0.0710 ca        1 DZ9     -0.196000
      2 CAR         1.5730    0.0370    0.2980 ca        1 DZ9      0.150900
      3 FAC         2.4360    0.1310   -0.7440 f         1 DZ9     -0.140900
      4 CAG         2.0630   -0.2700    1.5790 ca        1 DZ9     -0.198000
      5 CAE         1.1600   -0.3630    2.6340 ca        1 DZ9     -0.079000
      6 CAH        -0.1990   -0.1570    2.4370 ca        1 DZ9     -0.204000
      7 CAS        -0.7010    0.1540    1.1470 ca        1 DZ9      0.104600
      8 NAN        -2.0850    0.3320    1.0020 n         1 DZ9     -0.470100
      9 CAQ        -2.7640    0.8280   -0.1110 c         1 DZ9      0.737300
     10 OAB        -2.1600    1.1760   -1.1490 o         1 DZ9     -0.627100
     11 CAW        -4.2200    0.9100    0.0080 cc        1 DZ9     -0.329600
     12 CAT        -5.0430    1.5410   -0.9350 cd        1 DZ9      0.293800
     13 NAA        -4.6340    2.2160   -2.0400 nh        1 DZ9     -0.830600
     14 SAP        -5.0920    0.2250    1.2930 ss        1 DZ9     -0.029900
     15 CAY        -6.5910    0.7180    0.6880 ca        1 DZ9      0.464600
     16 NAM        -7.7860    0.4740    1.2780 nb        1 DZ9     -0.646000
     17 CAX        -6.4430    1.4310   -0.5430 ca        1 DZ9     -0.267100
     18 CAK        -7.5960    1.9090   -1.1790 ca        1 DZ9     -0.024000
     19 CAJ        -8.8210    1.6670   -0.5860 ca        1 DZ9     -0.274300
     20 CAU        -8.8860    0.9430    0.6480 ca        1 DZ9      0.546800
     21 CAV       -10.1920    0.7090    1.2370 cc        1 DZ9     -0.200600
     22 CAI       -10.4550    0.0210    2.4120 cd        1 DZ9     -0.095000
     23 CAD       -11.8530   -0.0200    2.6980 cd        1 DZ9     -0.167000
     24 CAF       -12.5890    0.6360    1.7340 cc        1 DZ9     -0.155100
     25 SAO       -11.6240    1.2710    0.5360 ss        1 DZ9      0.028200
     26 HAL        -0.1370    0.4880   -0.9500 ha        1 DZ9      0.187000
     27 HAG         3.1380   -0.4310    1.7340 ha        1 DZ9      0.148000
     28 HAE         1.5300   -0.6030    3.6430 ha        1 DZ9      0.136000
     29 HAH        -0.8820   -0.2380    3.2970 ha        1 DZ9      0.133000
     30 HNAN       -2.6210    0.1570    1.8250 hn        1 DZ9      0.318500
     31 HNAA       -3.6740    2.1670   -2.3010 hn        1 DZ9      0.447800
     32 HNAB       -5.3030    2.4790   -2.7190 hn        1 DZ9      0.447800
     33 HAK        -7.5290    2.4660   -2.1240 ha        1 DZ9      0.137000
     34 HAJ        -9.7510    2.0250   -1.0500 ha        1 DZ9      0.147000
     35 HAI        -9.6960   -0.4390    3.0500 ha        1 DZ9      0.173000
     36 HAD       -12.2680   -0.5150    3.5790 ha        1 DZ9      0.158000
     37 HAF       -13.6740    0.7400    1.7320 h4        1 DZ9      0.174000
@<TRIPOS>BOND
     1    1    2 ar  
     2    1    7 ar  
     3    1   26 1   
     4    2    3 1   
     5    2    4 ar  
     6    4    5 ar  
     7    4   27 1   
     8    5    6 ar  
     9    5   28 1   
    10    6    7 ar  
    11    6   29 1   
    12    7    8 1   
    13    8    9 1   
    14    8   30 1   
    15    9   10 2   
    16    9   11 1   
    17   11   12 2   
    18   11   14 1   
    19   12   13 1   
    20   12   17 1   
    21   13   31 1   
    22   13   32 1   
    23   14   15 1   
    24   15   16 ar  
    25   15   17 ar  
    26   16   20 ar  
    27   17   18 ar  
    28   18   19 ar  
    29   18   33 1   
    30   19   20 ar  
    31   19   34 1   
    32   20   21 1   
    33   21   22 2   
    34   21   25 1   
    35   22   23 1   
    36   22   35 1   
    37   23   24 2   
    38   23   36 1   
    39   24   25 1   
    40   24   37 1   
@<TRIPOS>SUBSTRUCTURE
     1 DZ9         1 TEMP              0 ****  ****    0 ROOT
