@<TRIPOS>MOLECULE
DZ9
   37    40     1     0     0
SMALL
bcc


@<TRIPOS>ATOM
      1 CAL         5.3810   -0.2670    0.1840 ca        1 DZ9     -0.196000
      2 CAR         6.7540    0.0340    0.1770 ca        1 DZ9      0.150900
      3 FAC         7.6460   -0.9470    0.4620 f         1 DZ9     -0.140900
      4 CAG         7.2160    1.3280   -0.1160 ca        1 DZ9     -0.198000
      5 CAE         6.2840    2.3200   -0.4040 ca        1 DZ9     -0.079000
      6 CAH         4.9220    2.0490   -0.4070 ca        1 DZ9     -0.204000
      7 CAS         4.4480    0.7440   -0.1120 ca        1 DZ9      0.104600
      8 NAN         3.0620    0.5310   -0.1090 n         1 DZ9     -0.470100
      9 CAQ         2.3910   -0.6900   -0.0370 c         1 DZ9      0.737300
     10 OAB         3.0070   -1.7750    0.0430 o         1 DZ9     -0.627100
     11 CAW         0.9300   -0.6240   -0.0530 cc        1 DZ9     -0.329600
     12 CAT         0.1000   -1.7490   -0.1580 cd        1 DZ9      0.293800
     13 NAA         0.5030   -3.0340   -0.3260 nh        1 DZ9     -0.831600
     14 SAP         0.0590    0.8280    0.0830 ss        1 DZ9     -0.029900
     15 CAY        -1.4470    0.0640    0.0090 ca        1 DZ9      0.464600
     16 NAM        -2.6430    0.6970    0.0660 nb        1 DZ9     -0.646000
     17 CAX        -1.3020   -1.3530   -0.1210 ca        1 DZ9     -0.267100
     18 CAK        -2.4610   -2.1360   -0.1950 ca        1 DZ9     -0.024000
     19 CAJ        -3.6880   -1.5020   -0.1370 ca        1 DZ9     -0.275300
     20 CAU        -3.7480   -0.0770   -0.0060 ca        1 DZ9      0.546800
     21 CAV        -5.0570    0.5500    0.0510 cc        1 DZ9     -0.200600
     22 CAI        -5.3160    1.9050    0.1890 cd        1 DZ9     -0.095000
     23 CAD        -6.7170    2.1760    0.2090 cd        1 DZ9     -0.167000
     24 CAF        -7.4600    1.0210    0.0860 cc        1 DZ9     -0.155100
     25 SAO        -6.4960   -0.3300   -0.0470 ss        1 DZ9      0.028200
     26 HAL         5.0640   -1.2960    0.4180 ha        1 DZ9      0.187000
     27 HAG         8.2930    1.5420   -0.1150 ha        1 DZ9      0.148000
     28 HAE         6.6320    3.3390   -0.6360 ha        1 DZ9      0.136000
     29 HAH         4.2160    2.8590   -0.6410 ha        1 DZ9      0.133000
     30 HNAN        2.5090    1.3490   -0.2570 hn        1 DZ9      0.318500
     31 HNAA        1.4730   -3.2460   -0.2440 hn        1 DZ9      0.448300
     32 HNAB       -0.1580   -3.7630   -0.2250 hn        1 DZ9      0.448300
     33 HAK        -2.3980   -3.2300   -0.2990 ha        1 DZ9      0.137000
     34 HAJ        -4.6220   -2.0790   -0.1920 ha        1 DZ9      0.147000
     35 HAI        -4.5500    2.6830    0.2720 ha        1 DZ9      0.173000
     36 HAD        -7.1290    3.1820    0.3100 ha        1 DZ9      0.158000
     37 HAF        -8.5480    0.9700    0.0750 h4        1 DZ9      0.174000
@<TRIPOS>BOND
     1    1    2 ar  
     2    1    7 ar  
     3    1   26 1   
     4    2    3 1   
     5    2    4 ar  
     6    4    5 ar  
     7    4   27 1   
     8    5    6 ar  
     9    5   28 1   
    10    6    7 ar  
    11    6   29 1   
    12    7    8 1   
    13    8    9 1   
    14    8   30 1   
    15    9   10 2   
    16    9   11 1   
    17   11   12 2   
    18   11   14 1   
    19   12   13 1   
    20   12   17 1   
    21   13   31 1   
    22   13   32 1   
    23   14   15 1   
    24   15   16 ar  
    25   15   17 ar  
    26   16   20 ar  
    27   17   18 ar  
    28   18   19 ar  
    29   18   33 1   
    30   19   20 ar  
    31   19   34 1   
    32   20   21 1   
    33   21   22 2   
    34   21   25 1   
    35   22   23 1   
    36   22   35 1   
    37   23   24 2   
    38   23   36 1   
    39   24   25 1   
    40   24   37 1   
@<TRIPOS>SUBSTRUCTURE
     1 DZ9         1 TEMP              0 ****  ****    0 ROOT
