@<TRIPOS>MOLECULE
DZ9
   37    29     1     0     0
SMALL
bcc


@<TRIPOS>ATOM
      1 CAL         5.0630   -0.8150   -1.0210 c1        1 DZ9     -0.196000
      2 CAR         6.4470   -0.7780   -1.0880 c1        1 DZ9      0.116000
      3 FAC         7.0630   -0.8900   -2.2710 f         1 DZ9     -0.106000
      4 CAG         7.1940   -0.6520    0.0720 c1        1 DZ9     -0.198000
      5 CAE         6.5570   -0.5620    1.3000 c1        1 DZ9     -0.125750
      6 CAH         5.1730   -0.5990    1.3680 c1        1 DZ9     -0.125750
      7 CAS         4.4260   -0.7260    0.2070 c1        1 DZ9      0.112000
      8 NAN         3.0090   -0.7290    0.2730 n         1 DZ9     -0.324000
      9 CAQ         2.2570    0.0980   -0.6000 c2        1 DZ9      0.412000
     10 OAB         2.8260    0.8090   -1.4030 o         1 DZ9     -0.388000
     11 CAW         0.7470    0.1180   -0.5090 c2        1 DZ9     -0.551000
     12 CAT        -0.1050    0.8510   -1.4180 c1        1 DZ9      0.201000
     13 NAA         0.0360    1.3950   -2.7220 n2        1 DZ9     -0.340000
     14 SAP        -0.1450   -0.4640    0.6120 ss        1 DZ9      0.532000
     15 CAY        -1.6220   -0.0260    0.3170 c1        1 DZ9     -0.187000
     16 NAM        -2.7980   -0.2830    0.9570 n1        1 DZ9     -0.140000
     17 CAX        -1.6170    0.7540   -0.8830 c1        1 DZ9     -0.188000
     18 CAK        -2.7900    1.2390   -1.3830 c1        1 DZ9     -0.125750
     19 CAJ        -3.9770    0.9770   -0.7330 c1        1 DZ9     -0.125750
     20 CAU        -3.9790    0.2060    0.4510 c1        1 DZ9      0.110000
     21 CAV        -5.2100   -0.1040    1.0070 c1        1 DZ9     -0.418500
     22 CAI        -5.8890    0.6440    2.0480 c1        1 DZ9     -0.147000
     23 CAD        -7.2620   -0.0920    2.3770 c1        1 DZ9     -0.147000
     24 CAF        -7.3680   -1.2620    1.5250 c1        1 DZ9     -0.418500
     25 SAO        -6.0980   -1.3210    0.6360 ss        1 DZ9      0.675000
     26 HAL         4.5370   -0.9040   -1.8380 ha        1 DZ9      0.187000
     27 HAG         8.1690   -0.6260    0.0250 ha        1 DZ9      0.148000
     28 HAE         7.0830   -0.4730    2.1190 ha        1 DZ9      0.139000
     29 HAH         4.7240   -0.5360    2.2330 ha        1 DZ9      0.139000
     30 HNAN        2.5820   -1.2470    0.8910 hn        1 DZ9      0.232000
     31 HNAA       -0.6760    1.8040   -3.1270 hn        1 DZ9      0.243500
     32 HNAB        0.8400    1.3430   -3.1550 hn        1 DZ9      0.243500
     33 HAK        -2.7890    1.7720   -2.2010 ha        1 DZ9      0.139000
     34 HAJ        -4.8160    1.3240   -1.0900 ha        1 DZ9      0.139000
     35 HAI        -5.5610    1.4590    2.4730 DU        1 DZ9      0.161000
     36 HAD        -7.9200    0.1950    3.0390 DU        1 DZ9      0.161000
     37 HAF        -8.1080   -1.8980    1.5130 DU        1 DZ9      0.161000
@<TRIPOS>BOND
     1    1    7 1   
     2    1   26 1   
     3    2    3 1   
     4    2    4 1   
     5    4   27 1   
     6    5    6 1   
     7    5   28 1   
     8    6   29 1   
     9    7    8 1   
    10    8    9 1   
    11    8   30 1   
    12    9   10 1   
    13    9   11 1   
    14   11   12 1   
    15   11   14 1   
    16   12   17 1   
    17   13   31 1   
    18   13   32 1   
    19   14   15 1   
    20   15   17 1   
    21   16   20 1   
    22   18   19 1   
    23   18   33 1   
    24   19   34 1   
    25   21   22 1   
    26   21   25 1   
    27   22   23 1   
    28   23   24 1   
    29   24   25 1   
@<TRIPOS>SUBSTRUCTURE
     1 DZ9         1 TEMP              0 ****  ****    0 ROOT
