@<TRIPOS>MOLECULE
DZ9
   37    40     1     0     0
SMALL
bcc


@<TRIPOS>ATOM
      1 CAL         0.2060    0.2450    0.0730 ca        1 DZ9     -0.196000
      2 CAR         1.5760    0.0300    0.3000 ca        1 DZ9      0.150900
      3 FAC         2.4400    0.1320   -0.7390 f         1 DZ9     -0.140900
      4 CAG         2.0630   -0.2900    1.5790 ca        1 DZ9     -0.198000
      5 CAE         1.1580   -0.3910    2.6310 ca        1 DZ9     -0.079000
      6 CAH        -0.2000   -0.1810    2.4350 ca        1 DZ9     -0.204000
      7 CAS        -0.7000    0.1430    1.1460 ca        1 DZ9      0.104600
      8 NAN        -2.0830    0.3240    1.0020 ns        1 DZ9     -0.470100
      9 CAQ        -2.7610    0.8260   -0.1100 c         1 DZ9      0.737300
     10 OAB        -2.1560    1.1760   -1.1470 o         1 DZ9     -0.627100
     11 CAW        -4.2160    0.9100    0.0080 cc        1 DZ9     -0.329600
     12 CAT        -5.0390    1.5410   -0.9350 cd        1 DZ9      0.293800
     13 NAA        -4.6290    2.2150   -2.0400 nv        1 DZ9     -0.831600
     14 SAP        -5.0900    0.2260    1.2940 ss        1 DZ9     -0.029900
     15 CAY        -6.5880    0.7200    0.6880 ca        1 DZ9      0.464600
     16 NAM        -7.7830    0.4780    1.2770 nb        1 DZ9     -0.646000
     17 CAX        -6.4390    1.4320   -0.5430 ca        1 DZ9     -0.267100
     18 CAK        -7.5910    1.9120   -1.1800 ca        1 DZ9     -0.024000
     19 CAJ        -8.8170    1.6710   -0.5870 ca        1 DZ9     -0.275300
     20 CAU        -8.8830    0.9480    0.6470 ca        1 DZ9      0.546800
     21 CAV       -10.1900    0.7160    1.2360 cc        1 DZ9     -0.200600
     22 CAI       -10.4540    0.0300    2.4120 cd        1 DZ9     -0.095000
     23 CAD       -11.8520   -0.0090    2.6970 cd        1 DZ9     -0.167000
     24 CAF       -12.5870    0.6450    1.7310 cc        1 DZ9     -0.155100
     25 SAO       -11.6200    1.2780    0.5340 ss        1 DZ9      0.028200
     26 HAL        -0.1320    0.4950   -0.9460 ha        1 DZ9      0.187000
     27 HAG         3.1370   -0.4540    1.7330 ha        1 DZ9      0.148000
     28 HAE         1.5260   -0.6410    3.6380 ha        1 DZ9      0.136000
     29 HAH        -0.8840   -0.2690    3.2920 ha        1 DZ9      0.133000
     30 HNAN       -2.6200    0.1460    1.8230 hn        1 DZ9      0.318500
     31 HNAA       -5.2980    2.4790   -2.7190 hn        1 DZ9      0.448300
     32 HNAB       -3.6680    2.1650   -2.3000 hn        1 DZ9      0.448300
     33 HAK        -7.5240    2.4680   -2.1260 ha        1 DZ9      0.137000
     34 HAJ        -9.7460    2.0290   -1.0520 ha        1 DZ9      0.147000
     35 HAI        -9.6950   -0.4290    3.0510 ha        1 DZ9      0.173000
     36 HAD       -12.2670   -0.5030    3.5790 ha        1 DZ9      0.158000
     37 HAF       -13.6710    0.7500    1.7290 h4        1 DZ9      0.174000
@<TRIPOS>BOND
     1    1    2 ar  
     2    1    7 ar  
     3    1   26 1   
     4    2    3 1   
     5    2    4 ar  
     6    4    5 ar  
     7    4   27 1   
     8    5    6 ar  
     9    5   28 1   
    10    6    7 ar  
    11    6   29 1   
    12    7    8 1   
    13    8    9 1   
    14    8   30 1   
    15    9   10 2   
    16    9   11 1   
    17   11   12 2   
    18   11   14 1   
    19   12   13 1   
    20   12   17 1   
    21   13   31 1   
    22   13   32 1   
    23   14   15 1   
    24   15   16 ar  
    25   15   17 ar  
    26   16   20 ar  
    27   17   18 ar  
    28   18   19 ar  
    29   18   33 1   
    30   19   20 ar  
    31   19   34 1   
    32   20   21 1   
    33   21   22 2   
    34   21   25 1   
    35   22   23 1   
    36   22   35 1   
    37   23   24 2   
    38   23   36 1   
    39   24   25 1   
    40   24   37 1   
@<TRIPOS>SUBSTRUCTURE
     1 DZ9         1 TEMP              0 ****  ****    0 ROOT
