@<TRIPOS>MOLECULE
DZ9
   39    42     1     0     0
SMALL
bcc


@<TRIPOS>ATOM
      1 CAL        -0.1520    0.5300    0.4260 ca        1 DZ9     -0.160000
      2 CAR         0.6060    1.0800    1.4770 ca        1 DZ9      0.178900
      3 FAC         1.5240    2.0260    1.2010 f         1 DZ9     -0.085900
      4 CAG         0.4090    0.6440    2.8060 ca        1 DZ9     -0.097000
      5 CAE        -0.5440   -0.3320    3.0730 ca        1 DZ9     -0.071000
      6 CAH        -1.3140   -0.8890    2.0500 ca        1 DZ9     -0.122000
      7 CAS        -1.1090   -0.4510    0.7330 ca        1 DZ9     -0.045400
      8 NAN        -1.8690   -1.0660   -0.3670 n4        1 DZ9     -0.524200
      9 CAQ        -2.6740   -0.0520   -1.1430 c         1 DZ9      0.609300
     10 OAB        -2.1070    0.4140   -2.1360 o         1 DZ9     -0.499100
     11 CAW        -4.0030    0.2600   -0.7000 cc        1 DZ9     -0.322600
     12 CAT        -4.8560    1.1410   -1.4110 cd        1 DZ9      0.062800
     13 NAA        -4.5020    1.8120   -2.6450 n4        1 DZ9     -0.696400
     14 SAP        -4.7530   -0.3220    0.6840 ss        1 DZ9      0.192100
     15 CAY        -6.1920    0.5050    0.4190 ca        1 DZ9      0.481600
     16 NAM        -7.2690    0.4470    1.2210 nb        1 DZ9     -0.666000
     17 CAX        -6.1120    1.2950   -0.7910 ca        1 DZ9     -0.229100
     18 CAK        -7.2580    2.0620   -1.1440 ca        1 DZ9     -0.064000
     19 CAJ        -8.3560    2.0090   -0.3330 ca        1 DZ9     -0.202300
     20 CAU        -8.3580    1.1850    0.8690 ca        1 DZ9      0.654800
     21 CAV        -9.5290    1.1620    1.6770 cc        1 DZ9     -0.309600
     22 CAI        -9.6910    0.4190    2.8650 cd        1 DZ9     -0.024000
     23 CAD       -10.9690    0.6120    3.4290 cd        1 DZ9     -0.171000
     24 CAF       -11.7380    1.4860    2.6650 cc        1 DZ9     -0.095100
     25 SAO       -10.9400    2.0360    1.3380 ss        1 DZ9      0.148200
     26 HAL         0.0310    0.8720   -0.6070 ha        1 DZ9      0.181000
     27 HAG         1.0210    1.0790    3.6170 ha        1 DZ9      0.200000
     28 HAE        -0.6940   -0.6800    4.1120 ha        1 DZ9      0.189000
     29 HAH        -2.0500   -1.6710    2.2980 ha        1 DZ9      0.160000
     30 HNAN       -1.1870   -1.4970   -1.0160 hn        1 DZ9      0.478300
     31 HNAA       -4.7660    1.2210   -3.4470 hn        1 DZ9      0.483133
     32 HNAB       -3.4820    1.9820   -2.6820 hn        1 DZ9      0.483133
     33 HAK        -7.2570    2.6840   -2.0530 ha        1 DZ9      0.152000
     34 HAJ        -9.2660    2.5880   -0.5710 ha        1 DZ9      0.185000
     35 HAI        -8.9240   -0.2300    3.3010 ha        1 DZ9      0.182000
     36 HAD       -11.3090    0.1310    4.3530 ha        1 DZ9      0.192000
     37 HAF       -12.7640    1.7790    2.9160 h4        1 DZ9      0.211000
     38 HAN2       -2.4830   -1.7990    0.0080 hn        1 DZ9      0.478300
     39 HAA3       -5.0020    2.7090   -2.7070 hn        1 DZ9      0.483133
@<TRIPOS>BOND
     1    1    2 ar  
     2    1    7 ar  
     3    1   26 1   
     4    2    3 1   
     5    2    4 ar  
     6    4    5 ar  
     7    4   27 1   
     8    5    6 ar  
     9    5   28 1   
    10    6    7 ar  
    11    6   29 1   
    12    7    8 1   
    13    8    9 1   
    14    8   30 1   
    15    8   38 1   
    16    9   10 2   
    17    9   11 1   
    18   11   12 2   
    19   11   14 1   
    20   12   13 1   
    21   12   17 1   
    22   13   31 1   
    23   13   32 1   
    24   13   39 1   
    25   14   15 1   
    26   15   16 ar  
    27   15   17 ar  
    28   16   20 ar  
    29   17   18 ar  
    30   18   19 ar  
    31   18   33 1   
    32   19   20 ar  
    33   19   34 1   
    34   20   21 1   
    35   21   22 2   
    36   21   25 1   
    37   22   23 1   
    38   22   35 1   
    39   23   24 2   
    40   23   36 1   
    41   24   25 1   
    42   24   37 1   
@<TRIPOS>SUBSTRUCTURE
     1 DZ9         1 TEMP              0 ****  ****    0 ROOT
