@<TRIPOS>MOLECULE
DZA
   22    21     1     0     0
SMALL
bcc


@<TRIPOS>ATOM
      1 O10         2.5850    1.5710    0.8340 o         1 DZA     -0.844800
      2 C09         1.5260    0.8910    0.8960 c         1 DZA      0.905600
      3 O11         0.4770    1.2810    1.4980 o         1 DZA     -0.844800
      4 C08         1.5060   -0.4920    0.2220 c3        1 DZA     -0.202400
      5 C07         0.8880   -0.4520   -1.1580 c3        1 DZA     -0.134400
      6 C02        -0.6110   -0.7150   -1.1270 c         1 DZA      0.658100
      7 O01        -1.0870   -1.7310   -1.6710 o         1 DZA     -0.627100
      8 N03        -1.3820    0.3050   -0.5390 n         1 DZA     -0.428300
      9 N04        -2.6980    0.0750   -0.1880 n3        1 DZA     -0.478600
     10 C06        -2.8830   -0.3190    1.2180 c3        1 DZA      0.133600
     11 C05        -3.5540    1.2300   -0.4890 c3        1 DZA      0.133600
     12 H081        2.5630   -0.8510    0.1330 hc        1 DZA      0.035200
     13 H082        0.9500   -1.2070    0.8780 hc        1 DZA      0.035200
     14 H071        1.0910    0.5420   -1.6370 hc        1 DZA      0.055700
     15 H072        1.3430   -1.2460   -1.8080 hc        1 DZA      0.055700
     16 H03        -0.8570    0.8800    0.1230 hn        1 DZA      0.347500
     17 H061       -2.5290    0.4530    1.9540 h1        1 DZA      0.033533
     18 H062       -3.9750   -0.5080    1.3800 h1        1 DZA      0.033533
     19 H063       -2.3210   -1.2710    1.4030 h1        1 DZA      0.033533
     20 H051       -3.4340    1.5180   -1.5650 h1        1 DZA      0.033533
     21 H052       -4.6130    0.9040   -0.3200 h1        1 DZA      0.033533
     22 H053       -3.3450    2.1300    0.1490 h1        1 DZA      0.033533
@<TRIPOS>BOND
     1    1    2 1   
     2    2    3 1   
     3    2    4 1   
     4    4    5 1   
     5    4   12 1   
     6    4   13 1   
     7    5    6 1   
     8    5   14 1   
     9    5   15 1   
    10    6    7 2   
    11    6    8 1   
    12    8    9 1   
    13    8   16 1   
    14    9   10 1   
    15    9   11 1   
    16   10   17 1   
    17   10   18 1   
    18   10   19 1   
    19   11   20 1   
    20   11   21 1   
    21   11   22 1   
@<TRIPOS>SUBSTRUCTURE
     1 DZA         1 TEMP              0 ****  ****    0 ROOT
