@<TRIPOS>MOLECULE
DZA
   22    21     1     0     0
SMALL
bcc


@<TRIPOS>ATOM
      1 O10        -3.0440   -1.7750    3.2550 o         1 DZA     -0.844800
      2 C09        -1.7850   -1.7750    3.2550 c         1 DZA      0.905600
      3 O11        -1.1560   -1.7750    4.3460 o         1 DZA     -0.844800
      4 C08        -1.0290   -1.8360    1.9450 c3        1 DZA     -0.202400
      5 C07        -0.7100   -0.4310    1.4810 c3        1 DZA     -0.134400
      6 C02         0.0100   -0.4910    0.1510 c         1 DZA      0.658100
      7 O01         0.3750   -1.5600   -0.2940 o         1 DZA     -0.627100
      8 N03         0.2820    0.7050   -0.5620 n         1 DZA     -0.428300
      9 N04         0.9530    0.6520   -1.7690 n3        1 DZA     -0.478600
     10 C06         0.1420    1.2270   -2.7890 c3        1 DZA      0.133600
     11 C05         2.1730    1.3790   -1.6660 c3        1 DZA      0.133600
     12 H081       -0.1990   -2.3340    2.0720 hc        1 DZA      0.035200
     13 H082       -1.5770   -2.2840    1.2730 hc        1 DZA      0.035200
     14 H071       -0.1390    0.0080    2.1400 hc        1 DZA      0.055700
     15 H072       -1.5380    0.0750    1.3800 hc        1 DZA      0.055700
     16 H03         0.0160    1.5090   -0.2240 hn        1 DZA      0.347500
     17 H061        0.0150    2.1780   -2.6060 h1        1 DZA      0.033533
     18 H062        0.5810    1.1180   -3.6540 h1        1 DZA      0.033533
     19 H063       -0.7260    0.7800   -2.8050 h1        1 DZA      0.033533
     20 H051        1.9800    2.3110   -1.4510 h1        1 DZA      0.033533
     21 H052        2.7250    0.9900   -0.9610 h1        1 DZA      0.033533
     22 H053        2.6510    1.3330   -2.5160 h1        1 DZA      0.033533
@<TRIPOS>BOND
     1    1    2 1   
     2    2    3 1   
     3    2    4 1   
     4    4    5 1   
     5    4   12 1   
     6    4   13 1   
     7    5    6 1   
     8    5   14 1   
     9    5   15 1   
    10    6    7 2   
    11    6    8 1   
    12    8    9 1   
    13    8   16 1   
    14    9   10 1   
    15    9   11 1   
    16   10   17 1   
    17   10   18 1   
    18   10   19 1   
    19   11   20 1   
    20   11   21 1   
    21   11   22 1   
@<TRIPOS>SUBSTRUCTURE
     1 DZA         1 TEMP              0 ****  ****    0 ROOT
