@<TRIPOS>MOLECULE
DZA
   22    21     1     0     0
SMALL
bcc


@<TRIPOS>ATOM
      1 O10         2.6790    0.6710    0.9840 o         1 DZA     -0.844800
      2 C09         3.2030    0.8060   -0.1540 c         1 DZA      0.905600
      3 O11         4.3300    1.3640   -0.3450 o         1 DZA     -0.844800
      4 C08         2.4340    0.2830   -1.3790 c3        1 DZA     -0.202400
      5 C07         2.8950   -1.0930   -1.8060 c3        1 DZA     -0.134400
      6 C02         4.0130   -1.0330   -2.8370 c         1 DZA      0.658100
      7 O01         3.8310   -1.4650   -3.9930 o         1 DZA     -0.627100
      8 N03         5.2450   -0.5570   -2.3520 n         1 DZA     -0.428300
      9 N04         6.2450   -0.1820   -3.2280 n3        1 DZA     -0.478600
     10 C06         6.2680    1.2580   -3.5320 c3        1 DZA      0.133600
     11 C05         7.5710   -0.6040   -2.7570 c3        1 DZA      0.133600
     12 H081        1.3480    0.2330   -1.1120 hc        1 DZA      0.035200
     13 H082        2.5520    1.0120   -2.2200 hc        1 DZA      0.035200
     14 H071        3.2340   -1.6750   -0.9090 hc        1 DZA      0.055700
     15 H072        2.0470   -1.6550   -2.2790 hc        1 DZA      0.055700
     16 H03         5.1530    0.0400   -1.5280 hn        1 DZA      0.347500
     17 H061        5.2920    1.5420   -4.0050 h1        1 DZA      0.033533
     18 H062        6.4300    1.9070   -2.6300 h1        1 DZA      0.033533
     19 H063        7.0910    1.4380   -4.2690 h1        1 DZA      0.033533
     20 H051        8.2930   -0.4010   -3.5890 h1        1 DZA      0.033533
     21 H052        7.5640   -1.7050   -2.5470 h1        1 DZA      0.033533
     22 H053        7.9180   -0.0650   -1.8350 h1        1 DZA      0.033533
@<TRIPOS>BOND
     1    1    2 1   
     2    2    3 1   
     3    2    4 1   
     4    4    5 1   
     5    4   12 1   
     6    4   13 1   
     7    5    6 1   
     8    5   14 1   
     9    5   15 1   
    10    6    7 2   
    11    6    8 1   
    12    8    9 1   
    13    8   16 1   
    14    9   10 1   
    15    9   11 1   
    16   10   17 1   
    17   10   18 1   
    18   10   19 1   
    19   11   20 1   
    20   11   21 1   
    21   11   22 1   
@<TRIPOS>SUBSTRUCTURE
     1 DZA         1 TEMP              0 ****  ****    0 ROOT
