@<TRIPOS>MOLECULE
DZA
   24    23     1     0     0
SMALL
bcc


@<TRIPOS>ATOM
      1 O10         0.0000    0.0000    0.0000 o         1 DZA     -0.656300
      2 C09         1.3430    0.0000    0.0000 c         1 DZA      0.964600
      3 O11         1.9460    0.0000    1.0470 o         1 DZA     -0.656300
      4 C08         2.0970   -0.0020   -1.3040 c3        1 DZA     -0.081400
      5 C07         3.6000   -0.0030   -1.0250 c3        1 DZA     -0.076400
      6 C02         4.3550   -0.0050   -2.3300 c         1 DZA      0.366100
      7 O01         3.7480   -0.0050   -3.3800 o         1 DZA     -0.446100
      8 N03         5.7020   -0.0050   -2.3290 ny        1 DZA     -0.092600
      9 N04         6.3860   -0.0070   -3.5120 nx        1 DZA     -0.087200
     10 C06         7.1710    1.2240   -3.6680 c3        1 DZA      0.038100
     11 C05         7.2420   -1.1950   -3.6240 c3        1 DZA      0.038100
     12 H081        1.8360    0.8820   -1.8730 hc        1 DZA      0.047200
     13 H082        1.8340   -0.8870   -1.8720 hc        1 DZA      0.047200
     14 H071        3.8620    0.8820   -0.4570 hc        1 DZA      0.072700
     15 H072        3.8610   -0.8870   -0.4560 hc        1 DZA      0.072700
     16 H03         5.9930   -0.8180   -1.8240 hn        1 DZA      0.320800
     17 H061        6.5150    2.0830   -3.5970 hx        1 DZA      0.080533
     18 H062        7.6580    1.2220   -4.6360 hx        1 DZA      0.080533
     19 H063        7.9200    1.2760   -2.8870 hx        1 DZA      0.080533
     20 H051        7.7450   -1.1880   -4.5830 hx        1 DZA      0.080533
     21 H052        6.6340   -2.0870   -3.5410 hx        1 DZA      0.080533
     22 H053        7.9780   -1.1850   -2.8290 hx        1 DZA      0.080533
     23 H032        5.9930    0.8090   -1.8240 hn        1 DZA      0.320800
     24 H041        5.7150   -0.0380   -4.2550 hn        1 DZA      0.323800
@<TRIPOS>BOND
     1    1    2 1   
     2    2    3 1   
     3    2    4 1   
     4    4    5 1   
     5    4   12 1   
     6    4   13 1   
     7    5    6 1   
     8    5   14 1   
     9    5   15 1   
    10    6    7 2   
    11    6    8 1   
    12    8    9 1   
    13    8   16 1   
    14    8   23 1   
    15    9   10 1   
    16    9   11 1   
    17    9   24 1   
    18   10   17 1   
    19   10   18 1   
    20   10   19 1   
    21   11   20 1   
    22   11   21 1   
    23   11   22 1   
@<TRIPOS>SUBSTRUCTURE
     1 DZA         1 TEMP              0 ****  ****    0 ROOT
