@<TRIPOS>MOLECULE
DZE
   37    36     1     0     0
SMALL
bcc


@<TRIPOS>ATOM
      1 C15        -0.2220    0.0120    0.2970 c3        1 DZE     -0.129767
      2 C14         1.2720   -0.1230    0.1030 c3        1 DZE      0.201800
      3 C16         2.0150   -0.3570    1.3990 c3        1 DZE     -0.129767
      4 C17         1.6200   -1.1620   -0.9520 c3        1 DZE     -0.129767
      5 O13         1.7950    1.1230   -0.5410 os        1 DZE     -0.418900
      6 C11         1.6790    2.2890    0.0970 c         1 DZE      0.641100
      7 O12         1.1700    2.5250    1.1840 o         1 DZE     -0.446000
      8 N10         2.3110    3.3690   -0.7400 n4        1 DZE     -0.654800
      9 C4          1.8710    4.7500   -0.3410 c3        1 DZE      0.017500
     10 C2          0.5200    5.1220   -0.9920 c         1 DZE      0.569100
     11 C1         -0.2840    6.1150   -0.2400 c3        1 DZE     -0.200100
     12 O3          0.1920    4.5880   -2.0520 o         1 DZE     -0.491100
     13 C5          2.8920    5.8220   -0.7350 c3        1 DZE     -0.165400
     14 C6          4.2380    5.5880   -0.1150 c         1 DZE      0.632100
     15 O8          4.8750    6.7210    0.2420 os        1 DZE     -0.395900
     16 C9          6.1960    6.5850    0.7950 c3        1 DZE      0.121700
     17 O7          4.7800    4.4870    0.0600 o         1 DZE     -0.576000
     18 H15        -0.7200    0.2910   -0.6630 hc        1 DZE      0.072700
     19 H15A       -0.6330   -0.9700    0.6390 hc        1 DZE      0.072700
     20 H15B       -0.4570    0.7830    1.0710 hc        1 DZE      0.072700
     21 H16         1.7240   -1.3560    1.8080 hc        1 DZE      0.072700
     22 H16A        3.1190   -0.3500    1.2280 hc        1 DZE      0.072700
     23 H16B        1.7560    0.4240    2.1560 hc        1 DZE      0.072700
     24 H17         1.2760   -2.1610   -0.5870 hc        1 DZE      0.072700
     25 H17A        2.7230   -1.1950   -1.1230 hc        1 DZE      0.072700
     26 H17B        1.1100   -0.9290   -1.9170 hc        1 DZE      0.072700
     27 HN10        2.0630    3.2050   -1.7280 hn        1 DZE      0.493300
     28 H4          1.7420    4.7460    0.7870 hx        1 DZE      0.149700
     29 H1         -1.0040    6.6300   -0.9270 hc        1 DZE      0.097033
     30 H1A         0.3630    6.8800    0.2540 hc        1 DZE      0.097033
     31 H1B        -0.8750    5.5830    0.5510 hc        1 DZE      0.097033
     32 H5          2.4940    6.8220   -0.4030 hc        1 DZE      0.125700
     33 H5A         3.0260    5.8670   -1.8510 hc        1 DZE      0.125700
     34 H9          6.4950    7.6460    0.9900 h1        1 DZE      0.073700
     35 H9A         6.8660    6.0940    0.0480 h1        1 DZE      0.073700
     36 H9B         6.1490    5.9850    1.7350 h1        1 DZE      0.073700
     37 H102        3.3420    3.2830   -0.6310 hn        1 DZE      0.493300
@<TRIPOS>BOND
     1    1    2 1   
     2    1   18 1   
     3    1   19 1   
     4    1   20 1   
     5    2    3 1   
     6    2    4 1   
     7    2    5 1   
     8    3   21 1   
     9    3   22 1   
    10    3   23 1   
    11    4   24 1   
    12    4   25 1   
    13    4   26 1   
    14    5    6 1   
    15    6    7 2   
    16    6    8 1   
    17    8    9 1   
    18    8   27 1   
    19    8   37 1   
    20    9   10 1   
    21    9   13 1   
    22    9   28 1   
    23   10   11 1   
    24   10   12 2   
    25   11   29 1   
    26   11   30 1   
    27   11   31 1   
    28   13   14 1   
    29   13   32 1   
    30   13   33 1   
    31   14   15 1   
    32   14   17 2   
    33   15   16 1   
    34   16   34 1   
    35   16   35 1   
    36   16   36 1   
@<TRIPOS>SUBSTRUCTURE
     1 DZE         1 TEMP              0 ****  ****    0 ROOT
