@<TRIPOS>MOLECULE
DZE
   37    36     1     0     0
SMALL
bcc


@<TRIPOS>ATOM
      1 C15        -0.2100    0.0070    0.3280 c3        1 DZE     -0.129767
      2 C14         1.2820   -0.1250    0.1170 c3        1 DZE      0.201800
      3 C16         2.0420   -0.3550    1.4050 c3        1 DZE     -0.129767
      4 C17         1.6200   -1.1640   -0.9410 c3        1 DZE     -0.129767
      5 O13         1.7940    1.1220   -0.5350 os        1 DZE     -0.418900
      6 C11         1.6840    2.2880    0.1030 c         1 DZE      0.641100
      7 O12         1.1860    2.5250    1.1950 o         1 DZE     -0.446000
      8 N10         2.3030    3.3690   -0.7420 ny        1 DZE     -0.654800
      9 C4          1.8630    4.7490   -0.3410 c3        1 DZE      0.017500
     10 C2          0.5040    5.1160   -0.9780 c         1 DZE      0.569100
     11 C1         -0.2950    6.1070   -0.2180 c3        1 DZE     -0.200100
     12 O3          0.1660    4.5800   -2.0330 o         1 DZE     -0.491100
     13 C5          2.8760    5.8230   -0.7480 c3        1 DZE     -0.165400
     14 C6          4.2300    5.5940   -0.1430 c         1 DZE      0.632100
     15 O8          4.8670    6.7300    0.2060 os        1 DZE     -0.395900
     16 C9          6.1960    6.5980    0.7440 c3        1 DZE      0.121700
     17 O7          4.7770    4.4950    0.0280 o         1 DZE     -0.576000
     18 H15        -0.4370    0.7780    1.1040 hc        1 DZE      0.072700
     19 H15A       -0.7200    0.2830   -0.6260 hc        1 DZE      0.072700
     20 H15B       -0.6140   -0.9760    0.6770 hc        1 DZE      0.072700
     21 H16         3.1430   -0.3460    1.2200 hc        1 DZE      0.072700
     22 H16A        1.7580   -1.3550    1.8180 hc        1 DZE      0.072700
     23 H16B        1.7900    0.4260    2.1630 hc        1 DZE      0.072700
     24 H17         1.0980   -0.9340   -1.9000 hc        1 DZE      0.072700
     25 H17A        2.7210   -1.1950   -1.1250 hc        1 DZE      0.072700
     26 H17B        1.2830   -2.1630   -0.5710 hc        1 DZE      0.072700
     27 HN10        2.0440    3.2020   -1.7280 hn        1 DZE      0.493300
     28 H4          1.7470    4.7460    0.7880 hx        1 DZE      0.149700
     29 H1          0.3560    6.8760    0.2670 hc        1 DZE      0.097033
     30 H1A        -0.8750    5.5750    0.5800 hc        1 DZE      0.097033
     31 H1B        -1.0240    6.6190   -0.8980 hc        1 DZE      0.097033
     32 H5          2.4790    6.8230   -0.4130 hc        1 DZE      0.125700
     33 H5A         2.9980    5.8670   -1.8660 hc        1 DZE      0.125700
     34 H9          6.4930    7.6600    0.9350 h1        1 DZE      0.073700
     35 H9A         6.8580    6.1080   -0.0090 h1        1 DZE      0.073700
     36 H9B         6.1600    5.9990    1.6850 h1        1 DZE      0.073700
     37 H102        3.3350    3.2850   -0.6450 hn        1 DZE      0.493300
@<TRIPOS>BOND
     1    1    2 1   
     2    1   18 1   
     3    1   19 1   
     4    1   20 1   
     5    2    3 1   
     6    2    4 1   
     7    2    5 1   
     8    3   21 1   
     9    3   22 1   
    10    3   23 1   
    11    4   24 1   
    12    4   25 1   
    13    4   26 1   
    14    5    6 1   
    15    6    7 2   
    16    6    8 1   
    17    8    9 1   
    18    8   27 1   
    19    8   37 1   
    20    9   10 1   
    21    9   13 1   
    22    9   28 1   
    23   10   11 1   
    24   10   12 2   
    25   11   29 1   
    26   11   30 1   
    27   11   31 1   
    28   13   14 1   
    29   13   32 1   
    30   13   33 1   
    31   14   15 1   
    32   14   17 2   
    33   15   16 1   
    34   16   34 1   
    35   16   35 1   
    36   16   36 1   
@<TRIPOS>SUBSTRUCTURE
     1 DZE         1 TEMP              0 ****  ****    0 ROOT
