@<TRIPOS>MOLECULE
DZE
   36    35     1     0     0
SMALL
bcc


@<TRIPOS>ATOM
      1 C15        -4.0180    0.3750    0.5600 c3        1 DZE     -0.115100
      2 C14        -3.2640   -0.8170   -0.0030 c3        1 DZE      0.185800
      3 C16        -3.0130   -1.8750    1.0580 c3        1 DZE     -0.115100
      4 C17        -4.0190   -1.4160   -1.1880 c3        1 DZE     -0.115100
      5 O13        -2.0140   -0.3880   -0.6100 os        1 DZE     -0.442900
      6 C11        -1.0290    0.1400    0.1860 c         1 DZE      0.740100
      7 O12        -1.2320    0.4180    1.3780 o         1 DZE     -0.586000
      8 N10         0.1740    0.2620   -0.5060 n         1 DZE     -0.516900
      9 C4          1.2090    1.1040    0.0480 c3        1 DZE      0.000700
     10 C2          1.1430    2.5630   -0.4290 c         1 DZE      0.539100
     11 C1          1.4920    3.5770    0.6060 c3        1 DZE     -0.202100
     12 O3          0.8230    2.8520   -1.5850 o         1 DZE     -0.519100
     13 C5          2.6130    0.5850   -0.3150 c3        1 DZE     -0.131400
     14 C6          2.8850   -0.7220    0.3610 c         1 DZE      0.638100
     15 O8          3.1870   -1.7240   -0.5190 os        1 DZE     -0.434900
     16 C9          3.4550   -3.0110    0.0410 c3        1 DZE      0.125700
     17 O7          2.8940   -0.9740    1.5670 o         1 DZE     -0.533000
     18 H15        -3.4930    0.7830    1.4580 hc        1 DZE      0.052922
     19 H15A       -4.0930    1.1790   -0.2100 hc        1 DZE      0.052922
     20 H15B       -5.0460    0.0570    0.8550 hc        1 DZE      0.052922
     21 H16        -3.9880   -2.3060    1.3880 hc        1 DZE      0.052922
     22 H16A       -2.3770   -2.6920    0.6420 hc        1 DZE      0.052922
     23 H16B       -2.4950   -1.4290    1.9410 hc        1 DZE      0.052922
     24 H17        -4.1640   -0.6450   -1.9810 hc        1 DZE      0.052922
     25 H17A       -3.4460   -2.2700   -1.6190 hc        1 DZE      0.052922
     26 H17B       -5.0140   -1.7780   -0.8380 hc        1 DZE      0.052922
     27 HN10        0.1210    0.2270   -1.5020 hn        1 DZE      0.326500
     28 H4          1.0990    1.0890    1.1780 h1        1 DZE      0.121700
     29 H1          2.4470    3.2990    1.1130 hc        1 DZE      0.073033
     30 H1A         1.5990    4.5910    0.1490 hc        1 DZE      0.073033
     31 H1B         0.6780    3.6110    1.3740 hc        1 DZE      0.073033
     32 H5          2.7240    0.4780   -1.4260 hc        1 DZE      0.089700
     33 H5A         3.3730    1.3250    0.0520 hc        1 DZE      0.089700
     34 H9          3.6550   -3.6510   -0.8530 h1        1 DZE      0.052700
     35 H9A         4.3460   -2.9540    0.7130 h1        1 DZE      0.052700
     36 H9B         2.5660   -3.3700    0.6130 h1        1 DZE      0.052700
@<TRIPOS>BOND
     1    1    2 1   
     2    1   18 1   
     3    1   19 1   
     4    1   20 1   
     5    2    3 1   
     6    2    4 1   
     7    2    5 1   
     8    3   21 1   
     9    3   22 1   
    10    3   23 1   
    11    4   24 1   
    12    4   25 1   
    13    4   26 1   
    14    5    6 1   
    15    6    7 2   
    16    6    8 1   
    17    8    9 1   
    18    8   27 1   
    19    9   10 1   
    20    9   13 1   
    21    9   28 1   
    22   10   11 1   
    23   10   12 2   
    24   11   29 1   
    25   11   30 1   
    26   11   31 1   
    27   13   14 1   
    28   13   32 1   
    29   13   33 1   
    30   14   15 1   
    31   14   17 2   
    32   15   16 1   
    33   16   34 1   
    34   16   35 1   
    35   16   36 1   
@<TRIPOS>SUBSTRUCTURE
     1 DZE         1 TEMP              0 ****  ****    0 ROOT
