@<TRIPOS>MOLECULE
DZE
   36    35     1     0     0
SMALL
bcc


@<TRIPOS>ATOM
      1 C15        -0.9460    3.6010   -0.0270 c3        1 DZE     -0.114767
      2 C14         0.5550    3.4380   -0.0990 c3        1 DZE      0.186800
      3 C16         1.1200    3.3610    1.3000 c3        1 DZE     -0.114767
      4 C17         1.1570    4.6250   -0.8220 c3        1 DZE     -0.114767
      5 O13         0.8650    2.2590   -0.7950 os        1 DZE     -0.444900
      6 C11         0.4420    1.0880   -0.1460 c         1 DZE      0.743100
      7 O12         0.5030    1.0080    1.0650 o         1 DZE     -0.587000
      8 N10        -0.0150   -0.0180   -0.9070 n         1 DZE     -0.530900
      9 C4          0.0090   -1.3220   -0.3480 c3        1 DZE      0.004700
     10 C2          0.7920   -2.2450   -1.2540 c         1 DZE      0.546100
     11 C1          2.2290   -2.5840   -0.9280 c3        1 DZE     -0.208100
     12 O3          0.2730   -2.7000   -2.2540 o         1 DZE     -0.530100
     13 C5         -1.4070   -1.8360   -0.2070 c3        1 DZE     -0.140400
     14 C6         -1.4100   -3.0760    0.6590 c         1 DZE      0.633100
     15 O8         -2.0920   -4.2270    0.2330 os        1 DZE     -0.436900
     16 C9         -2.2290   -5.2130    1.2340 c3        1 DZE      0.125700
     17 O7         -0.8620   -3.0610    1.7430 o         1 DZE     -0.548000
     18 H15        -1.3520    3.2520   -0.8480 hc        1 DZE      0.052922
     19 H15A       -1.1680    4.5500    0.0680 hc        1 DZE      0.052922
     20 H15B       -1.2920    3.1050    0.7450 hc        1 DZE      0.052922
     21 H16         0.4350    3.0160    1.9110 hc        1 DZE      0.052922
     22 H16A        1.3970    4.2550    1.5910 hc        1 DZE      0.052922
     23 H16B        1.8950    2.7610    1.3070 hc        1 DZE      0.052922
     24 H17         2.1340    4.5400   -0.8320 hc        1 DZE      0.052922
     25 H17A        0.9060    5.4520   -0.3580 hc        1 DZE      0.052922
     26 H17B        0.8220    4.6510   -1.7420 hc        1 DZE      0.052922
     27 HN10       -0.3080    0.1070   -1.7600 hn        1 DZE      0.330500
     28 H4          0.4340   -1.2920    0.5320 h1        1 DZE      0.121700
     29 H1          2.4340   -2.2940   -0.0150 hc        1 DZE      0.080033
     30 H1A         2.8240   -2.1240   -1.5580 hc        1 DZE      0.080033
     31 H1B         2.3620   -3.5520   -1.0010 hc        1 DZE      0.080033
     32 H5         -1.7630   -2.0550   -1.0910 hc        1 DZE      0.101200
     33 H5A        -1.9640   -1.1470    0.2080 hc        1 DZE      0.101200
     34 H9         -2.7800   -4.8620    1.9660 h1        1 DZE      0.053700
     35 H9A        -1.3420   -5.4540    1.5790 h1        1 DZE      0.053700
     36 H9B        -2.6590   -6.0090    0.8520 h1        1 DZE      0.053700
@<TRIPOS>BOND
     1    1    2 1   
     2    1   18 1   
     3    1   19 1   
     4    1   20 1   
     5    2    3 1   
     6    2    4 1   
     7    2    5 1   
     8    3   21 1   
     9    3   22 1   
    10    3   23 1   
    11    4   24 1   
    12    4   25 1   
    13    4   26 1   
    14    5    6 1   
    15    6    7 2   
    16    6    8 1   
    17    8    9 1   
    18    8   27 1   
    19    9   10 1   
    20    9   13 1   
    21    9   28 1   
    22   10   11 1   
    23   10   12 2   
    24   11   29 1   
    25   11   30 1   
    26   11   31 1   
    27   13   14 1   
    28   13   32 1   
    29   13   33 1   
    30   14   15 1   
    31   14   17 2   
    32   15   16 1   
    33   16   34 1   
    34   16   35 1   
    35   16   36 1   
@<TRIPOS>SUBSTRUCTURE
     1 DZE         1 TEMP              0 ****  ****    0 ROOT
