@<TRIPOS>MOLECULE
DZE
   37    36     1     0     0
SMALL
bcc


@<TRIPOS>ATOM
      1 C15        -0.2350    0.0270    0.3290 c3        1 DZE     -0.129767
      2 C14         1.2590   -0.1180    0.1440 c3        1 DZE      0.201800
      3 C16         1.9940   -0.3370    1.4480 c3        1 DZE     -0.129767
      4 C17         1.6080   -1.1730   -0.8940 c3        1 DZE     -0.129767
      5 O13         1.7910    1.1170   -0.5150 os        1 DZE     -0.418900
      6 C11         1.6770    2.2920    0.1070 c         1 DZE      0.641100
      7 O12         1.1630    2.5460    1.1870 o         1 DZE     -0.446000
      8 N10         2.3190    3.3580   -0.7410 n4        1 DZE     -0.654800
      9 C4          1.8800    4.7450   -0.3670 c3        1 DZE      0.017500
     10 C2          0.5350    5.1110   -1.0340 c         1 DZE      0.569100
     11 C1         -0.2720    6.1180   -0.3030 c3        1 DZE     -0.200100
     12 O3          0.2130    4.5630   -2.0880 o         1 DZE     -0.491100
     13 C5          2.9060    5.8080   -0.7690 c3        1 DZE     -0.165400
     14 C6          4.2470    5.5790   -0.1360 c         1 DZE      0.632100
     15 O8          4.8850    6.7160    0.2100 os        1 DZE     -0.395900
     16 C9          6.2020    6.5840    0.7740 c3        1 DZE      0.121700
     17 O7          4.7850    4.4800    0.0600 o         1 DZE     -0.576000
     18 H15        -0.6520   -0.9490    0.6820 hc        1 DZE      0.072700
     19 H15A       -0.4700    0.8090    1.0910 hc        1 DZE      0.072700
     20 H15B       -0.7270    0.2950   -0.6380 hc        1 DZE      0.072700
     21 H16         1.7350    0.4560    2.1920 hc        1 DZE      0.072700
     22 H16A        3.0990   -0.3380    1.2820 hc        1 DZE      0.072700
     23 H16B        1.6970   -1.3290    1.8690 hc        1 DZE      0.072700
     24 H17         2.7110   -1.2130   -1.0590 hc        1 DZE      0.072700
     25 H17A        1.2580   -2.1650   -0.5170 hc        1 DZE      0.072700
     26 H17B        1.1040   -0.9520   -1.8650 hc        1 DZE      0.072700
     27 HN10        3.3490    3.2700   -0.6230 hn        1 DZE      0.493300
     28 H4          1.7420    4.7590    0.7600 hx        1 DZE      0.149700
     29 H1          0.3740    6.8880    0.1860 hc        1 DZE      0.097033
     30 H1A        -0.8720    5.6000    0.4900 hc        1 DZE      0.097033
     31 H1B        -0.9830    6.6270   -1.0040 hc        1 DZE      0.097033
     32 H5          3.0490    5.8360   -1.8850 hc        1 DZE      0.125700
     33 H5A         2.5090    6.8150   -0.4560 hc        1 DZE      0.125700
     34 H9          6.5020    7.6470    0.9560 h1        1 DZE      0.073700
     35 H9A         6.1450    5.9990    1.7220 h1        1 DZE      0.073700
     36 H9B         6.8750    6.0810    0.0400 h1        1 DZE      0.073700
     37 H102        2.0780    3.1790   -1.7290 hn        1 DZE      0.493300
@<TRIPOS>BOND
     1    1    2 1   
     2    1   18 1   
     3    1   19 1   
     4    1   20 1   
     5    2    3 1   
     6    2    4 1   
     7    2    5 1   
     8    3   21 1   
     9    3   22 1   
    10    3   23 1   
    11    4   24 1   
    12    4   25 1   
    13    4   26 1   
    14    5    6 1   
    15    6    7 2   
    16    6    8 1   
    17    8    9 1   
    18    8   27 1   
    19    8   37 1   
    20    9   10 1   
    21    9   13 1   
    22    9   28 1   
    23   10   11 1   
    24   10   12 2   
    25   11   29 1   
    26   11   30 1   
    27   11   31 1   
    28   13   14 1   
    29   13   32 1   
    30   13   33 1   
    31   14   15 1   
    32   14   17 2   
    33   15   16 1   
    34   16   34 1   
    35   16   35 1   
    36   16   36 1   
@<TRIPOS>SUBSTRUCTURE
     1 DZE         1 TEMP              0 ****  ****    0 ROOT
