@<TRIPOS>MOLECULE
DZF
   50    44     1     0     0
SMALL
bcc


@<TRIPOS>ATOM
      1 N1          4.4060   -2.0090   -6.5870 n2        1 DZF     -0.284000
      2 C2          4.8600   -0.9360   -7.3000 c1        1 DZF      0.241000
      3 NA2         5.3250   -0.9720   -8.6420 n2        1 DZF     -0.326000
      4 N3          4.7550    0.3280   -6.7820 n2        1 DZF     -0.320000
      5 C4          4.2020    0.5150   -5.5680 c1        1 DZF      0.324000
      6 O4          4.0290    1.6440   -5.1480 o         1 DZF     -0.314000
      7 C4A         3.7400   -0.5720   -4.8420 c1        1 DZF     -0.237000
      8 C5          3.2420   -0.3880   -3.5550 c1        1 DZF     -0.021000
      9 C6          2.8600   -1.4690   -2.8110 c1        1 DZF     -0.148000
     10 C7          2.9680   -2.7430   -3.3370 c1        1 DZF      0.014000
     11 N8          3.4560   -2.9220   -4.5980 n1        1 DZF     -0.194000
     12 C8A         3.8460   -1.8230   -5.3560 c1        1 DZF      0.123000
     13 C9          2.3080   -1.1710   -1.4190 c3        1 DZF     -0.023000
     14 N10         0.8630   -1.2810   -1.4380 n3        1 DZF     -0.275000
     15 C11        -1.5210   -0.6630    2.0270 c1        1 DZF     -0.122000
     16 C12        -1.0210    0.4260    1.3250 c1        1 DZF     -0.125500
     17 C13        -0.2100    0.2240    0.2050 c1        1 DZF     -0.125500
     18 C14         0.0960   -1.0690   -0.2080 c1        1 DZF     -0.007000
     19 C15        -0.4060   -2.1610    0.4950 c1        1 DZF     -0.185000
     20 C16        -1.2150   -1.9590    1.6130 c1        1 DZF     -0.084000
     21 C          -2.3350   -0.4390    3.3210 c2        1 DZF      0.334000
     22 O          -2.7720   -1.3930    3.9350 o         1 DZF     -0.418000
     23 N          -2.6490    0.8990    3.7510 n         1 DZF     -0.294000
     24 CA         -3.6520    1.1110    4.7530 c3        1 DZF     -0.063000
     25 CB         -3.5560    2.5330    5.2720 c3        1 DZF     -0.153000
     26 CG         -4.3260    2.6490    6.5930 c3        1 DZF     -0.219000
     27 CD         -4.5400    4.1160    6.9300 c2        1 DZF      0.328000
     28 OE1        -5.5900    4.7030    6.5450 o         1 DZF     -0.609500
     29 OE2        -3.7160    4.7190    7.6690 o         1 DZF     -0.609500
     30 CT         -5.0120    0.8850    4.1560 c2        1 DZF      0.337000
     31 O1         -5.8140    0.0810    4.7030 o         1 DZF     -0.586000
     32 O2         -5.3780    1.5540    3.1530 o         1 DZF     -0.586000
     33 HN1         4.4160   -2.8430   -6.9620 hn        1 DZF      0.256000
     34 HN21        5.3770   -0.1980   -9.1290 hn        1 DZF      0.202500
     35 HN22        5.5390   -1.7720   -9.0300 hn        1 DZF      0.202500
     36 H5          3.1470    0.5140   -3.1910 ha        1 DZF      0.167000
     37 H7          2.7150   -3.5150   -2.8000 ha        1 DZF      0.198000
     38 H91         2.6760   -1.8130   -0.7790 h1        1 DZF      0.090500
     39 H92         2.5620   -0.2650   -1.1540 h1        1 DZF      0.090500
     40 HN0         0.4280   -1.4790   -2.2210 hn        1 DZF      0.171000
     41 H12        -1.2350    1.3340    1.6150 ha        1 DZF      0.188000
     42 H13         0.1410    0.9890   -0.2880 ha        1 DZF      0.188000
     43 H15        -0.1920   -3.0680    0.2060 ha        1 DZF      0.109000
     44 H16        -1.5670   -2.7260    2.1070 ha        1 DZF      0.134000
     45 HN         -2.1720    1.6060    3.4270 hn        1 DZF      0.225000
     46 HA         -3.5140    0.4840    5.4910 h1        1 DZF      0.106000
     47 HB1        -3.9420    3.1470    4.6160 hc        1 DZF      0.085500
     48 HB2        -2.6180    2.7630    5.4200 hc        1 DZF      0.085500
     49 HG1        -3.8110    2.2210    7.3090 hc        1 DZF      0.063000
     50 HG2        -5.1950    2.2040    6.5050 hc        1 DZF      0.063000
@<TRIPOS>BOND
     1    1    2 1   
     2    1   33 1   
     3    2    4 1   
     4    3   34 1   
     5    3   35 1   
     6    4    5 1   
     7    5    6 1   
     8    7    8 1   
     9    7   12 1   
    10    8   36 1   
    11    9   10 1   
    12    9   13 1   
    13   10   37 1   
    14   11   12 1   
    15   13   14 1   
    16   13   38 1   
    17   13   39 1   
    18   14   18 1   
    19   14   40 1   
    20   15   20 1   
    21   15   21 1   
    22   16   17 1   
    23   16   41 1   
    24   17   42 1   
    25   18   19 1   
    26   19   43 1   
    27   20   44 1   
    28   21   22 1   
    29   21   23 1   
    30   23   24 1   
    31   23   45 1   
    32   24   25 1   
    33   24   30 1   
    34   24   46 1   
    35   25   26 1   
    36   25   47 1   
    37   25   48 1   
    38   26   27 1   
    39   26   49 1   
    40   26   50 1   
    41   27   28 1   
    42   27   29 1   
    43   30   31 1   
    44   30   32 1   
@<TRIPOS>SUBSTRUCTURE
     1 DZF         1 TEMP              0 ****  ****    0 ROOT
