@<TRIPOS>MOLECULE
DZF
   50    52     1     0     0
SMALL
bcc


@<TRIPOS>ATOM
      1 N1         -1.6410   -0.0810    7.6110 na        1 DZF     -0.833900
      2 C2         -0.9540    0.4850    8.7080 cc        1 DZF      0.835100
      3 NA2        -1.6820    0.5570    9.9290 nh        1 DZF     -0.888800
      4 N3          0.2870    0.9660    8.6570 nd        1 DZF     -0.746100
      5 C4          0.9660    1.0200    7.4210 c         1 DZF      0.723100
      6 O4          2.1230    1.4730    7.3720 o         1 DZF     -0.552100
      7 C4A         0.2680    0.5170    6.2170 ca        1 DZF     -0.324900
      8 C5          0.8630    0.5500    4.9470 ca        1 DZF     -0.015000
      9 C6          0.1570    0.0680    3.8510 ca        1 DZF     -0.227600
     10 C7         -1.1480   -0.4440    4.0680 ca        1 DZF      0.481200
     11 N8         -1.7530   -0.4930    5.2580 nb        1 DZF     -0.718000
     12 C8A        -1.0480   -0.0170    6.3380 ca        1 DZF      0.650200
     13 C9          0.7280    0.1090    2.4650 c3        1 DZF      0.220100
     14 N10         0.6220   -1.1740    1.7950 nh        1 DZF     -0.715600
     15 C11         0.6390   -1.2120   -2.4410 ca        1 DZF     -0.121600
     16 C12         1.5460   -1.9970   -1.7240 ca        1 DZF     -0.075500
     17 C13         1.5700   -1.9590   -0.3340 ca        1 DZF     -0.178500
     18 C14         0.6630   -1.1410    0.3740 ca        1 DZF      0.083600
     19 C15        -0.2590   -0.3650   -0.3580 ca        1 DZF     -0.178500
     20 C16        -0.2640   -0.4010   -1.7500 ca        1 DZF     -0.075500
     21 O           0.7340   -2.4170   -4.4880 o         1 DZF     -0.659100
     22 N           0.4890   -0.1090   -4.6060 n         1 DZF     -0.480900
     23 CA          0.6010    0.0580   -6.0460 c3        1 DZF     -0.041300
     24 CB         -0.6430    0.7430   -6.6370 c3        1 DZF     -0.055400
     25 CG         -1.8730   -0.1340   -6.6240 c3        1 DZF     -0.182400
     26 CD         -3.1620    0.6500   -6.8980 c         1 DZF      0.904600
     27 OE1        -3.5250    1.5500   -6.0820 o         1 DZF     -0.874300
     28 OE2        -3.8550    0.3400   -7.9150 o         1 DZF     -0.874300
     29 CT          1.8660    0.9120   -6.4080 c         1 DZF      0.904600
     30 O1          2.3970    0.7060   -7.5340 o         1 DZF     -0.851800
     31 O2          2.3050    1.7460   -5.5620 o         1 DZF     -0.851800
     32 HN1        -2.6040   -0.3270    7.6800 hn        1 DZF      0.461800
     33 HN21       -1.1330    0.8860   10.6960 hn        1 DZF      0.409800
     34 HN22       -2.2000   -0.2670   10.1470 hn        1 DZF      0.409800
     35 H5          1.8820    0.9600    4.8480 ha        1 DZF      0.168000
     36 H7         -1.7380   -0.8410    3.2170 h4        1 DZF      0.057100
     37 H91         0.1550    0.8830    1.8740 h1        1 DZF      0.054200
     38 H92         1.8000    0.4670    2.5260 h1        1 DZF      0.054200
     39 HN0         1.2960   -1.8190    2.1600 hn        1 DZF      0.370800
     40 H12         2.2390   -2.6500   -2.2780 ha        1 DZF      0.159500
     41 H13         2.2970   -2.5820    0.2070 ha        1 DZF      0.118500
     42 H15        -0.9920    0.2700    0.1610 ha        1 DZF      0.118500
     43 H16        -0.9960    0.2090   -2.3070 ha        1 DZF      0.159500
     44 HN          0.6390    0.7380   -4.0990 hn        1 DZF      0.317500
     45 HA          0.7170   -0.9590   -6.5160 h1        1 DZF      0.069700
     46 HB1        -0.8600    1.6940   -6.0840 hc        1 DZF      0.050200
     47 HB2        -0.3840    1.0180   -7.6930 hc        1 DZF      0.050200
     48 HG1        -1.7670   -0.9460   -7.3880 hc        1 DZF      0.018700
     49 HG2        -1.9880   -0.6230   -5.6230 hc        1 DZF      0.018700
     50 C           0.6420   -1.2890   -3.9460 c         1 DZF      0.652700
@<TRIPOS>BOND
     1    1    2 1   
     2    1   12 1   
     3    1   32 1   
     4    2    3 1   
     5    2    4 2   
     6    3   33 1   
     7    3   34 1   
     8    4    5 1   
     9    5    6 2   
    10    5    7 1   
    11    7    8 ar  
    12    7   12 ar  
    13    8    9 ar  
    14    8   35 1   
    15    9   10 ar  
    16    9   13 1   
    17   10   11 ar  
    18   10   36 1   
    19   11   12 ar  
    20   13   14 1   
    21   13   37 1   
    22   13   38 1   
    23   14   18 1   
    24   14   39 1   
    25   15   16 ar  
    26   15   20 ar  
    27   15   50 1   
    28   16   17 ar  
    29   16   40 1   
    30   17   18 ar  
    31   17   41 1   
    32   18   19 ar  
    33   19   20 ar  
    34   19   42 1   
    35   20   43 1   
    36   21   50 2   
    37   22   23 1   
    38   22   44 1   
    39   22   50 1   
    40   23   24 1   
    41   23   29 1   
    42   23   45 1   
    43   24   25 1   
    44   24   46 1   
    45   24   47 1   
    46   25   26 1   
    47   25   48 1   
    48   25   49 1   
    49   26   27 1   
    50   26   28 1   
    51   29   30 1   
    52   29   31 1   
@<TRIPOS>SUBSTRUCTURE
     1 DZF         1 TEMP              0 ****  ****    0 ROOT
