@<TRIPOS>MOLECULE
DZF
   51    51     1     0     0
SMALL
bcc


@<TRIPOS>ATOM
      1 N1         -2.7070   -1.1670    2.1900 nu        1 DZF     -0.381200
      2 C2         -1.6230   -1.9970    1.7990 c2        1 DZF      0.594300
      3 NA2        -1.9260   -3.1690    1.0700 nv        1 DZF     -0.483200
      4 N3         -0.3360   -1.6510    1.9510 ne        1 DZF     -0.786100
      5 C4         -0.0070   -0.4160    2.5260 c         1 DZF      0.704500
      6 O4          1.1850   -0.1070    2.6880 o         1 DZF     -0.557100
      7 C4A        -1.1340    0.5730    2.9060 c3        1 DZF     -0.078900
      8 C5         -0.7380    1.4580    3.9620 c1        1 DZF     -0.066100
      9 C6         -0.3730    2.2280    4.8030 c1        1 DZF     -0.194100
     10 C7         -3.5190   -0.4080    5.4170 c1        1 DZF      0.288300
     11 N8         -2.8770   -0.3600    4.4380 n1        1 DZF     -0.530400
     12 C8A        -2.4190   -0.1880    3.1740 ce        1 DZF      0.133600
     13 C9          0.1070    3.1340    5.8200 c3        1 DZF      0.269900
     14 N10        -0.8560    4.0770    6.3540 nu        1 DZF     -0.718000
     15 C11        -4.1020    2.6420    9.0200 ce        1 DZF     -0.058900
     16 C12        -4.2080    3.4640    7.9530 cf        1 DZF     -0.046000
     17 C13        -3.1510    4.0810    7.1990 cf        1 DZF     -0.251000
     18 C14        -1.9090    3.5450    7.0940 c2        1 DZF      0.070000
     19 C15        -1.9240    2.0840   10.3300 c1        1 DZF     -0.155500
     20 C16        -2.9170    2.3440    9.7120 cg        1 DZF     -0.133300
     21 O          -5.7260    2.0240   10.7040 o         1 DZF     -0.612100
     22 N          -5.9740    1.1590    8.5780 ns        1 DZF     -0.528900
     23 CA         -6.8740    0.0800    8.9170 c3        1 DZF     -0.050300
     24 CB         -8.3550    0.5000    8.9220 c3        1 DZF     -0.083400
     25 CG         -8.8630    0.7500   10.3240 c3        1 DZF     -0.183400
     26 CD         -9.3810   -0.4640   11.0380 c         1 DZF      0.634100
     27 OE1       -10.1740   -0.4200   11.9900 o         1 DZF     -0.561000
     28 OE2        -9.0090   -1.7260   10.7150 oh        1 DZF     -0.601100
     29 CT         -6.7090   -1.1490    7.9580 c         1 DZF      0.923600
     30 O1         -5.9130   -1.0750    6.9770 o         1 DZF     -0.836300
     31 O2         -7.3980   -2.1630    8.2430 o         1 DZF     -0.836300
     32 HN1        -3.6290   -1.5400    2.1750 hn        1 DZF      0.273700
     33 HN21       -2.7090   -3.6860    1.3980 hn        1 DZF      0.258200
     34 HN22       -1.1380   -3.7270    0.8220 hn        1 DZF      0.258200
     35 H5         -1.3280    1.2000    1.9800 hc        1 DZF      0.103700
     36 H7         -4.1860   -0.4280    6.2760 ha        1 DZF      0.301500
     37 H91         0.5140    2.5250    6.6820 h1        1 DZF      0.071700
     38 H92         0.9600    3.7400    5.3910 h1        1 DZF      0.071700
     39 HN0        -1.1360    4.7680    5.6860 hn        1 DZF      0.389800
     40 H12        -3.4310    4.9900    6.6430 ha        1 DZF      0.126000
     41 H13        -5.2220    3.6800    7.5600 ha        1 DZF      0.136000
     42 H15        -1.6460    2.6250    7.6590 h4        1 DZF      0.155000
     43 H16        -1.0510    1.8510   10.8820 ha        1 DZF      0.161500
     44 HN         -5.5260    1.0400    7.6920 hn        1 DZF      0.315500
     45 HA         -8.5040    1.4300    8.3130 hc        1 DZF      0.059700
     46 HB1        -6.6100   -0.2950    9.9530 h1        1 DZF      0.061700
     47 HB2        -8.9590   -0.3110    8.4310 hc        1 DZF      0.059700
     48 HG1        -8.4160   -1.7470    9.9350 ho        1 DZF      0.483000
     49 HG2        -8.0400    1.1930   10.9550 hc        1 DZF      0.084200
     50 H2         -9.6990    1.4980   10.2970 hc        1 DZF      0.084200
     51 C          -5.3230    1.9160    9.5280 c         1 DZF      0.658300
@<TRIPOS>BOND
     1    1    2 1   
     2    1   12 2   
     3    1   32 1   
     4    2    3 1   
     5    2    4 2   
     6    3   33 1   
     7    3   34 1   
     8    4    5 1   
     9    5    6 2   
    10    5    7 1   
    11    7    8 1   
    12    7   12 1   
    13    7   35 1   
    14    8    9 3   
    15    9   13 1   
    16   10   11 3   
    17   10   36 1   
    18   11   12 1   
    19   13   14 1   
    20   13   37 1   
    21   13   38 1   
    22   14   18 1   
    23   14   39 1   
    24   15   16 2   
    25   15   20 1   
    26   15   51 1   
    27   16   17 1   
    28   16   41 1   
    29   17   18 2   
    30   17   40 1   
    31   18   42 1   
    32   19   20 3   
    33   19   43 1   
    34   21   51 2   
    35   22   23 1   
    36   22   44 1   
    37   22   51 1   
    38   23   24 1   
    39   23   29 1   
    40   23   46 1   
    41   24   25 1   
    42   24   45 1   
    43   24   47 1   
    44   25   26 1   
    45   25   49 1   
    46   25   50 1   
    47   26   27 2   
    48   26   28 1   
    49   28   48 1   
    50   29   30 1   
    51   29   31 1   
@<TRIPOS>SUBSTRUCTURE
     1 DZF         1 TEMP              0 ****  ****    0 ROOT
