@<TRIPOS>MOLECULE
DZG
   52    55     1     0     0
SMALL
bcc


@<TRIPOS>ATOM
      1 CAA        -5.6190   -3.9920    1.2350 c3        1 DZG      0.109700
      2 OAS        -5.1270   -3.4930   -0.0070 os        1 DZG     -0.319900
      3 CAV        -4.6270   -2.2130    0.0000 ca        1 DZG      0.190100
      4 CAG        -4.5380   -1.4000    1.1400 ca        1 DZG     -0.211000
      5 CAI        -4.0050   -0.1220    1.0170 ca        1 DZG      0.019500
      6 CAF        -4.1890   -1.7390   -1.2540 ca        1 DZG     -0.211000
      7 CAH        -3.6630   -0.4600   -1.3430 ca        1 DZG      0.019500
      8 CAW        -3.5540    0.3680   -0.2140 ca        1 DZG     -0.425500
      9 SBC        -2.9470    1.9290   -0.3510 sy        1 DZG      1.516200
     10 OAB        -3.2090    2.4000   -1.6570 o         1 DZG     -0.653300
     11 OAC        -3.4510    2.6980    0.7230 o         1 DZG     -0.653300
     12 NBA        -1.3370    1.7310   -0.1640 n3        1 DZG     -0.811500
     13 CAP        -0.4510    1.5000   -1.2740 c3        1 DZG      0.207300
     14 CAR         0.8150    2.3890   -1.2490 c3        1 DZG      0.216800
     15 CAO        -0.6940    1.7890    1.1220 c3        1 DZG      0.207300
     16 CAQ         0.5740    2.6770    1.1390 c3        1 DZG      0.216800
     17 NBB         1.4640    2.4250    0.0360 n3        1 DZG     -0.810500
     18 SBD         3.0580    2.1510    0.2290 sy        1 DZG      1.511200
     19 OAD         3.7420    2.5110   -0.9510 o         1 DZG     -0.648300
     20 OAE         3.4920    2.7410    1.4370 o         1 DZG     -0.648300
     21 CAX         3.1540    0.4720    0.4020 ca        1 DZG     -0.387500
     22 CAL         3.2870   -0.3470   -0.7240 ca        1 DZG     -0.007000
     23 CAZ         3.3850   -1.7300   -0.5680 ca        1 DZG      0.021100
     24 OAU         3.4800   -2.5060   -1.7140 os        1 DZG     -0.311900
     25 CAN         4.0030   -3.8140   -1.4560 c3        1 DZG      0.089400
     26 CAM         3.3080   -4.4500   -0.2650 c3        1 DZG      0.088400
     27 OAT         3.4670   -3.6640    0.9240 os        1 DZG     -0.310900
     28 CAY         3.3540   -2.3050    0.7190 ca        1 DZG      0.124100
     29 CAK         3.2440   -1.4860    1.8520 ca        1 DZG     -0.154000
     30 CAJ         3.1450   -0.1110    1.6770 ca        1 DZG     -0.018000
     31 HAA        -5.9800   -5.0190    0.9740 h1        1 DZG      0.051033
     32 HAAA       -4.7970   -4.0420    1.9900 h1        1 DZG      0.051033
     33 HAAB       -6.4600   -3.3580    1.6080 h1        1 DZG      0.051033
     34 HAG        -4.8880   -1.7560    2.1190 ha        1 DZG      0.152000
     35 HAI        -3.9500    0.5300    1.9070 ha        1 DZG      0.153500
     36 HAF        -4.2770   -2.3860   -2.1380 ha        1 DZG      0.152000
     37 HAH        -3.3380   -0.0720   -2.3250 ha        1 DZG      0.153500
     38 HAP        -0.1320    0.4170   -1.2770 h1        1 DZG      0.058700
     39 HAPA       -0.9980    1.7150   -2.2380 h1        1 DZG      0.058700
     40 HAR         1.5370    1.9940   -2.0200 h1        1 DZG      0.064200
     41 HARA        0.5260    3.4390   -1.5440 h1        1 DZG      0.064200
     42 HAO        -1.4150    2.2120    1.8800 h1        1 DZG      0.058700
     43 HAOA       -0.4080    0.7450    1.4430 h1        1 DZG      0.058700
     44 HAQ         0.2560    3.7600    1.1140 h1        1 DZG      0.064200
     45 HAQA        1.1190    2.4940    2.1080 h1        1 DZG      0.064200
     46 HAL         3.3340    0.0910   -1.7360 ha        1 DZG      0.169000
     47 HAN         3.7940   -4.3790   -2.4020 h1        1 DZG      0.076200
     48 HANA        5.1070   -3.7350   -1.2800 h1        1 DZG      0.076200
     49 HAM         2.2100   -4.5700   -0.4610 h1        1 DZG      0.075200
     50 HAMA        3.7710   -5.4360    0.0030 h1        1 DZG      0.075200
     51 HAK         3.2410   -1.9400    2.8530 ha        1 DZG      0.159000
     52 HAJ         3.0750    0.5440    2.5650 ha        1 DZG      0.158000
@<TRIPOS>BOND
     1    1    2 1   
     2    1   31 1   
     3    1   32 1   
     4    1   33 1   
     5    2    3 1   
     6    3    4 ar  
     7    3    6 ar  
     8    4    5 ar  
     9    4   34 1   
    10    5    8 ar  
    11    5   35 1   
    12    6    7 ar  
    13    6   36 1   
    14    7    8 ar  
    15    7   37 1   
    16    8    9 1   
    17    9   10 2   
    18    9   11 2   
    19    9   12 1   
    20   12   13 1   
    21   12   15 1   
    22   13   14 1   
    23   13   38 1   
    24   13   39 1   
    25   14   17 1   
    26   14   40 1   
    27   14   41 1   
    28   15   16 1   
    29   15   42 1   
    30   15   43 1   
    31   16   17 1   
    32   16   44 1   
    33   16   45 1   
    34   17   18 1   
    35   18   19 2   
    36   18   20 2   
    37   18   21 1   
    38   21   22 ar  
    39   21   30 ar  
    40   22   23 ar  
    41   22   46 1   
    42   23   24 1   
    43   23   28 ar  
    44   24   25 1   
    45   25   26 1   
    46   25   47 1   
    47   25   48 1   
    48   26   27 1   
    49   26   49 1   
    50   26   50 1   
    51   27   28 1   
    52   28   29 ar  
    53   29   30 ar  
    54   29   51 1   
    55   30   52 1   
@<TRIPOS>SUBSTRUCTURE
     1 DZG         1 TEMP              0 ****  ****    0 ROOT
