@<TRIPOS>MOLECULE
DZG
   52    55     1     0     0
SMALL
bcc


@<TRIPOS>ATOM
      1 CAA         0.0720   -0.3350   -0.0510 c3        1 DZG      0.109700
      2 OAS         1.4930   -0.4030    0.0390 os        1 DZG     -0.319900
      3 CAV         2.0360   -0.2860    1.2950 ca        1 DZG      0.190100
      4 CAG         1.2890   -0.1470    2.4740 ca        1 DZG     -0.211000
      5 CAI         1.9590   -0.0450    3.6890 ca        1 DZG      0.019000
      6 CAF         3.4460   -0.3160    1.3390 ca        1 DZG     -0.211000
      7 CAH         4.0820   -0.2110    2.5650 ca        1 DZG      0.019000
      8 CAW         3.3560   -0.0810    3.7600 ca        1 DZG     -0.425500
      9 SBC         4.1490    0.0810    5.2320 sy        1 DZG      1.516200
     10 OAB         5.4070    0.6810    5.0010 o         1 DZG     -0.653300
     11 OAC         3.2810    0.7360    6.1350 o         1 DZG     -0.653300
     12 NBA         4.3700   -1.4620    5.7200 n3        1 DZG     -0.811500
     13 CAP         5.5530   -2.2150    5.3940 c3        1 DZG      0.207300
     14 CAR         6.1680   -2.9540    6.6070 c3        1 DZG      0.216800
     15 CAO         3.4050   -2.1670    6.5200 c3        1 DZG      0.207300
     16 CAQ         4.0280   -2.9070    7.7290 c3        1 DZG      0.216800
     17 NBB         5.1980   -3.6740    7.3910 n3        1 DZG     -0.810500
     18 SBD         5.3850   -5.2360    7.8110 sy        1 DZG      1.511200
     19 OAD         6.7610   -5.5390    7.8860 o         1 DZG     -0.648300
     20 OAE         4.5970   -5.5120    8.9500 o         1 DZG     -0.648300
     21 CAX         4.7300   -6.0810    6.5020 ca        1 DZG     -0.387500
     22 CAL         5.5330   -6.4200    5.4080 ca        1 DZG     -0.007000
     23 CAZ         4.9860   -7.1360    4.3420 ca        1 DZG      0.021100
     24 OAU         5.8100   -7.4180    3.2620 os        1 DZG     -0.311900
     25 CAN         5.3140   -8.4910    2.4540 c3        1 DZG      0.089400
     26 CAM         3.8390   -8.3020    2.1460 c3        1 DZG      0.088400
     27 OAT         3.0510   -8.2450    3.3440 os        1 DZG     -0.310900
     28 CAY         3.6310   -7.5200    4.3640 ca        1 DZG      0.124100
     29 CAK         2.8280   -7.2030    5.4690 ca        1 DZG     -0.154000
     30 CAJ         3.3890   -6.4890    6.5210 ca        1 DZG     -0.018000
     31 HAA        -0.2990    0.6460    0.3310 h1        1 DZG      0.051033
     32 HAAA       -0.1210   -0.4330   -1.1490 h1        1 DZG      0.051033
     33 HAAB       -0.3960   -1.1800    0.5100 h1        1 DZG      0.051033
     34 HAG         0.1920   -0.1110    2.4490 ha        1 DZG      0.152000
     35 HAI         1.3770    0.0850    4.6200 ha        1 DZG      0.153500
     36 HAF         4.0150   -0.4140    0.4030 ha        1 DZG      0.152000
     37 HAH         5.1870   -0.2100    2.6070 ha        1 DZG      0.153500
     38 HAP         6.3400   -1.5150    4.9880 h1        1 DZG      0.058450
     39 HAPA        5.3030   -2.9740    4.5970 h1        1 DZG      0.058450
     40 HAR         6.6850   -2.1980    7.2660 h1        1 DZG      0.064200
     41 HARA        6.9450   -3.6750    6.2220 h1        1 DZG      0.064200
     42 HAO         2.6490   -1.4330    6.9240 h1        1 DZG      0.058450
     43 HAOA        2.8650   -2.9200    5.8750 h1        1 DZG      0.058450
     44 HAQ         3.2450   -3.5920    8.1640 h1        1 DZG      0.064200
     45 HAQA        4.3030   -2.1450    8.5150 h1        1 DZG      0.064200
     46 HAL         6.6010   -6.1440    5.3870 ha        1 DZG      0.169000
     47 HAN         5.4890   -9.4610    2.9890 h1        1 DZG      0.076200
     48 HANA        5.9370   -8.4370    1.5220 h1        1 DZG      0.076200
     49 HAM         3.6700   -7.3540    1.5710 h1        1 DZG      0.075200
     50 HAMA        3.4180   -9.1800    1.5910 h1        1 DZG      0.075200
     51 HAK         1.7770   -7.5250    5.4890 ha        1 DZG      0.159000
     52 HAJ         2.7690   -6.2480    7.4040 ha        1 DZG      0.158000
@<TRIPOS>BOND
     1    1    2 1   
     2    1   31 1   
     3    1   32 1   
     4    1   33 1   
     5    2    3 1   
     6    3    4 ar  
     7    3    6 ar  
     8    4    5 ar  
     9    4   34 1   
    10    5    8 ar  
    11    5   35 1   
    12    6    7 ar  
    13    6   36 1   
    14    7    8 ar  
    15    7   37 1   
    16    8    9 1   
    17    9   10 2   
    18    9   11 2   
    19    9   12 1   
    20   12   13 1   
    21   12   15 1   
    22   13   14 1   
    23   13   38 1   
    24   13   39 1   
    25   14   17 1   
    26   14   40 1   
    27   14   41 1   
    28   15   16 1   
    29   15   42 1   
    30   15   43 1   
    31   16   17 1   
    32   16   44 1   
    33   16   45 1   
    34   17   18 1   
    35   18   19 2   
    36   18   20 2   
    37   18   21 1   
    38   21   22 ar  
    39   21   30 ar  
    40   22   23 ar  
    41   22   46 1   
    42   23   24 1   
    43   23   28 ar  
    44   24   25 1   
    45   25   26 1   
    46   25   47 1   
    47   25   48 1   
    48   26   27 1   
    49   26   49 1   
    50   26   50 1   
    51   27   28 1   
    52   28   29 ar  
    53   29   30 ar  
    54   29   51 1   
    55   30   52 1   
@<TRIPOS>SUBSTRUCTURE
     1 DZG         1 TEMP              0 ****  ****    0 ROOT
