@<TRIPOS>MOLECULE
DZG
   52    55     1     0     0
SMALL
bcc


@<TRIPOS>ATOM
      1 CAA         0.0720   -0.3440   -0.0530 c3        1 DZG      0.109700
      2 OAS         1.4930   -0.4060    0.0380 os        1 DZG     -0.319900
      3 CAV         2.0350   -0.2890    1.2950 ca        1 DZG      0.190100
      4 CAG         1.2860   -0.1540    2.4730 ca        1 DZG     -0.211000
      5 CAI         1.9540   -0.0510    3.6880 ca        1 DZG      0.019500
      6 CAF         3.4450   -0.3130    1.3400 ca        1 DZG     -0.211000
      7 CAH         4.0790   -0.2080    2.5670 ca        1 DZG      0.019500
      8 CAW         3.3510   -0.0820    3.7610 ca        1 DZG     -0.425500
      9 SBC         4.1420    0.0810    5.2350 sy        1 DZG      1.516200
     10 OAB         5.3980    0.6850    5.0060 o         1 DZG     -0.653300
     11 OAC         3.2710    0.7320    6.1380 o         1 DZG     -0.653300
     12 NBA         4.3680   -1.4620    5.7210 n3        1 DZG     -0.811500
     13 CAP         5.5520   -2.2110    5.3930 c3        1 DZG      0.207300
     14 CAR         6.1700   -2.9490    6.6050 c3        1 DZG      0.216800
     15 CAO         3.4050   -2.1700    6.5220 c3        1 DZG      0.207300
     16 CAQ         4.0310   -2.9080    7.7300 c3        1 DZG      0.216800
     17 NBB         5.2030   -3.6720    7.3900 n3        1 DZG     -0.810500
     18 SBD         5.3950   -5.2340    7.8080 sy        1 DZG      1.511200
     19 OAD         6.7720   -5.5340    7.8780 o         1 DZG     -0.648300
     20 OAE         4.6110   -5.5120    8.9500 o         1 DZG     -0.648300
     21 CAX         4.7370   -6.0800    6.5010 ca        1 DZG     -0.387500
     22 CAL         5.5360   -6.4170    5.4040 ca        1 DZG     -0.007000
     23 CAZ         4.9870   -7.1330    4.3400 ca        1 DZG      0.021100
     24 OAU         5.8070   -7.4130    3.2570 os        1 DZG     -0.311900
     25 CAN         5.3110   -8.4860    2.4490 c3        1 DZG      0.089400
     26 CAM         3.8340   -8.2990    2.1470 c3        1 DZG      0.088400
     27 OAT         3.0500   -8.2450    3.3480 os        1 DZG     -0.310900
     28 CAY         3.6320   -7.5200    4.3660 ca        1 DZG      0.124100
     29 CAK         2.8330   -7.2040    5.4750 ca        1 DZG     -0.154000
     30 CAJ         3.3960   -6.4900    6.5250 ca        1 DZG     -0.018000
     31 HAA        -0.1190   -0.4410   -1.1520 h1        1 DZG      0.051033
     32 HAAA       -0.3030    0.6360    0.3300 h1        1 DZG      0.051033
     33 HAAB       -0.3940   -1.1910    0.5060 h1        1 DZG      0.051033
     34 HAG         0.1880   -0.1220    2.4470 ha        1 DZG      0.152000
     35 HAI         1.3700    0.0750    4.6190 ha        1 DZG      0.153500
     36 HAF         4.0150   -0.4080    0.4050 ha        1 DZG      0.152000
     37 HAH         5.1830   -0.2030    2.6100 ha        1 DZG      0.153500
     38 HAP         5.3030   -2.9700    4.5960 h1        1 DZG      0.058700
     39 HAPA        6.3360   -1.5090    4.9870 h1        1 DZG      0.058700
     40 HAR         6.9490   -3.6680    6.2190 h1        1 DZG      0.064200
     41 HARA        6.6870   -2.1930    7.2640 h1        1 DZG      0.064200
     42 HAO         2.6480   -1.4380    6.9280 h1        1 DZG      0.058700
     43 HAOA        2.8660   -2.9230    5.8780 h1        1 DZG      0.058700
     44 HAQ         4.3050   -2.1470    8.5160 h1        1 DZG      0.064200
     45 HAQA        3.2510   -3.5960    8.1650 h1        1 DZG      0.064200
     46 HAL         6.6040   -6.1380    5.3800 ha        1 DZG      0.169000
     47 HAN         5.9300   -8.4310    1.5160 h1        1 DZG      0.076200
     48 HANA        5.4890   -9.4560    2.9830 h1        1 DZG      0.076200
     49 HAM         3.4120   -9.1780    1.5930 h1        1 DZG      0.075200
     50 HAMA        3.6610   -7.3510    1.5730 h1        1 DZG      0.075200
     51 HAK         1.7830   -7.5280    5.4980 ha        1 DZG      0.159000
     52 HAJ         2.7790   -6.2510    7.4100 ha        1 DZG      0.158000
@<TRIPOS>BOND
     1    1    2 1   
     2    1   31 1   
     3    1   32 1   
     4    1   33 1   
     5    2    3 1   
     6    3    4 ar  
     7    3    6 ar  
     8    4    5 ar  
     9    4   34 1   
    10    5    8 ar  
    11    5   35 1   
    12    6    7 ar  
    13    6   36 1   
    14    7    8 ar  
    15    7   37 1   
    16    8    9 1   
    17    9   10 2   
    18    9   11 2   
    19    9   12 1   
    20   12   13 1   
    21   12   15 1   
    22   13   14 1   
    23   13   38 1   
    24   13   39 1   
    25   14   17 1   
    26   14   40 1   
    27   14   41 1   
    28   15   16 1   
    29   15   42 1   
    30   15   43 1   
    31   16   17 1   
    32   16   44 1   
    33   16   45 1   
    34   17   18 1   
    35   18   19 2   
    36   18   20 2   
    37   18   21 1   
    38   21   22 ar  
    39   21   30 ar  
    40   22   23 ar  
    41   22   46 1   
    42   23   24 1   
    43   23   28 ar  
    44   24   25 1   
    45   25   26 1   
    46   25   47 1   
    47   25   48 1   
    48   26   27 1   
    49   26   49 1   
    50   26   50 1   
    51   27   28 1   
    52   28   29 ar  
    53   29   30 ar  
    54   29   51 1   
    55   30   52 1   
@<TRIPOS>SUBSTRUCTURE
     1 DZG         1 TEMP              0 ****  ****    0 ROOT
