@<TRIPOS>MOLECULE
DZG
   52    55     1     0     0
SMALL
bcc


@<TRIPOS>ATOM
      1 CAA         0.0690   -0.3340   -0.0470 c3        1 DZG      0.109700
      2 OAS         1.4910   -0.3960    0.0440 os        1 DZG     -0.319900
      3 CAV         2.0320   -0.2820    1.3010 ca        1 DZG      0.190100
      4 CAG         1.2830   -0.1500    2.4800 ca        1 DZG     -0.211000
      5 CAI         1.9500   -0.0500    3.6950 ca        1 DZG      0.019500
      6 CAF         3.4420   -0.3060    1.3470 ca        1 DZG     -0.211000
      7 CAH         4.0760   -0.2030    2.5740 ca        1 DZG      0.019500
      8 CAW         3.3480   -0.0800    3.7680 ca        1 DZG     -0.425500
      9 SBC         4.1380    0.0790    5.2420 sy        1 DZG      1.516200
     10 OAB         5.3940    0.6840    5.0150 o         1 DZG     -0.653300
     11 OAC         3.2670    0.7290    6.1460 o         1 DZG     -0.653300
     12 NBA         4.3640   -1.4640    5.7250 n3        1 DZG     -0.811500
     13 CAP         5.5480   -2.2130    5.3970 c3        1 DZG      0.207300
     14 CAR         6.1650   -2.9530    6.6080 c3        1 DZG      0.216800
     15 CAO         3.4000   -2.1740    6.5240 c3        1 DZG      0.207300
     16 CAQ         4.0260   -2.9150    7.7310 c3        1 DZG      0.216800
     17 NBB         5.1980   -3.6770    7.3910 n3        1 DZG     -0.810500
     18 SBD         5.3900   -5.2400    7.8070 sy        1 DZG      1.511200
     19 OAD         6.7680   -5.5390    7.8800 o         1 DZG     -0.648300
     20 OAE         4.6040   -5.5210    8.9460 o         1 DZG     -0.648300
     21 CAX         4.7370   -6.0840    6.4960 ca        1 DZG     -0.387500
     22 CAL         5.5400   -6.4180    5.4010 ca        1 DZG     -0.007000
     23 CAZ         4.9940   -7.1330    4.3330 ca        1 DZG      0.021100
     24 OAU         5.8180   -7.4110    3.2520 os        1 DZG     -0.311900
     25 CAN         5.3250   -8.4830    2.4420 c3        1 DZG      0.089400
     26 CAM         3.8480   -8.2970    2.1360 c3        1 DZG      0.088400
     27 OAT         3.0620   -8.2450    3.3340 os        1 DZG     -0.310900
     28 CAY         3.6390   -7.5210    4.3560 ca        1 DZG      0.124100
     29 CAK         2.8370   -7.2080    5.4630 ca        1 DZG     -0.154000
     30 CAJ         3.3970   -6.4950    6.5150 ca        1 DZG     -0.018000
     31 HAA        -0.1220   -0.4280   -1.1460 h1        1 DZG      0.051033
     32 HAAA       -0.3060    0.6450    0.3380 h1        1 DZG      0.051033
     33 HAAB       -0.3960   -1.1820    0.5100 h1        1 DZG      0.051033
     34 HAG         0.1850   -0.1180    2.4540 ha        1 DZG      0.152000
     35 HAI         1.3660    0.0740    4.6260 ha        1 DZG      0.153500
     36 HAF         4.0120   -0.3990    0.4110 ha        1 DZG      0.152000
     37 HAH         5.1800   -0.1980    2.6170 ha        1 DZG      0.153500
     38 HAP         6.3330   -1.5100    4.9930 h1        1 DZG      0.058450
     39 HAPA        5.3000   -2.9710    4.5980 h1        1 DZG      0.058450
     40 HAR         6.9450   -3.6700    6.2210 h1        1 DZG      0.064200
     41 HARA        6.6810   -2.1970    7.2690 h1        1 DZG      0.064200
     42 HAO         2.6430   -1.4430    6.9300 h1        1 DZG      0.058450
     43 HAOA        2.8620   -2.9270    5.8770 h1        1 DZG      0.058450
     44 HAQ         3.2450   -3.6040    8.1640 h1        1 DZG      0.064200
     45 HAQA        4.2980   -2.1550    8.5190 h1        1 DZG      0.064200
     46 HAL         6.6070   -6.1390    5.3800 ha        1 DZG      0.169000
     47 HAN         5.5030   -9.4530    2.9740 h1        1 DZG      0.076200
     48 HANA        5.9460   -8.4250    1.5100 h1        1 DZG      0.076200
     49 HAM         3.6760   -7.3480    1.5630 h1        1 DZG      0.075200
     50 HAMA        3.4290   -9.1750    1.5790 h1        1 DZG      0.075200
     51 HAK         1.7870   -7.5340    5.4820 ha        1 DZG      0.159000
     52 HAJ         2.7760   -6.2590    7.3990 ha        1 DZG      0.158000
@<TRIPOS>BOND
     1    1    2 1   
     2    1   31 1   
     3    1   32 1   
     4    1   33 1   
     5    2    3 1   
     6    3    4 ar  
     7    3    6 ar  
     8    4    5 ar  
     9    4   34 1   
    10    5    8 ar  
    11    5   35 1   
    12    6    7 ar  
    13    6   36 1   
    14    7    8 ar  
    15    7   37 1   
    16    8    9 1   
    17    9   10 2   
    18    9   11 2   
    19    9   12 1   
    20   12   13 1   
    21   12   15 1   
    22   13   14 1   
    23   13   38 1   
    24   13   39 1   
    25   14   17 1   
    26   14   40 1   
    27   14   41 1   
    28   15   16 1   
    29   15   42 1   
    30   15   43 1   
    31   16   17 1   
    32   16   44 1   
    33   16   45 1   
    34   17   18 1   
    35   18   19 2   
    36   18   20 2   
    37   18   21 1   
    38   21   22 ar  
    39   21   30 ar  
    40   22   23 ar  
    41   22   46 1   
    42   23   24 1   
    43   23   28 ar  
    44   24   25 1   
    45   25   26 1   
    46   25   47 1   
    47   25   48 1   
    48   26   27 1   
    49   26   49 1   
    50   26   50 1   
    51   27   28 1   
    52   28   29 ar  
    53   29   30 ar  
    54   29   51 1   
    55   30   52 1   
@<TRIPOS>SUBSTRUCTURE
     1 DZG         1 TEMP              0 ****  ****    0 ROOT
