@<TRIPOS>MOLECULE
DZL
   55    59     1     0     0
SMALL
bcc


@<TRIPOS>ATOM
      1 C1          0.1730   -0.8560   -0.2090 c3        1 DZL     -0.095100
      2 C2          1.2700    0.1050    0.1840 c3        1 DZL     -0.132700
      3 C3          1.4420    0.1850    1.6580 cc        1 DZL      0.499700
      4 N4          1.7800   -0.8410    2.4520 nd        1 DZL     -0.627000
      5 C5          1.8400   -0.4360    3.7660 cd        1 DZL      0.483600
      6 C6          1.5540    0.9380    3.9580 cc        1 DZL     -0.382000
      7 S7          1.2020    1.6710    2.4840 ss        1 DZL     -0.060300
      8 C8          1.5290    1.5600    5.2560 c         1 DZL      0.631700
      9 O9          1.0330    1.1640    6.3010 o         1 DZL     -0.416100
     10 N10         2.2190    2.9160    5.3260 n4        1 DZL     -0.676800
     11 C11         3.2190    2.9960    6.4510 c3        1 DZL      0.125500
     12 C12         3.5430    4.4620    6.8100 c3        1 DZL     -0.078700
     13 C13         4.3230    5.1380    5.6890 c3        1 DZL     -0.085900
     14 C14         5.6210    4.3820    5.4270 c3        1 DZL     -0.064700
     15 C15         5.3050    2.9470    5.0180 c3        1 DZL     -0.085900
     16 C16         4.5290    2.2470    6.1270 c3        1 DZL     -0.078700
     17 C17         5.3670    2.2370    7.4020 c3        1 DZL     -0.084900
     18 C18         5.6890    3.6800    7.8190 c3        1 DZL      0.150800
     19 C19         6.4690    4.3720    6.6930 c3        1 DZL     -0.106400
     20 C20         4.3830    4.4420    8.0830 c3        1 DZL     -0.084900
     21 O21         6.4080    3.7000    9.0400 oh        1 DZL     -0.574800
     22 C22         2.2240   -1.3500    4.9040 c3        1 DZL      0.088800
     23 C23         2.2730   -2.8450    4.5800 c3        1 DZL     -0.093400
     24 C24         3.7510   -3.2140    4.5770 c3        1 DZL     -0.107400
     25 C25         4.4870   -1.9890    5.1040 c3        1 DZL      0.125400
     26 O26         3.5250   -0.9490    5.3530 os        1 DZL     -0.446600
     27 H11C        0.0770   -0.8700   -1.3220 hc        1 DZL      0.057700
     28 H12C        0.4080   -1.8910    0.1400 hc        1 DZL      0.057700
     29 H13C       -0.8060   -0.5460    0.2270 hc        1 DZL      0.057700
     30 H21C        2.2430   -0.2270   -0.2770 hc        1 DZL      0.079200
     31 H22C        1.0400    1.1320   -0.2130 hc        1 DZL      0.079200
     32 H22         1.5210   -1.1390    5.7610 h1        1 DZL      0.093700
     33 H10         1.5100    3.6400    5.4800 hn        1 DZL      0.452800
     34 H11         2.7250    2.5010    7.3430 hx        1 DZL      0.122700
     35 H12         2.5950    5.0310    7.0130 hc        1 DZL      0.081700
     36 H16         4.3000    1.1850    5.8280 hc        1 DZL      0.081700
     37 H131        3.7110    5.1900    4.7530 hc        1 DZL      0.052950
     38 H132        4.5590    6.1930    5.9920 hc        1 DZL      0.052950
     39 H201        3.8250    3.9530    8.9220 hc        1 DZL      0.075950
     40 H202        4.6210    5.4910    8.3970 hc        1 DZL      0.075950
     41 H14         6.1880    4.8900    4.6010 hc        1 DZL      0.078700
     42 H151        6.2620    2.3890    4.8380 hc        1 DZL      0.052950
     43 H152        4.7370    2.9360    4.0540 hc        1 DZL      0.052950
     44 H191        7.4300    3.8290    6.5070 hc        1 DZL      0.067200
     45 H192        6.7190    5.4190    7.0020 hc        1 DZL      0.067200
     46 H171        4.8200    1.7200    8.2320 hc        1 DZL      0.075950
     47 H172        6.3170    1.6750    7.2160 hc        1 DZL      0.075950
     48 H21         7.2710    3.3010    8.8700 ho        1 DZL      0.414000
     49 H231        1.7290   -3.4080    5.3810 hc        1 DZL      0.079200
     50 H232        1.7880   -3.0980    3.6070 hc        1 DZL      0.079200
     51 H241        4.0970   -3.4660    3.5430 hc        1 DZL      0.070700
     52 H242        3.9430   -4.1040    5.2250 hc        1 DZL      0.070700
     53 H251        5.2240   -1.5830    4.3650 h1        1 DZL      0.057700
     54 H252        4.9920   -2.1780    6.0860 h1        1 DZL      0.057700
     55 H102        2.7000    3.1050    4.4400 hn        1 DZL      0.452800
@<TRIPOS>BOND
     1    1    2 1   
     2    1   27 1   
     3    1   28 1   
     4    1   29 1   
     5    2    3 1   
     6    2   30 1   
     7    2   31 1   
     8    3    4 2   
     9    3    7 1   
    10    4    5 1   
    11    5    6 2   
    12    5   22 1   
    13    6    7 1   
    14    6    8 1   
    15    8    9 2   
    16    8   10 1   
    17   10   11 1   
    18   10   33 1   
    19   10   55 1   
    20   11   12 1   
    21   11   16 1   
    22   11   34 1   
    23   12   13 1   
    24   12   20 1   
    25   12   35 1   
    26   13   14 1   
    27   13   37 1   
    28   13   38 1   
    29   14   15 1   
    30   14   19 1   
    31   14   41 1   
    32   15   16 1   
    33   15   42 1   
    34   15   43 1   
    35   16   17 1   
    36   16   36 1   
    37   17   18 1   
    38   17   46 1   
    39   17   47 1   
    40   18   19 1   
    41   18   20 1   
    42   18   21 1   
    43   19   44 1   
    44   19   45 1   
    45   20   39 1   
    46   20   40 1   
    47   21   48 1   
    48   22   23 1   
    49   22   26 1   
    50   22   32 1   
    51   23   24 1   
    52   23   49 1   
    53   23   50 1   
    54   24   25 1   
    55   24   51 1   
    56   24   52 1   
    57   25   26 1   
    58   25   53 1   
    59   25   54 1   
@<TRIPOS>SUBSTRUCTURE
     1 DZL         1 TEMP              0 ****  ****    0 ROOT
