@<TRIPOS>MOLECULE
DZL
   55    59     1     0     0
SMALL
bcc


@<TRIPOS>ATOM
      1 C1          0.2390   -0.8690   -0.2380 c3        1 DZL     -0.095100
      2 C2          1.3210    0.1030    0.1680 c3        1 DZL     -0.132700
      3 C3          1.4800    0.1790    1.6430 cc        1 DZL      0.499700
      4 N4          1.8220   -0.8480    2.4360 nd        1 DZL     -0.627000
      5 C5          1.8670   -0.4470    3.7520 cd        1 DZL      0.483600
      6 C6          1.5650    0.9220    3.9470 cc        1 DZL     -0.382000
      7 S7          1.2180    1.6580    2.4730 ss        1 DZL     -0.060300
      8 C8          1.5230    1.5400    5.2470 c         1 DZL      0.631700
      9 O9          1.0240    1.1340    6.2870 o         1 DZL     -0.416100
     10 N10         2.1970    2.9030    5.3270 n4        1 DZL     -0.676800
     11 C11         3.1920    2.9880    6.4560 c3        1 DZL      0.125500
     12 C12         3.5000    4.4560    6.8240 c3        1 DZL     -0.078700
     13 C13         4.2760    5.1450    5.7090 c3        1 DZL     -0.085900
     14 C14         5.5820    4.4040    5.4470 c3        1 DZL     -0.064700
     15 C15         5.2840    2.9680    5.0300 c3        1 DZL     -0.085900
     16 C16         4.5110    2.2540    6.1320 c3        1 DZL     -0.078700
     17 C17         5.3450    2.2470    7.4100 c3        1 DZL     -0.084900
     18 C18         5.6510    3.6910    7.8350 c3        1 DZL      0.150800
     19 C19         6.4270    4.3970    6.7150 c3        1 DZL     -0.106400
     20 C20         4.3350    4.4380    8.1000 c3        1 DZL     -0.084900
     21 O21         6.3650    3.7120    9.0590 oh        1 DZL     -0.574800
     22 C22         2.2510   -1.3620    4.8890 c3        1 DZL      0.088800
     23 C23         2.3150   -2.8550    4.5600 c3        1 DZL     -0.093400
     24 C24         3.7960   -3.2110    4.5650 c3        1 DZL     -0.107400
     25 C25         4.5180   -1.9820    5.1010 c3        1 DZL      0.125400
     26 O26         3.5460   -0.9510    5.3480 os        1 DZL     -0.446600
     27 H11C       -0.7480   -0.5730    0.1910 hc        1 DZL      0.057700
     28 H12C        0.1520   -0.8790   -1.3530 hc        1 DZL      0.057700
     29 H13C        0.4820   -1.9030    0.1080 hc        1 DZL      0.057700
     30 H21C        1.0830    1.1280   -0.2270 hc        1 DZL      0.079200
     31 H22C        2.3020   -0.2160   -0.2860 hc        1 DZL      0.079200
     32 H22         1.5410   -1.1600    5.7430 h1        1 DZL      0.093700
     33 H10         2.6790    3.1040    4.4440 hn        1 DZL      0.452800
     34 H11         2.7000    2.4830    7.3440 hx        1 DZL      0.122700
     35 H12         2.5450    5.0130    7.0260 hc        1 DZL      0.081700
     36 H16         4.2950    1.1910    5.8270 hc        1 DZL      0.081700
     37 H131        3.6670    5.1960    4.7710 hc        1 DZL      0.052950
     38 H132        4.5000    6.2010    6.0180 hc        1 DZL      0.052950
     39 H201        3.7810    3.9380    8.9340 hc        1 DZL      0.075950
     40 H202        4.5620    5.4880    8.4190 hc        1 DZL      0.075950
     41 H14         6.1470    4.9230    4.6260 hc        1 DZL      0.078700
     42 H151        4.7180    2.9560    4.0640 hc        1 DZL      0.052950
     43 H152        6.2470    2.4220    4.8500 hc        1 DZL      0.052950
     44 H191        7.3940    3.8650    6.5300 hc        1 DZL      0.067200
     45 H192        6.6650    5.4450    7.0310 hc        1 DZL      0.067200
     46 H171        6.3020    1.6950    7.2240 hc        1 DZL      0.075950
     47 H172        4.8010    1.7200    8.2360 hc        1 DZL      0.075950
     48 H21         7.2330    3.3240    8.8900 ho        1 DZL      0.414000
     49 H231        1.8370   -3.1080    3.5840 hc        1 DZL      0.079200
     50 H232        1.7720   -3.4250    5.3560 hc        1 DZL      0.079200
     51 H241        4.1500   -3.4570    3.5320 hc        1 DZL      0.070700
     52 H242        3.9920   -4.1020    5.2110 hc        1 DZL      0.070700
     53 H251        5.0200   -2.1710    6.0850 h1        1 DZL      0.057700
     54 H252        5.2560   -1.5680    4.3670 h1        1 DZL      0.057700
     55 H102        1.4790    3.6190    5.4840 hn        1 DZL      0.452800
@<TRIPOS>BOND
     1    1    2 1   
     2    1   27 1   
     3    1   28 1   
     4    1   29 1   
     5    2    3 1   
     6    2   30 1   
     7    2   31 1   
     8    3    4 2   
     9    3    7 1   
    10    4    5 1   
    11    5    6 2   
    12    5   22 1   
    13    6    7 1   
    14    6    8 1   
    15    8    9 2   
    16    8   10 1   
    17   10   11 1   
    18   10   33 1   
    19   10   55 1   
    20   11   12 1   
    21   11   16 1   
    22   11   34 1   
    23   12   13 1   
    24   12   20 1   
    25   12   35 1   
    26   13   14 1   
    27   13   37 1   
    28   13   38 1   
    29   14   15 1   
    30   14   19 1   
    31   14   41 1   
    32   15   16 1   
    33   15   42 1   
    34   15   43 1   
    35   16   17 1   
    36   16   36 1   
    37   17   18 1   
    38   17   46 1   
    39   17   47 1   
    40   18   19 1   
    41   18   20 1   
    42   18   21 1   
    43   19   44 1   
    44   19   45 1   
    45   20   39 1   
    46   20   40 1   
    47   21   48 1   
    48   22   23 1   
    49   22   26 1   
    50   22   32 1   
    51   23   24 1   
    52   23   49 1   
    53   23   50 1   
    54   24   25 1   
    55   24   51 1   
    56   24   52 1   
    57   25   26 1   
    58   25   53 1   
    59   25   54 1   
@<TRIPOS>SUBSTRUCTURE
     1 DZL         1 TEMP              0 ****  ****    0 ROOT
