@<TRIPOS>MOLECULE
DZL
   55    59     1     0     0
SMALL
bcc


@<TRIPOS>ATOM
      1 C1          0.2910   -0.8310   -0.2890 c3        1 DZL     -0.095100
      2 C2          1.3650    0.1420    0.1350 c3        1 DZL     -0.132700
      3 C3          1.5120    0.2030    1.6120 cc        1 DZL      0.499700
      4 N4          1.8540   -0.8300    2.3960 nd        1 DZL     -0.627000
      5 C5          1.8870   -0.4430    3.7180 cd        1 DZL      0.483600
      6 C6          1.5760    0.9230    3.9250 cc        1 DZL     -0.382000
      7 S7          1.2360    1.6720    2.4560 ss        1 DZL     -0.060300
      8 C8          1.5210    1.5260    5.2310 c         1 DZL      0.631700
      9 O9          1.0160    1.1070    6.2620 o         1 DZL     -0.416100
     10 N10         2.1880    2.8920    5.3310 ny        1 DZL     -0.676800
     11 C11         3.1720    2.9690    6.4700 c3        1 DZL      0.125500
     12 C12         3.4670    4.4350    6.8560 c3        1 DZL     -0.078700
     13 C13         4.2500    5.1410    5.7560 c3        1 DZL     -0.085900
     14 C14         5.5630    4.4100    5.4990 c3        1 DZL     -0.064700
     15 C15         5.2760    2.9770    5.0640 c3        1 DZL     -0.085900
     16 C16         4.4970    2.2470    6.1510 c3        1 DZL     -0.078700
     17 C17         5.3190    2.2310    7.4370 c3        1 DZL     -0.084900
     18 C18         5.6130    3.6720    7.8800 c3        1 DZL      0.150800
     19 C19         6.3950    4.3940    6.7750 c3        1 DZL     -0.106400
     20 C20         4.2910    4.4080    8.1400 c3        1 DZL     -0.084900
     21 O21         6.3160    3.6840    9.1110 oh        1 DZL     -0.574800
     22 C22         2.2680   -1.3680    4.8480 c3        1 DZL      0.088800
     23 C23         2.3440   -2.8560    4.5030 c3        1 DZL     -0.093400
     24 C24         3.8270   -3.2040    4.5160 c3        1 DZL     -0.107400
     25 C25         4.5370   -1.9760    5.0710 c3        1 DZL      0.125400
     26 O26         3.5570   -0.9540    5.3210 os        1 DZL     -0.446600
     27 H11C       -0.7010   -0.5430    0.1350 hc        1 DZL      0.057700
     28 H12C        0.5360   -1.8670    0.0480 hc        1 DZL      0.057700
     29 H13C        0.2130   -0.8300   -1.4050 hc        1 DZL      0.057700
     30 H21C        1.1250    1.1700   -0.2510 hc        1 DZL      0.079200
     31 H22C        2.3510   -0.1670   -0.3150 hc        1 DZL      0.079200
     32 H22         1.5500   -1.1790    5.6970 h1        1 DZL      0.093700
     33 H10         1.4650    3.6020    5.4880 hn        1 DZL      0.452800
     34 H11         2.6740    2.4520    7.3480 hx        1 DZL      0.122700
     35 H12         2.5070    4.9850    7.0560 hc        1 DZL      0.081700
     36 H16         4.2900    1.1860    5.8320 hc        1 DZL      0.081700
     37 H131        4.4650    6.1940    6.0790 hc        1 DZL      0.052950
     38 H132        3.6500    5.1980    4.8130 hc        1 DZL      0.052950
     39 H201        3.7310    3.8970    8.9640 hc        1 DZL      0.075950
     40 H202        4.5080    5.4560    8.4720 hc        1 DZL      0.075950
     41 H14         6.1330    4.9400    4.6890 hc        1 DZL      0.078700
     42 H151        4.7200    2.9720    4.0920 hc        1 DZL      0.052950
     43 H152        6.2440    2.4370    4.8870 hc        1 DZL      0.052950
     44 H191        7.3680    3.8690    6.5930 hc        1 DZL      0.067200
     45 H192        6.6250    5.4400    7.1040 hc        1 DZL      0.067200
     46 H171        6.2810    1.6860    7.2540 hc        1 DZL      0.075950
     47 H172        4.7710    1.6910    8.2510 hc        1 DZL      0.075950
     48 H21         7.1870    3.3010    8.9450 ho        1 DZL      0.414000
     49 H231        1.7970   -3.4390    5.2890 hc        1 DZL      0.079200
     50 H232        1.8750   -3.1020    3.5200 hc        1 DZL      0.079200
     51 H241        4.0230   -4.1010    5.1540 hc        1 DZL      0.070700
     52 H242        4.1910   -3.4370    3.4830 hc        1 DZL      0.070700
     53 H251        5.2780   -1.5500    4.3470 h1        1 DZL      0.057700
     54 H252        5.0320   -2.1730    6.0560 h1        1 DZL      0.057700
     55 H102        2.6760    3.1030    4.4540 hn        1 DZL      0.452800
@<TRIPOS>BOND
     1    1    2 1   
     2    1   27 1   
     3    1   28 1   
     4    1   29 1   
     5    2    3 1   
     6    2   30 1   
     7    2   31 1   
     8    3    4 2   
     9    3    7 1   
    10    4    5 1   
    11    5    6 2   
    12    5   22 1   
    13    6    7 1   
    14    6    8 1   
    15    8    9 2   
    16    8   10 1   
    17   10   11 1   
    18   10   33 1   
    19   10   55 1   
    20   11   12 1   
    21   11   16 1   
    22   11   34 1   
    23   12   13 1   
    24   12   20 1   
    25   12   35 1   
    26   13   14 1   
    27   13   37 1   
    28   13   38 1   
    29   14   15 1   
    30   14   19 1   
    31   14   41 1   
    32   15   16 1   
    33   15   42 1   
    34   15   43 1   
    35   16   17 1   
    36   16   36 1   
    37   17   18 1   
    38   17   46 1   
    39   17   47 1   
    40   18   19 1   
    41   18   20 1   
    42   18   21 1   
    43   19   44 1   
    44   19   45 1   
    45   20   39 1   
    46   20   40 1   
    47   21   48 1   
    48   22   23 1   
    49   22   26 1   
    50   22   32 1   
    51   23   24 1   
    52   23   49 1   
    53   23   50 1   
    54   24   25 1   
    55   24   51 1   
    56   24   52 1   
    57   25   26 1   
    58   25   53 1   
    59   25   54 1   
@<TRIPOS>SUBSTRUCTURE
     1 DZL         1 TEMP              0 ****  ****    0 ROOT
