@<TRIPOS>MOLECULE
DZM
   38    40     1     0     0
SMALL
bcc


@<TRIPOS>ATOM
      1 P          -4.3870    0.0810    1.3370 p5        1 DZM      1.331900
      2 N1          5.7830    0.5060    0.0240 nb        1 DZM     -0.766000
      3 C2          5.3510   -0.6790   -0.4580 ca        1 DZM      0.408200
      4 C3          4.0220   -1.0930   -0.6120 ca        1 DZM     -0.228600
      5 C4          3.0470   -0.1510   -0.2280 ca        1 DZM     -0.021200
      6 C5          3.4620    1.1330    0.3150 ca        1 DZM     -0.094900
      7 C6          4.8570    1.4160    0.4430 ca        1 DZM      0.661200
      8 N6          5.2660    2.6070    1.0640 nh        1 DZM     -0.919500
      9 N7          2.3290    1.9060    0.6240 nc        1 DZM     -0.603100
     10 C8          1.2780    1.1360    0.2900 cd        1 DZM      0.460700
     11 N9          1.6540   -0.1240   -0.2270 na        1 DZM     -0.163300
     12 C1'         0.7490   -1.1290   -0.7870 c3        1 DZM      0.252800
     13 OP2        -3.7580   -1.2770    1.5800 o         1 DZM     -0.930500
     14 C2'         0.2500   -2.1700    0.2360 c3        1 DZM     -0.131400
     15 OP1        -3.8450    1.1730    2.2130 o         1 DZM     -0.930500
     16 C3'        -1.2260   -1.8180    0.4780 c3        1 DZM      0.160100
     17 O3'        -1.9910   -2.9960    0.3590 oh        1 DZM     -0.674800
     18 C4'        -1.5910   -0.8020   -0.6230 c3        1 DZM      0.054100
     19 O4'        -0.3770   -0.4840   -1.3560 os        1 DZM     -0.436600
     20 C5'        -2.2340    0.5000   -0.0860 c3        1 DZM      0.229400
     21 O5'        -3.5950    0.4380   -0.1810 os        1 DZM     -0.553200
     22 OP3        -5.8420    0.1020    0.9890 o         1 DZM     -0.930500
     23 HN6         6.1710    2.9310    0.8070 hn        1 DZM      0.397300
     24 HN6A        4.5660    3.3170    1.0560 hn        1 DZM      0.397300
     25 H8          0.2080    1.4020    0.3870 h5        1 DZM      0.121800
     26 H1'         1.3080   -1.6110   -1.6440 h2        1 DZM      0.051700
     27 H2'         0.3390   -3.1900   -0.2120 hc        1 DZM      0.052200
     28 H2'A        0.8270   -2.1520    1.1890 hc        1 DZM      0.052200
     29 H3'        -1.3820   -1.3710    1.4990 h1        1 DZM      0.105700
     30 HO3'       -2.8760   -2.7650    0.7280 ho        1 DZM      0.502000
     31 H3M         2.8460   -2.8840   -0.5600 hc        1 DZM      0.037367
     32 H3MA        3.3840   -2.3640   -2.2130 hc        1 DZM      0.037367
     33 H3MB        4.5730   -3.1150   -1.0710 hc        1 DZM      0.037367
     34 H4'        -2.2750   -1.2710   -1.3800 h1        1 DZM      0.081700
     35 H5'        -1.9090    0.6760    0.9790 h1        1 DZM     -0.004800
     36 H5'A       -1.8450    1.3450   -0.7310 h1        1 DZM     -0.004800
     37 C3M         3.6910   -2.4300   -1.1380 c3        1 DZM     -0.034800
     38 H2          6.1680   -1.3630   -0.7520 h4        1 DZM     -0.003900
@<TRIPOS>BOND
     1    1   13 1   
     2    1   15 1   
     3    1   21 1   
     4    1   22 1   
     5    2    3 ar  
     6    2    7 ar  
     7    3    4 ar  
     8    3   38 1   
     9    4    5 ar  
    10    4   37 1   
    11    5    6 ar  
    12    5   11 1   
    13    6    7 ar  
    14    6    9 1   
    15    7    8 1   
    16    8   23 1   
    17    8   24 1   
    18    9   10 2   
    19   10   11 1   
    20   10   25 1   
    21   11   12 1   
    22   12   14 1   
    23   12   19 1   
    24   12   26 1   
    25   14   16 1   
    26   14   27 1   
    27   14   28 1   
    28   16   17 1   
    29   16   18 1   
    30   16   29 1   
    31   17   30 1   
    32   18   19 1   
    33   18   20 1   
    34   18   34 1   
    35   20   21 1   
    36   20   35 1   
    37   20   36 1   
    38   31   37 1   
    39   32   37 1   
    40   33   37 1   
@<TRIPOS>SUBSTRUCTURE
     1 DZM         1 TEMP              0 ****  ****    0 ROOT
