@<TRIPOS>MOLECULE
DZM
   38    32     1     0     0
SMALL
bcc


@<TRIPOS>ATOM
      1 P           2.7680   -4.9980    1.2810 p3        1 DZM      2.524000
      2 N1         -4.0070    2.6330   -0.7820 n1        1 DZM     -0.240000
      3 C2         -3.1650    2.4140   -1.8340 c1        1 DZM     -0.057000
      4 C3         -1.9650    1.7440   -1.6350 c1        1 DZM     -0.156000
      5 C4         -1.6220    1.2980   -0.3700 c1        1 DZM     -0.072500
      6 C5         -2.4560    1.5140    0.6690 c1        1 DZM     -0.072500
      7 C6         -3.6710    2.1940    0.4650 c1        1 DZM      0.140000
      8 N6         -4.8580    2.5170    1.1720 n3        1 DZM     -0.317000
      9 N7         -1.8870    0.9810    1.7820 n1        1 DZM     -0.182500
     10 C8         -0.7010    0.4360    1.4260 c1        1 DZM      0.005000
     11 N9         -0.5340    0.6290    0.0980 n1        1 DZM     -0.182500
     12 C1'         0.4790    0.1820   -0.5730 c2        1 DZM      0.161000
     13 OP2         4.2370   -4.8260    1.5860 os        1 DZM     -1.276000
     14 C2'         1.7590    0.8960   -0.1410 c3        1 DZM     -0.210000
     15 OP1         1.9900   -5.0730    2.5730 o         1 DZM     -1.237000
     16 C3'         2.4270    0.0070    0.5540 c3        1 DZM      0.049000
     17 O3'         3.8520    0.1860    0.3520 oh        1 DZM     -0.402000
     18 C3M        -1.5490    1.7850   -3.0870 c3        1 DZM     -0.160000
     19 C4'         1.9650   -1.4400   -0.0050 c3        1 DZM     -0.057000
     20 O4'         0.7130   -1.3450   -0.2570 os        1 DZM     -0.293000
     21 C5'         2.2050   -2.5040    1.0470 c3        1 DZM      0.079000
     22 O5'         2.2590   -3.7680    0.4310 os        1 DZM     -0.715000
     23 OP3         2.5630   -6.2710    0.4960 o         1 DZM     -1.237000
     24 H2         -3.3940    2.7510   -2.7210 ha        1 DZM      0.133000
     25 HN6        -4.9210    2.3370    2.0660 hn        1 DZM      0.192500
     26 HN6A       -5.5620    2.9020    0.7320 hn        1 DZM      0.192500
     27 H8         -0.0740   -0.0140    2.0230 DU        1 DZM      0.251000
     28 H1'         0.3300    0.3080   -1.5310 h4        1 DZM      0.091000
     29 H2'         1.5440    1.6720    0.4170 hc        1 DZM      0.091500
     30 H2'A        2.2760    1.1730   -0.9260 hc        1 DZM      0.091500
     31 H3'         2.2080    0.0870    1.5030 h1        1 DZM      0.145000
     32 HO3'        4.1840    0.6830    1.0110 ho        1 DZM      0.301000
     33 H3M        -2.2690    1.4210   -3.6440 hc        1 DZM      0.076667
     34 H3MA       -1.3690    2.7120   -3.3500 hc        1 DZM      0.076667
     35 H3MB       -0.7380    1.2480   -3.2090 hc        1 DZM      0.076667
     36 H4'         2.4570   -1.6570   -0.8220 h1        1 DZM      0.121000
     37 H5'         1.4740   -2.4890    1.6980 h1        1 DZM      0.034500
     38 H5'A        3.0530   -2.3260    1.5040 h1        1 DZM      0.034500
@<TRIPOS>BOND
     1    1   15 1   
     2    1   22 1   
     3    1   23 1   
     4    2    7 1   
     5    3    4 1   
     6    3   24 1   
     7    4   18 1   
     8    5    6 1   
     9    7    8 1   
    10    8   25 1   
    11    8   26 1   
    12    9   10 1   
    13   10   11 1   
    14   12   14 1   
    15   12   20 1   
    16   12   28 1   
    17   14   16 1   
    18   14   29 1   
    19   14   30 1   
    20   16   17 1   
    21   16   19 1   
    22   16   31 1   
    23   17   32 1   
    24   18   33 1   
    25   18   34 1   
    26   18   35 1   
    27   19   20 1   
    28   19   21 1   
    29   19   36 1   
    30   21   22 1   
    31   21   37 1   
    32   21   38 1   
@<TRIPOS>SUBSTRUCTURE
     1 DZM         1 TEMP              0 ****  ****    0 ROOT
