@<TRIPOS>MOLECULE
DZN
   50    53     1     0     0
SMALL
bcc


@<TRIPOS>ATOM
      1 O6          1.0890    0.7760   -0.5890 oh        1 DZN     -0.592800
      2 C6          2.4020    0.3940   -0.2460 c3        1 DZN      0.141400
      3 C5          2.5920    0.3950    1.2740 c3        1 DZN      0.105100
      4 O5          1.7050   -0.6110    1.7720 os        1 DZN     -0.441600
      5 C4          4.0440    0.0640    1.6510 c3        1 DZN      0.123100
      6 O4          4.8450    1.1380    1.1940 oh        1 DZN     -0.592800
      7 C3          4.1630   -0.0810    3.1790 c3        1 DZN      0.109100
      8 O3          5.4910   -0.4990    3.4390 oh        1 DZN     -0.602800
      9 C2          3.1550   -1.1250    3.6790 c3        1 DZN      0.087100
     10 O2          3.2080   -1.0940    5.0930 oh        1 DZN     -0.598800
     11 C1          1.7440   -0.7400    3.1850 c3        1 DZN      0.306900
     12 O1          0.9280   -1.8790    3.4160 os        1 DZN     -0.327900
     13 C18        -0.4430   -1.6920    3.3710 ca        1 DZN      0.175100
     14 C19        -1.0690   -0.6120    2.7240 ca        1 DZN     -0.218000
     15 C20        -2.4550   -0.5330    2.7180 ca        1 DZN     -0.017000
     16 C21        -3.2360   -1.5170    3.3430 ca        1 DZN     -0.243600
     17 C22        -2.5830   -2.5900    3.9720 ca        1 DZN      0.163100
     18 C23        -1.1860   -2.6970    4.0030 ca        1 DZN     -0.188000
     19 O24        -3.2730   -3.6110    4.6060 os        1 DZN     -0.217200
     20 C25        -4.6440   -3.5180    4.6250 cc        1 DZN      0.076100
     21 C26        -5.3770   -2.5250    4.0630 cd        1 DZN     -0.193400
     22 C27        -4.7060   -1.4340    3.3330 c         1 DZN      0.599900
     23 O35        -5.3040   -0.5180    2.7510 o         1 DZN     -0.543100
     24 C28        -6.8310   -2.5370    4.1860 ca        1 DZN     -0.077800
     25 C29        -7.4300   -2.9580    5.3850 ca        1 DZN     -0.074000
     26 C30        -8.8120   -2.9980    5.5190 ca        1 DZN     -0.187500
     27 C31        -9.6140   -2.6070    4.4340 ca        1 DZN      0.131100
     28 O34       -10.9750   -2.6710    4.6220 oh        1 DZN     -0.497100
     29 C32        -9.0330   -2.1750    3.2330 ca        1 DZN     -0.187500
     30 C33        -7.6470   -2.1410    3.1170 ca        1 DZN     -0.074000
     31 H6          0.4940    0.1110   -0.2200 ho        1 DZN      0.410000
     32 H6C1        2.6400   -0.6210   -0.6610 h1        1 DZN      0.067200
     33 H6C2        3.0740    1.1720   -0.6980 h1        1 DZN      0.067200
     34 H5          2.3000    1.3940    1.7010 h1        1 DZN      0.070700
     35 H4          4.3680   -0.8950    1.1580 h1        1 DZN      0.066700
     36 HA          5.7430    0.9590    1.5070 ho        1 DZN      0.427000
     37 H3          3.9730    0.9080    3.6820 h1        1 DZN      0.066700
     38 HB          5.5550   -0.6390    4.3940 ho        1 DZN      0.428000
     39 H2          3.4250   -2.1480    3.2970 h1        1 DZN      0.081700
     40 HC          2.6150   -1.7900    5.4080 ho        1 DZN      0.424000
     41 H1          1.3490    0.1810    3.6930 h2        1 DZN      0.071700
     42 H19        -0.4660    0.1480    2.2040 ha        1 DZN      0.159000
     43 H20        -2.9670    0.3060    2.2160 ha        1 DZN      0.167000
     44 H23        -0.6950   -3.5460    4.4960 ha        1 DZN      0.169000
     45 H25        -5.0480   -4.3890    5.1710 h4        1 DZN      0.185000
     46 H29        -6.7990   -3.2500    6.2380 ha        1 DZN      0.143000
     47 H30        -9.2860   -3.3250    6.4550 ha        1 DZN      0.144000
     48 H34       -11.4030   -2.3530    3.8130 ho        1 DZN      0.421000
     49 H32        -9.6670   -1.8620    2.3920 ha        1 DZN      0.144000
     50 H33        -7.1860   -1.7840    2.1820 ha        1 DZN      0.143000
@<TRIPOS>BOND
     1    1    2 1   
     2    1   31 1   
     3    2    3 1   
     4    2   32 1   
     5    2   33 1   
     6    3    4 1   
     7    3    5 1   
     8    3   34 1   
     9    4   11 1   
    10    5    6 1   
    11    5    7 1   
    12    5   35 1   
    13    6   36 1   
    14    7    8 1   
    15    7    9 1   
    16    7   37 1   
    17    8   38 1   
    18    9   10 1   
    19    9   11 1   
    20    9   39 1   
    21   10   40 1   
    22   11   12 1   
    23   11   41 1   
    24   12   13 1   
    25   13   14 ar  
    26   13   18 ar  
    27   14   15 ar  
    28   14   42 1   
    29   15   16 ar  
    30   15   43 1   
    31   16   17 ar  
    32   16   22 1   
    33   17   18 ar  
    34   17   19 1   
    35   18   44 1   
    36   19   20 1   
    37   20   21 2   
    38   20   45 1   
    39   21   22 1   
    40   21   24 1   
    41   22   23 2   
    42   24   25 ar  
    43   24   30 ar  
    44   25   26 ar  
    45   25   46 1   
    46   26   27 ar  
    47   26   47 1   
    48   27   28 1   
    49   27   29 ar  
    50   28   48 1   
    51   29   30 ar  
    52   29   49 1   
    53   30   50 1   
@<TRIPOS>SUBSTRUCTURE
     1 DZN         1 TEMP              0 ****  ****    0 ROOT
