@<TRIPOS>MOLECULE
DZN
   50    45     1     0     0
SMALL
bcc


@<TRIPOS>ATOM
      1 O6          5.9420    2.4280    1.6540 oh        1 DZN     -0.344000
      2 C6          5.5880    1.8310    0.4370 c3        1 DZN     -0.025000
      3 C5          4.7120    0.6740    0.6900 c3        1 DZN      0.001000
      4 O5          3.8040    0.5150   -0.4470 os        1 DZN     -0.273000
      5 C4          5.5840   -0.5700    0.9240 c3        1 DZN     -0.025000
      6 O4          6.2980   -0.4060    2.1050 oh        1 DZN     -0.337000
      7 C3          4.7650   -1.8350    1.0100 c3        1 DZN     -0.002000
      8 O3          5.6550   -2.9590    1.0470 oh        1 DZN     -0.333000
      9 C2          3.8500   -1.9850   -0.1420 c3        1 DZN      0.001000
     10 O2          2.9780   -3.1190    0.0960 oh        1 DZN     -0.328000
     11 C1          2.9900   -0.7340   -0.3740 c3        1 DZN      0.159000
     12 O1          2.3080   -0.8770   -1.5440 os        1 DZN     -0.194000
     13 C18         0.9100   -0.4030   -1.3670 c2        1 DZN      0.116000
     14 C19         0.5220    0.8240   -1.8890 c2        1 DZN     -0.170000
     15 C20        -0.8130    1.2380   -1.7850 c1        1 DZN     -0.034000
     16 C21        -1.7660    0.4070   -1.1490 c1        1 DZN     -0.214000
     17 C22        -1.3830   -0.8110   -0.6290 c1        1 DZN      0.215000
     18 C23        -0.0390   -1.2300   -0.7320 c1        1 DZN     -0.204000
     19 O24        -2.3240   -1.6140    0.0640 o         1 DZN     -0.215000
     20 C25        -3.6240   -1.1770    0.2200 c1        1 DZN     -0.028000
     21 C26        -4.0160    0.0630   -0.3100 c1        1 DZN     -0.126000
     22 C27        -3.0870    0.8540   -0.9930 c1        1 DZN      0.215000
     23 O35        -3.4200    1.9210   -1.4480 o         1 DZN     -0.215000
     24 C28        -5.3800    0.5030   -0.1800 c1        1 DZN     -0.126000
     25 C29        -6.2770    0.1810   -1.1130 c1        1 DZN     -0.109500
     26 C30        -7.6380    0.5580   -0.9490 c1        1 DZN     -0.109500
     27 C31        -8.0260    1.2550    0.1740 c1        1 DZN      0.085000
     28 O34        -9.4220    1.7020    0.3250 oh        1 DZN     -0.250000
     29 C32        -7.1140    1.5780    1.1150 c1        1 DZN     -0.217000
     30 C33        -5.7750    1.2070    0.9520 c1        1 DZN     -0.028000
     31 H6          6.2940    3.2080    1.5020 ho        1 DZN      0.216000
     32 H6C1        6.3600    1.5470   -0.0070 h1        1 DZN      0.088000
     33 H6C2        5.1280    2.4650   -0.1020 h1        1 DZN      0.088000
     34 H5          4.1520    0.8580    1.5440 h1        1 DZN      0.110000
     35 H4          6.2600   -0.6570    0.1320 h1        1 DZN      0.103000
     36 HA          7.0820   -0.0020    1.9240 ho        1 DZN      0.233000
     37 H3          4.2270   -1.8190    1.8510 h1        1 DZN      0.103000
     38 HB          5.5090   -3.4300    1.8100 ho        1 DZN      0.229000
     39 H2          4.3850   -2.1570   -0.9490 h1        1 DZN      0.123000
     40 HC          3.0630   -3.7090   -0.5820 ho        1 DZN      0.229000
     41 H1          2.3720   -0.6540    0.3320 h2        1 DZN      0.114000
     42 H19         1.2230    1.4500   -2.3090 ha        1 DZN      0.160000
     43 H20        -1.0740    2.0600   -2.1360 ha        1 DZN      0.165000
     44 H23         0.2110   -2.1020   -0.4400 ha        1 DZN      0.181000
     45 H25        -4.3060   -1.7590    0.7240 ha        1 DZN      0.155500
     46 H29        -6.0100   -0.2960   -1.8780 ha        1 DZN      0.155500
     47 H30        -8.2750    0.3320   -1.6080 ha        1 DZN      0.155500
     48 H34        -9.8600    1.1510    0.9350 ho        1 DZN      0.218000
     49 H32        -7.3860    2.0650    1.8990 ha        1 DZN      0.133000
     50 H33        -5.1560    1.4280    1.5960 ha        1 DZN      0.155500
@<TRIPOS>BOND
     1    1    2 1   
     2    1   31 1   
     3    2    3 1   
     4    2   32 1   
     5    2   33 1   
     6    3    4 1   
     7    3    5 1   
     8    3   34 1   
     9    4   11 1   
    10    5    6 1   
    11    5    7 1   
    12    5   35 1   
    13    6   36 1   
    14    7    8 1   
    15    7    9 1   
    16    7   37 1   
    17    8   38 1   
    18    9   10 1   
    19    9   11 1   
    20    9   39 1   
    21   10   40 1   
    22   11   12 1   
    23   11   41 1   
    24   12   13 1   
    25   13   14 1   
    26   13   18 1   
    27   14   15 1   
    28   14   42 1   
    29   15   43 1   
    30   16   17 1   
    31   16   22 1   
    32   17   19 1   
    33   18   44 1   
    34   20   21 1   
    35   20   45 1   
    36   22   23 1   
    37   24   30 1   
    38   25   26 1   
    39   25   46 1   
    40   26   47 1   
    41   27   28 1   
    42   27   29 1   
    43   28   48 1   
    44   29   49 1   
    45   30   50 1   
@<TRIPOS>SUBSTRUCTURE
     1 DZN         1 TEMP              0 ****  ****    0 ROOT
