@<TRIPOS>MOLECULE
DZN
   50    53     1     0     0
SMALL
bcc


@<TRIPOS>ATOM
      1 O6          3.7220    0.2610   -3.6940 oh        1 DZN     -0.592800
      2 C6          2.9740    0.5660   -4.8490 c3        1 DZN      0.141400
      3 C5          1.6180   -0.1450   -4.8260 c3        1 DZN      0.105100
      4 O5          0.9190    0.4000   -3.7030 os        1 DZN     -0.441600
      5 C4          0.8350    0.1130   -6.1220 c3        1 DZN      0.123100
      6 O4          1.5460   -0.5200   -7.1690 oh        1 DZN     -0.592800
      7 C3         -0.5800   -0.4810   -6.0010 c3        1 DZN      0.109100
      8 O3         -1.2750   -0.1040   -7.1750 oh        1 DZN     -0.602800
      9 C2         -1.2720    0.0830   -4.7520 c3        1 DZN      0.087100
     10 O2         -2.4950   -0.6170   -4.6150 oh        1 DZN     -0.598800
     11 C1         -0.3720   -0.1610   -3.5230 c3        1 DZN      0.306900
     12 O1         -0.9150    0.6350   -2.4790 os        1 DZN     -0.327900
     13 C18        -0.5010    0.3510   -1.1890 ca        1 DZN      0.175100
     14 C19         0.6800   -0.3440   -0.8760 ca        1 DZN     -0.218000
     15 C20         1.0140   -0.5540    0.4540 ca        1 DZN     -0.017000
     16 C21         0.1920   -0.0770    1.4880 ca        1 DZN     -0.243600
     17 C22        -0.9750    0.6240    1.1450 ca        1 DZN      0.163100
     18 C23        -1.3460    0.8470   -0.1880 ca        1 DZN     -0.188000
     19 O24        -1.8410    1.1370    2.0980 os        1 DZN     -0.217200
     20 C25        -1.5250    0.9050    3.4150 cc        1 DZN      0.076100
     21 C26        -0.4350    0.2330    3.8600 cd        1 DZN     -0.193400
     22 C27         0.5490   -0.2970    2.8990 c         1 DZN      0.599900
     23 O35         1.5940   -0.8780    3.2260 o         1 DZN     -0.543100
     24 C28        -0.2390    0.0340    5.2930 ca        1 DZN     -0.077800
     25 C29        -1.3420   -0.2370    6.1200 ca        1 DZN     -0.074000
     26 C30        -1.1840   -0.4090    7.4890 ca        1 DZN     -0.187500
     27 C31         0.1030   -0.3130    8.0450 ca        1 DZN      0.131100
     28 O34         0.1990   -0.4880    9.4060 oh        1 DZN     -0.497100
     29 C32         1.2160   -0.0520    7.2330 ca        1 DZN     -0.187500
     30 C33         1.0390    0.1170    5.8630 ca        1 DZN     -0.074000
     31 H6          3.2270    0.6010   -2.9370 ho        1 DZN      0.410000
     32 H6C1        2.8250    1.6730   -4.9440 h1        1 DZN      0.067200
     33 H6C2        3.5760    0.1740   -5.7130 h1        1 DZN      0.067200
     34 H5          1.7610   -1.2510   -4.6750 h1        1 DZN      0.070700
     35 H4          0.7590    1.2180   -6.3210 h1        1 DZN      0.066700
     36 HA          1.0050   -0.4210   -7.9650 ho        1 DZN      0.427000
     37 H3         -0.5290   -1.6040   -5.9360 h1        1 DZN      0.066700
     38 HB         -2.1790   -0.4340   -7.0800 ho        1 DZN      0.428000
     39 H2         -1.4610    1.1860   -4.8720 h1        1 DZN      0.081700
     40 HC         -2.9570   -0.2240   -3.8630 ho        1 DZN      0.424000
     41 H1         -0.3130   -1.2480   -3.2450 h2        1 DZN      0.071700
     42 H19         1.3460   -0.6940   -1.6790 ha        1 DZN      0.159000
     43 H20         1.9370   -1.0960    0.7240 ha        1 DZN      0.167000
     44 H23        -2.2620    1.4010   -0.4350 ha        1 DZN      0.169000
     45 H25        -2.3070    1.3590    4.0490 h4        1 DZN      0.185000
     46 H29        -2.3470   -0.3260    5.6800 ha        1 DZN      0.143000
     47 H30        -2.0420   -0.6240    8.1410 ha        1 DZN      0.144000
     48 H34         1.1340   -0.4210    9.6500 ho        1 DZN      0.421000
     49 H32         2.2210    0.0130    7.6730 ha        1 DZN      0.144000
     50 H33         1.9130    0.3030    5.2180 ha        1 DZN      0.143000
@<TRIPOS>BOND
     1    1    2 1   
     2    1   31 1   
     3    2    3 1   
     4    2   32 1   
     5    2   33 1   
     6    3    4 1   
     7    3    5 1   
     8    3   34 1   
     9    4   11 1   
    10    5    6 1   
    11    5    7 1   
    12    5   35 1   
    13    6   36 1   
    14    7    8 1   
    15    7    9 1   
    16    7   37 1   
    17    8   38 1   
    18    9   10 1   
    19    9   11 1   
    20    9   39 1   
    21   10   40 1   
    22   11   12 1   
    23   11   41 1   
    24   12   13 1   
    25   13   14 ar  
    26   13   18 ar  
    27   14   15 ar  
    28   14   42 1   
    29   15   16 ar  
    30   15   43 1   
    31   16   17 ar  
    32   16   22 1   
    33   17   18 ar  
    34   17   19 1   
    35   18   44 1   
    36   19   20 1   
    37   20   21 2   
    38   20   45 1   
    39   21   22 1   
    40   21   24 1   
    41   22   23 2   
    42   24   25 ar  
    43   24   30 ar  
    44   25   26 ar  
    45   25   46 1   
    46   26   27 ar  
    47   26   47 1   
    48   27   28 1   
    49   27   29 ar  
    50   28   48 1   
    51   29   30 ar  
    52   29   49 1   
    53   30   50 1   
@<TRIPOS>SUBSTRUCTURE
     1 DZN         1 TEMP              0 ****  ****    0 ROOT
