@<TRIPOS>MOLECULE
DZN
   50    53     1     0     0
SMALL
bcc


@<TRIPOS>ATOM
      1 O6          1.0920    0.6290   -0.6480 oh        1 DZN     -0.592800
      2 C6          2.4080    0.2840   -0.2770 c3        1 DZN      0.141400
      3 C5          2.5830    0.3540    1.2430 c3        1 DZN      0.105100
      4 O5          1.7080   -0.6460    1.7760 os        1 DZN     -0.441600
      5 C4          4.0360    0.0640    1.6480 c3        1 DZN      0.123100
      6 O4          4.8240    1.1320    1.1530 oh        1 DZN     -0.592800
      7 C3          4.1430   -0.0130    3.1810 c3        1 DZN      0.109100
      8 O3          5.4740   -0.3970    3.4720 oh        1 DZN     -0.602800
      9 C2          3.1470   -1.0520    3.7170 c3        1 DZN      0.087100
     10 O2          3.1850   -0.9600    5.1280 oh        1 DZN     -0.598800
     11 C1          1.7350   -0.7140    3.1930 c3        1 DZN      0.306900
     12 O1          0.9360   -1.8560    3.4650 os        1 DZN     -0.327900
     13 C18        -0.4370   -1.6950    3.3980 ca        1 DZN      0.175100
     14 C19        -1.0750   -0.6550    2.7000 ca        1 DZN     -0.218000
     15 C20        -2.4620   -0.6010    2.6770 ca        1 DZN     -0.017000
     16 C21        -3.2330   -1.5720    3.3360 ca        1 DZN     -0.243600
     17 C22        -2.5680   -2.6050    4.0160 ca        1 DZN      0.163100
     18 C23        -1.1700   -2.6860    4.0650 ca        1 DZN     -0.188000
     19 O24        -3.2470   -3.6110    4.6860 os        1 DZN     -0.217200
     20 C25        -4.6190   -3.5410    4.6870 cc        1 DZN      0.076100
     21 C26        -5.3630   -2.5860    4.0770 cd        1 DZN     -0.193400
     22 C27        -4.7030   -1.5150    3.3080 c         1 DZN      0.599900
     23 O35        -5.3120   -0.6360    2.6820 o         1 DZN     -0.543100
     24 C28        -6.8180   -2.6190    4.1850 ca        1 DZN     -0.077800
     25 C29        -7.4220   -3.0000    5.3950 ca        1 DZN     -0.074000
     26 C30        -8.8050   -3.0590    5.5170 ca        1 DZN     -0.187500
     27 C31        -9.6020   -2.7280    4.4080 ca        1 DZN      0.131100
     28 O34       -10.9630   -2.8100    4.5850 oh        1 DZN     -0.497100
     29 C32        -9.0160   -2.3370    3.1960 ca        1 DZN     -0.187500
     30 C33        -7.6290   -2.2830    3.0920 ca        1 DZN     -0.074000
     31 H6          0.5050   -0.0310   -0.2560 ho        1 DZN      0.410000
     32 H6C1        2.6680   -0.7430   -0.6460 h1        1 DZN      0.067200
     33 H6C2        3.0710    1.0540   -0.7550 h1        1 DZN      0.067200
     34 H5          2.2690    1.3650    1.6240 h1        1 DZN      0.070700
     35 H4          4.3820   -0.9090    1.2000 h1        1 DZN      0.066700
     36 HA          5.7210    0.9820    1.4820 ho        1 DZN      0.427000
     37 H3          3.9300    0.9930    3.6400 h1        1 DZN      0.066700
     38 HB          5.5310   -0.4940    4.4320 ho        1 DZN      0.428000
     39 H2          3.4390   -2.0860    3.3810 h1        1 DZN      0.081700
     40 HC          2.6010   -1.6520    5.4670 ho        1 DZN      0.424000
     41 H1          1.3190    0.2210    3.6580 h2        1 DZN      0.071700
     42 H19        -0.4800    0.0930    2.1550 ha        1 DZN      0.159000
     43 H20        -2.9840    0.2060    2.1350 ha        1 DZN      0.167000
     44 H23        -0.6690   -3.5050    4.5990 ha        1 DZN      0.169000
     45 H25        -5.0130   -4.3950    5.2660 h4        1 DZN      0.185000
     46 H29        -6.7950   -3.2440    6.2660 ha        1 DZN      0.143000
     47 H30        -9.2830   -3.3540    6.4610 ha        1 DZN      0.144000
     48 H34       -11.3880   -2.5340    3.7590 ho        1 DZN      0.421000
     49 H32        -9.6460   -2.0710    2.3360 ha        1 DZN      0.144000
     50 H33        -7.1650   -1.9570    2.1470 ha        1 DZN      0.143000
@<TRIPOS>BOND
     1    1    2 1   
     2    1   31 1   
     3    2    3 1   
     4    2   32 1   
     5    2   33 1   
     6    3    4 1   
     7    3    5 1   
     8    3   34 1   
     9    4   11 1   
    10    5    6 1   
    11    5    7 1   
    12    5   35 1   
    13    6   36 1   
    14    7    8 1   
    15    7    9 1   
    16    7   37 1   
    17    8   38 1   
    18    9   10 1   
    19    9   11 1   
    20    9   39 1   
    21   10   40 1   
    22   11   12 1   
    23   11   41 1   
    24   12   13 1   
    25   13   14 ar  
    26   13   18 ar  
    27   14   15 ar  
    28   14   42 1   
    29   15   16 ar  
    30   15   43 1   
    31   16   17 ar  
    32   16   22 1   
    33   17   18 ar  
    34   17   19 1   
    35   18   44 1   
    36   19   20 1   
    37   20   21 2   
    38   20   45 1   
    39   21   22 1   
    40   21   24 1   
    41   22   23 2   
    42   24   25 ar  
    43   24   30 ar  
    44   25   26 ar  
    45   25   46 1   
    46   26   27 ar  
    47   26   47 1   
    48   27   28 1   
    49   27   29 ar  
    50   28   48 1   
    51   29   30 ar  
    52   29   49 1   
    53   30   50 1   
@<TRIPOS>SUBSTRUCTURE
     1 DZN         1 TEMP              0 ****  ****    0 ROOT
