@<TRIPOS>MOLECULE
DZO
   38    41     1     0     0
SMALL
bcc


@<TRIPOS>ATOM
      1 C4          0.0120   -0.0140   -0.0360 cc        1 DZO      0.397500
      2 C3          3.2200   -0.0800    3.1340 cc        1 DZO      0.673200
      3 C2          1.4550   -0.0700   -0.1240 cc        1 DZO     -0.221800
      4 C1          1.8970   -0.0490    1.2280 cd        1 DZO      0.409500
      5 C10         6.7020    0.7130    3.6410 ca        1 DZO     -0.169000
      6 C12         7.9680    0.7080    3.0550 ca        1 DZO      0.034400
      7 Cl1         9.1700    1.7440    3.6680 cl        1 DZO     -0.094400
      8 C17         8.2590   -0.1280    1.9740 ca        1 DZO     -0.136000
      9 C15         7.2640   -0.9720    1.4860 ca        1 DZO     -0.107000
     10 C16         5.9960   -0.9970    2.0590 ca        1 DZO     -0.110000
     11 C9          5.6970   -0.1480    3.1450 ca        1 DZO      0.138600
     12 N4          4.4470   -0.2010    3.8030 nu        1 DZO     -0.718300
     13 C5          2.0260   -0.0010    3.9770 cc        1 DZO     -0.336300
     14 C7          0.7830    0.0430    3.3960 cd        1 DZO      0.027700
     15 N1          3.1470   -0.0870    1.7890 nd        1 DZO     -0.695000
     16 N2          0.6760    0.0190    2.0190 na        1 DZO      0.017200
     17 N3         -0.4260    0.0410    1.2460 nd        1 DZO     -0.562100
     18 C6          2.2290   -0.1420   -1.3340 ca        1 DZO      0.035200
     19 C8          1.6730   -0.7570   -2.4640 ca        1 DZO     -0.189000
     20 C13         3.5180    0.4040   -1.4090 ca        1 DZO     -0.151000
     21 C14         4.2350    0.3270   -2.6000 ca        1 DZO     -0.098000
     22 C18         3.6950   -0.2810   -3.7260 ca        1 DZO     -0.191000
     23 C11         2.3980   -0.8430   -3.6720 ca        1 DZO      0.131600
     24 N5          1.8770   -1.5430   -4.7700 nv        1 DZO     -0.815200
     25 H4         -0.6890   -0.0060   -0.8740 h4        1 DZO      0.055800
     26 H10         6.4980    1.3870    4.4880 ha        1 DZO      0.144000
     27 H17         9.2580   -0.1200    1.5140 ha        1 DZO      0.150000
     28 H15         7.4830   -1.6340    0.6340 ha        1 DZO      0.144000
     29 H16         5.2340   -1.6810    1.6530 ha        1 DZO      0.162000
     30 HN4         4.4440    0.2100    4.7150 hn        1 DZO      0.428800
     31 H5          2.1170    0.0090    5.0700 ha        1 DZO      0.161000
     32 H7         -0.1550    0.0970    3.9780 h4        1 DZO      0.182000
     33 H8          0.6640   -1.1920   -2.3960 ha        1 DZO      0.129000
     34 H13         3.9640    0.8960   -0.5330 ha        1 DZO      0.148000
     35 H14         5.2470    0.7580   -2.6520 ha        1 DZO      0.129000
     36 H18         4.2820   -0.3320   -4.6540 ha        1 DZO      0.129000
     37 HN5         0.8820   -1.5950   -4.7800 hn        1 DZO      0.383300
     38 HN5A        2.2560   -1.2580   -5.6460 hn        1 DZO      0.383300
@<TRIPOS>BOND
     1    1    3 1   
     2    1   17 2   
     3    1   25 1   
     4    2   12 1   
     5    2   13 1   
     6    2   15 2   
     7    3    4 2   
     8    3   18 1   
     9    4   15 1   
    10    4   16 1   
    11    5    6 ar  
    12    5   11 ar  
    13    5   26 1   
    14    6    7 1   
    15    6    8 ar  
    16    8    9 ar  
    17    8   27 1   
    18    9   10 ar  
    19    9   28 1   
    20   10   11 ar  
    21   10   29 1   
    22   11   12 1   
    23   12   30 1   
    24   13   14 2   
    25   13   31 1   
    26   14   16 1   
    27   14   32 1   
    28   16   17 1   
    29   18   19 ar  
    30   18   20 ar  
    31   19   23 ar  
    32   19   33 1   
    33   20   21 ar  
    34   20   34 1   
    35   21   22 ar  
    36   21   35 1   
    37   22   23 ar  
    38   22   36 1   
    39   23   24 1   
    40   24   37 1   
    41   24   38 1   
@<TRIPOS>SUBSTRUCTURE
     1 DZO         1 TEMP              0 ****  ****    0 ROOT
