@<TRIPOS>MOLECULE
DZO
   38    30     1     0     0
SMALL
bcc


@<TRIPOS>ATOM
      1 C4         -3.1460   -0.8490   -1.5380 cg        1 DZO      0.188500
      2 C3         -0.0360   -0.6180    1.7590 cg        1 DZO      0.205000
      3 C2         -1.7830   -0.6820   -1.5010 ce        1 DZO     -0.148500
      4 C1         -1.3860   -0.7040   -0.1760 c1        1 DZO      0.343500
      5 C10         1.2010    0.6210    4.4140 c1        1 DZO     -0.068500
      6 C12         1.7170    1.6870    5.1350 c1        1 DZO      0.035900
      7 CL1         1.0450    2.0930    6.6920 cl        1 DZO     -0.095900
      8 C17         2.7810    2.4160    4.6290 c1        1 DZO     -0.068500
      9 C15         3.3300    2.0790    3.4010 c1        1 DZO     -0.079750
     10 C16         2.8150    1.0140    2.6800 c1        1 DZO     -0.079750
     11 C9          1.7500    0.2850    3.1860 cg        1 DZO      0.093800
     12 N4          1.2020   -0.7860    2.4330 n2        1 DZO     -0.502600
     13 C5         -1.1530   -0.7980    2.5320 c1        1 DZO     -0.205500
     14 C7         -2.3790   -0.9300    1.9420 c1        1 DZO      0.432300
     15 N1         -0.1470   -0.5710    0.4200 ne        1 DZO     -0.456400
     16 N2         -2.4900   -0.8820    0.5870 n1        1 DZO     -0.420800
     17 N3         -3.5890   -0.9720   -0.2600 n1        1 DZO     -0.423800
     18 C6         -1.2030   -0.7440   -2.7590 cg        1 DZO      0.015700
     19 C8         -0.8860    0.4250   -3.4340 c1        1 DZO     -0.131500
     20 C13        -0.8740   -1.9730   -3.3100 c1        1 DZO     -0.093500
     21 C14        -0.2290   -2.0330   -4.5360 c1        1 DZO     -0.079750
     22 C18         0.0870   -0.8640   -5.2100 c1        1 DZO     -0.079750
     23 C11        -0.2410    0.3650   -4.6600 c1        1 DZO      0.104800
     24 N5          0.1450    1.5610   -5.3160 n3        1 DZO     -0.788400
     25 H4         -3.7010   -0.8540   -2.3390 DU        1 DZO      0.187000
     26 H10         0.4520    0.1080    4.7700 ha        1 DZO      0.104500
     27 H17         3.1440    3.1660    5.1360 ha        1 DZO      0.095500
     28 H15         4.0800    2.5930    3.0440 ha        1 DZO      0.078750
     29 H16         3.2010    0.7770    1.8160 ha        1 DZO      0.078750
     30 HN4         1.6400   -1.5850    2.3900 hn        1 DZO      0.437800
     31 H5         -1.0690   -0.8650    3.5020 ha        1 DZO      0.112500
     32 H7         -3.1750   -1.0580    2.4920 ha        1 DZO      0.124500
     33 H8         -1.1170    1.2900   -3.0460 ha        1 DZO      0.070500
     34 H13        -1.0970   -2.7950   -2.8350 ha        1 DZO      0.089500
     35 H14         0.0020   -2.8980   -4.9240 ha        1 DZO      0.078750
     36 H18         0.5410   -0.9070   -6.0730 ha        1 DZO      0.078750
     37 HN5         0.0740    2.3640   -4.8830 hn        1 DZO      0.382800
     38 HN5A        0.4930    1.5270   -6.1600 hn        1 DZO      0.382800
@<TRIPOS>BOND
     1    1    3 1   
     2    1   17 3   
     3    2   13 3   
     4    2   15 1   
     5    3    4 2   
     6    3   18 1   
     7    4   15 2   
     8    5   11 3   
     9    5   26 1   
    10    6    7 1   
    11    6    8 3   
    12    8   27 1   
    13    9   10 3   
    14    9   28 1   
    15   10   29 1   
    16   11   12 1   
    17   12   30 1   
    18   13   31 1   
    19   14   16 3   
    20   14   32 1   
    21   18   20 3   
    22   19   23 3   
    23   19   33 1   
    24   20   34 1   
    25   21   22 3   
    26   21   35 1   
    27   22   36 1   
    28   23   24 1   
    29   24   37 1   
    30   24   38 1   
@<TRIPOS>SUBSTRUCTURE
     1 DZO         1 TEMP              0 ****  ****    0 ROOT
