@<TRIPOS>MOLECULE
DZO
   38    41     1     0     0
SMALL
bcc


@<TRIPOS>ATOM
      1 C4          0.0050    0.0260   -0.0430 cc        1 DZO      0.398500
      2 C3          3.2120   -0.0700    3.1270 cc        1 DZO      0.672200
      3 C2          1.4470   -0.0420   -0.1300 cc        1 DZO     -0.221800
      4 C1          1.8900   -0.0270    1.2220 cd        1 DZO      0.408500
      5 C10         6.6970    0.7100    3.6390 ca        1 DZO     -0.169000
      6 C12         7.9630    0.7020    3.0540 ca        1 DZO      0.034400
      7 CL1         9.1680    1.7320    3.6720 cl        1 DZO     -0.094400
      8 C17         8.2530   -0.1310    1.9710 ca        1 DZO     -0.136000
      9 C15         7.2560   -0.9700    1.4800 ca        1 DZO     -0.108000
     10 C16         5.9870   -0.9930    2.0510 ca        1 DZO     -0.111000
     11 C9          5.6890   -0.1470    3.1400 ca        1 DZO      0.139600
     12 N4          4.4390   -0.1990    3.7970 nh        1 DZO     -0.718300
     13 C5          2.0190    0.0160    3.9700 cc        1 DZO     -0.336300
     14 C7          0.7770    0.0690    3.3890 cd        1 DZO      0.028700
     15 N1          3.1400   -0.0750    1.7820 nd        1 DZO     -0.695000
     16 N2          0.6690    0.0470    2.0120 na        1 DZO      0.017200
     17 N3         -0.4320    0.0800    1.2390 nd        1 DZO     -0.562100
     18 C6          2.2200   -0.1120   -1.3410 ca        1 DZO      0.035200
     19 C8          1.6650   -0.7340   -2.4690 ca        1 DZO     -0.188000
     20 C13         3.5080    0.4380   -1.4180 ca        1 DZO     -0.151000
     21 C14         4.2230    0.3610   -2.6110 ca        1 DZO     -0.098000
     22 C18         3.6840   -0.2530   -3.7340 ca        1 DZO     -0.190000
     23 C11         2.3830   -0.8060   -3.6810 ca        1 DZO      0.130600
     24 N5          1.7880   -1.3460   -4.8310 nh        1 DZO     -0.814200
     25 H4         -0.6950    0.0450   -0.8820 h4        1 DZO      0.058800
     26 H10         6.4940    1.3810    4.4880 ha        1 DZO      0.144000
     27 H17         9.2520   -0.1240    1.5120 ha        1 DZO      0.150000
     28 H15         7.4730   -1.6310    0.6260 ha        1 DZO      0.143000
     29 H16         5.2230   -1.6740    1.6430 ha        1 DZO      0.161000
     30 HN4         4.4370    0.2120    4.7090 hn        1 DZO      0.427800
     31 H5          2.1100    0.0250    5.0640 ha        1 DZO      0.161000
     32 H7         -0.1610    0.1300    3.9720 h4        1 DZO      0.182000
     33 H8          0.6560   -1.1660   -2.4000 ha        1 DZO      0.129000
     34 H13         3.9520    0.9320   -0.5430 ha        1 DZO      0.148000
     35 H14         5.2340    0.7950   -2.6650 ha        1 DZO      0.129000
     36 H18         4.2670   -0.2960   -4.6650 ha        1 DZO      0.129000
     37 HN5         2.4440   -1.6760   -5.5050 hn        1 DZO      0.383300
     38 HN5A        1.0690   -2.0080   -4.6390 hn        1 DZO      0.383300
@<TRIPOS>BOND
     1    1    3 1   
     2    1   17 2   
     3    1   25 1   
     4    2   12 1   
     5    2   13 1   
     6    2   15 2   
     7    3    4 2   
     8    3   18 1   
     9    4   15 1   
    10    4   16 1   
    11    5    6 ar  
    12    5   11 ar  
    13    5   26 1   
    14    6    7 1   
    15    6    8 ar  
    16    8    9 ar  
    17    8   27 1   
    18    9   10 ar  
    19    9   28 1   
    20   10   11 ar  
    21   10   29 1   
    22   11   12 1   
    23   12   30 1   
    24   13   14 2   
    25   13   31 1   
    26   14   16 1   
    27   14   32 1   
    28   16   17 1   
    29   18   19 ar  
    30   18   20 ar  
    31   19   23 ar  
    32   19   33 1   
    33   20   21 ar  
    34   20   34 1   
    35   21   22 ar  
    36   21   35 1   
    37   22   23 ar  
    38   22   36 1   
    39   23   24 1   
    40   24   37 1   
    41   24   38 1   
@<TRIPOS>SUBSTRUCTURE
     1 DZO         1 TEMP              0 ****  ****    0 ROOT
