@<TRIPOS>MOLECULE
DZO
   38    41     1     0     0
SMALL
bcc


@<TRIPOS>ATOM
      1 C4          3.8260    1.4260    0.3520 cc        1 DZO      0.397500
      2 C3         -0.5620    2.2610   -0.2680 cc        1 DZO      0.673200
      3 C2          2.6860    0.5470    0.2180 cc        1 DZO     -0.221800
      4 C1          1.5760    1.4210    0.0590 cd        1 DZO      0.409500
      5 C10        -3.8150    0.7890    0.2470 ca        1 DZO     -0.169000
      6 C12        -4.5410   -0.4020    0.2300 ca        1 DZO      0.034400
      7 CL1        -5.9920   -0.5010    1.1130 cl        1 DZO     -0.094400
      8 C17        -4.0940   -1.5100   -0.4950 ca        1 DZO     -0.136000
      9 C15        -2.9060   -1.4100   -1.2150 ca        1 DZO     -0.107000
     10 C16        -2.1670   -0.2300   -1.2270 ca        1 DZO     -0.110000
     11 C9         -2.6120    0.8860   -0.4890 ca        1 DZO      0.138600
     12 N4         -1.9320    2.1250   -0.5400 nh        1 DZO     -0.718300
     13 C5         -0.0450    3.6290   -0.2120 cc        1 DZO     -0.336300
     14 C7          1.2980    3.8420   -0.0260 cd        1 DZO      0.027700
     15 N1          0.2370    1.1870   -0.1180 nd        1 DZO     -0.695000
     16 N2          2.1450    2.7600    0.1130 na        1 DZO      0.017200
     17 N3          3.4790    2.7360    0.2890 nd        1 DZO     -0.562100
     18 C6          2.7170   -0.8920    0.2360 ca        1 DZO      0.035200
     19 C8          3.8680   -1.5550   -0.2120 ca        1 DZO     -0.189000
     20 C13         1.6280   -1.6390    0.7070 ca        1 DZO     -0.151000
     21 C14         1.6970   -3.0300    0.7210 ca        1 DZO     -0.098000
     22 C18         2.8320   -3.6980    0.2780 ca        1 DZO     -0.191000
     23 C11         3.9400   -2.9640   -0.2060 ca        1 DZO      0.131600
     24 N5          5.0540   -3.6250   -0.7440 nh        1 DZO     -0.815200
     25 H4          4.8660    1.1230    0.4990 h4        1 DZO      0.055800
     26 H10        -4.1880    1.6450    0.8310 ha        1 DZO      0.144000
     27 H17        -4.6700   -2.4460   -0.4960 ha        1 DZO      0.150000
     28 H15        -2.5440   -2.2770   -1.7900 ha        1 DZO      0.144000
     29 H16        -1.2360   -0.1830   -1.8130 ha        1 DZO      0.162000
     30 HN4        -2.4770    2.9060   -0.2350 hn        1 DZO      0.428800
     31 H5         -0.7210    4.4850   -0.3310 ha        1 DZO      0.161000
     32 H7          1.7490    4.8510    0.0190 h4        1 DZO      0.182000
     33 H8          4.7150   -0.9630   -0.5900 ha        1 DZO      0.129000
     34 H13         0.7230   -1.1320    1.0690 ha        1 DZO      0.148000
     35 H14         0.8390   -3.6110    1.0920 ha        1 DZO      0.129000
     36 H18         2.8600   -4.7970    0.2960 ha        1 DZO      0.129000
     37 HN5         5.8890   -3.0820   -0.7340 hn        1 DZO      0.383300
     38 HN5A        5.1870   -4.5450   -0.3850 hn        1 DZO      0.383300
@<TRIPOS>BOND
     1    1    3 1   
     2    1   17 2   
     3    1   25 1   
     4    2   12 1   
     5    2   13 1   
     6    2   15 2   
     7    3    4 2   
     8    3   18 1   
     9    4   15 1   
    10    4   16 1   
    11    5    6 ar  
    12    5   11 ar  
    13    5   26 1   
    14    6    7 1   
    15    6    8 ar  
    16    8    9 ar  
    17    8   27 1   
    18    9   10 ar  
    19    9   28 1   
    20   10   11 ar  
    21   10   29 1   
    22   11   12 1   
    23   12   30 1   
    24   13   14 2   
    25   13   31 1   
    26   14   16 1   
    27   14   32 1   
    28   16   17 1   
    29   18   19 ar  
    30   18   20 ar  
    31   19   23 ar  
    32   19   33 1   
    33   20   21 ar  
    34   20   34 1   
    35   21   22 ar  
    36   21   35 1   
    37   22   23 ar  
    38   22   36 1   
    39   23   24 1   
    40   24   37 1   
    41   24   38 1   
@<TRIPOS>SUBSTRUCTURE
     1 DZO         1 TEMP              0 ****  ****    0 ROOT
