@<TRIPOS>MOLECULE
DZO
   40    43     1     0     0
SMALL
bcc


@<TRIPOS>ATOM
      1 C4          0.7640    1.1450   -0.5450 cc        1 DZO      0.411500
      2 C3          3.8330   -0.3930    2.3430 cc        1 DZO      0.526200
      3 C2          1.8400    0.1920   -0.7100 cc        1 DZO     -0.197800
      4 C1          2.4680    0.1370    0.5670 cd        1 DZO      0.374500
      5 C10         6.0350   -0.1490    4.8910 ca        1 DZO     -0.117000
      6 C12         7.0520    0.6330    5.4490 ca        1 DZO      0.033400
      7 CL1         7.1080    0.8470    7.1190 cl        1 DZO      0.005600
      8 C17         8.0180    1.2340    4.6270 ca        1 DZO     -0.060000
      9 C15         7.9650    1.0520    3.2460 ca        1 DZO     -0.090000
     10 C16         6.9620    0.2780    2.6650 ca        1 DZO     -0.099000
     11 C9          6.0030   -0.3240    3.4970 ca        1 DZO     -0.054400
     12 N4          4.9630   -1.1790    2.9070 n4        1 DZO     -0.617100
     13 C5          3.1340    0.5030    3.2260 cc        1 DZO     -0.294300
     14 C7          2.0670    1.2260    2.7250 cd        1 DZO      0.068700
     15 N1          3.5330   -0.5780    1.0520 nd        1 DZO     -0.627000
     16 N2          1.7040    1.0640    1.4020 na        1 DZO      0.054200
     17 N3          0.7110    1.6440    0.7160 nd        1 DZO     -0.479100
     18 C6          2.1600   -0.5180   -1.9190 ca        1 DZO      0.023200
     19 C8          1.1290   -0.8350   -2.8200 ca        1 DZO     -0.100000
     20 C13         3.4800   -0.8800   -2.2340 ca        1 DZO     -0.063000
     21 C14         3.7680   -1.5510   -3.4210 ca        1 DZO     -0.093000
     22 C18         2.7570   -1.8710   -4.3250 ca        1 DZO     -0.094000
     23 C11         1.4360   -1.5040   -4.0140 ca        1 DZO     -0.058400
     24 N5          0.3640   -1.8200   -4.9630 n4        1 DZO     -0.704000
     25 H4          0.0540    1.4820   -1.3080 h4        1 DZO      0.080800
     26 H10         5.2890   -0.6220    5.5530 ha        1 DZO      0.168000
     27 H17         8.8210    1.8480    5.0750 ha        1 DZO      0.193000
     28 H15         8.7280    1.5230    2.6020 ha        1 DZO      0.182000
     29 H16         6.9410    0.1470    1.5710 ha        1 DZO      0.160000
     30 HN4         4.5720   -1.7940    3.6370 hn        1 DZO      0.476800
     31 H5          3.4410    0.6330    4.2750 ha        1 DZO      0.198000
     32 H7          1.4770    1.9400    3.3390 h4        1 DZO      0.230000
     33 H8          0.0920   -0.5540   -2.5690 ha        1 DZO      0.159000
     34 H13         4.3000   -0.6240   -1.5440 ha        1 DZO      0.168000
     35 H14         4.8100   -1.8290   -3.6580 ha        1 DZO      0.180000
     36 H18         3.0100   -2.3980   -5.2600 ha        1 DZO      0.170000
     37 HN5         0.5750   -2.7020   -5.4470 hn        1 DZO      0.469800
     38 HN5A        0.2890   -1.0670   -5.6580 hn        1 DZO      0.469800
     39 H42         5.3960   -1.7650    2.1760 hn        1 DZO      0.476800
     40 H53        -0.5310   -1.9130   -4.4690 hn        1 DZO      0.469800
@<TRIPOS>BOND
     1    1    3 1   
     2    1   17 2   
     3    1   25 1   
     4    2   12 1   
     5    2   13 1   
     6    2   15 2   
     7    3    4 2   
     8    3   18 1   
     9    4   15 1   
    10    4   16 1   
    11    5    6 ar  
    12    5   11 ar  
    13    5   26 1   
    14    6    7 1   
    15    6    8 ar  
    16    8    9 ar  
    17    8   27 1   
    18    9   10 ar  
    19    9   28 1   
    20   10   11 ar  
    21   10   29 1   
    22   11   12 1   
    23   12   30 1   
    24   12   39 1   
    25   13   14 2   
    26   13   31 1   
    27   14   16 1   
    28   14   32 1   
    29   16   17 1   
    30   18   19 ar  
    31   18   20 ar  
    32   19   23 ar  
    33   19   33 1   
    34   20   21 ar  
    35   20   34 1   
    36   21   22 ar  
    37   21   35 1   
    38   22   23 ar  
    39   22   36 1   
    40   23   24 1   
    41   24   37 1   
    42   24   38 1   
    43   24   40 1   
@<TRIPOS>SUBSTRUCTURE
     1 DZO         1 TEMP              0 ****  ****    0 ROOT
