@<TRIPOS>MOLECULE
DZP
   33    35     1     0     0
SMALL
bcc


@<TRIPOS>ATOM
      1 C1          0.2520   -0.6920    0.2060 c2        1 DZP     -0.152000
      2 C2          1.5980   -0.5960    0.2850 c2        1 DZP     -0.136000
      3 C3          2.1390    0.4460    1.1790 c2        1 DZP     -0.095000
      4 C4          1.2900    0.6750    2.1720 c1        1 DZP     -0.085000
      5 C5         -0.6650    0.2510    3.6920 c2        1 DZP      0.100000
      6 C6         -3.0890    0.0040    4.3650 c2        1 DZP      0.115000
      7 C7         -4.5070    0.5030    4.2050 c3        1 DZP     -0.203000
      8 C8         -4.7320    1.7540    3.5050 c1        1 DZP     -0.071000
      9 C9         -3.6220    2.4590    3.0030 c2        1 DZP     -0.188000
     10 C11        -0.6990    0.0570    1.1070 c3        1 DZP     -0.096000
     11 C12         0.0060    0.4150    2.3950 c2        1 DZP     -0.080000
     12 C13        -2.0760    0.6980    3.7220 c2        1 DZP     -0.223000
     13 C14        -2.3550    1.9310    3.0460 c2        1 DZP      0.028000
     14 N15        -0.0060   -0.2320    4.6990 n2        1 DZP     -0.151000
     15 C17        -0.6410   -0.3820    5.9720 c3        1 DZP     -0.114000
     16 C18        -1.8070   -1.3680    5.9830 c2        1 DZP      0.295000
     17 N2         -2.9090   -1.1480    5.1280 n         1 DZP     -0.279000
     18 O1         -1.7990   -2.3560    6.7310 o         1 DZP     -0.312000
     19 CL         -3.8860    3.9710    2.2740 cl        1 DZP      0.003000
     20 H1         -1.5670   -0.6050    1.3690 hc        1 DZP      0.115000
     21 H2         -0.2340   -1.3200   -0.5550 ha        1 DZP      0.138000
     22 H3          2.2880   -1.1670   -0.3460 ha        1 DZP      0.145000
     23 H4          3.0480    0.9930    0.9220 ha        1 DZP      0.165000
     24 H7         -4.9870    0.6130    5.2250 hc        1 DZP      0.172000
     25 H8         -5.1210   -0.2710    3.6490 hc        1 DZP      0.172000
     26 H11        -1.0980    0.9490    0.5570 hc        1 DZP      0.115000
     27 H14        -1.5020    2.4410    2.5600 ha        1 DZP      0.159000
     28 H171       -1.0100    0.6010    6.3880 h1        1 DZP      0.131500
     29 H172        0.1430   -0.7930    6.6740 h1        1 DZP      0.131500
     30 H201       -3.7030   -3.0120    5.7190 h1        1 DZP      0.100000
     31 H202       -4.8450   -1.5960    5.8810 h1        1 DZP      0.100000
     32 H203       -4.4480   -2.2720    4.2260 h1        1 DZP      0.100000
     33 C20        -4.0370   -2.0490    5.2460 c3        1 DZP     -0.098000
@<TRIPOS>BOND
     1    1    2 1   
     2    1   10 1   
     3    1   21 1   
     4    2    3 1   
     5    2   22 1   
     6    3    4 1   
     7    3   23 1   
     8    4   11 1   
     9    5   11 1   
    10    5   12 1   
    11    5   14 1   
    12    6    7 1   
    13    6   12 1   
    14    6   17 1   
    15    7    8 1   
    16    7   24 1   
    17    7   25 1   
    18    8    9 1   
    19    9   13 1   
    20    9   19 1   
    21   10   11 1   
    22   10   20 1   
    23   10   26 1   
    24   12   13 1   
    25   13   27 1   
    26   14   15 1   
    27   15   16 1   
    28   15   28 1   
    29   15   29 1   
    30   16   17 1   
    31   16   18 1   
    32   17   33 1   
    33   30   33 1   
    34   31   33 1   
    35   32   33 1   
@<TRIPOS>SUBSTRUCTURE
     1 DZP         1 TEMP              0 ****  ****    0 ROOT
