@<TRIPOS>MOLECULE
DZP
   33    35     1     0     0
SMALL
bcc


@<TRIPOS>ATOM
      1 C1          3.4970    0.5670    1.6010 ca        1 DZP     -0.137000
      2 C2          4.4740    1.1130    0.7670 ca        1 DZP     -0.115000
      3 C3          4.1130    1.6540   -0.4670 ca        1 DZP     -0.137000
      4 C4          2.7780    1.6520   -0.8710 ca        1 DZP     -0.096500
      5 C5          0.3720    1.0950   -0.4480 ce        1 DZP      0.537500
      6 C6         -1.6770   -0.2240    0.2630 ca        1 DZP      0.083600
      7 C7         -2.2900   -1.4930    0.4260 ca        1 DZP     -0.162000
      8 C8         -1.6170   -2.6630    0.1130 ca        1 DZP     -0.091000
      9 C9         -0.3060   -2.6040   -0.3730 ca        1 DZP     -0.008600
     10 C11         2.1630    0.5550    1.2010 ca        1 DZP     -0.096500
     11 C12         1.7980    1.0950   -0.0400 ca        1 DZP     -0.144900
     12 C13        -0.3470   -0.1810   -0.2220 ca        1 DZP     -0.201900
     13 C14         0.3210   -1.3710   -0.5360 ca        1 DZP     -0.076000
     14 N15        -0.1370    2.1610   -0.9780 n2        1 DZP     -0.574900
     15 C17        -1.5140    2.2060   -1.3670 c3        1 DZP      0.038800
     16 C18        -2.5040    2.0490   -0.2130 c         1 DZP      0.688500
     17 N2         -2.3860    0.9390    0.6340 n         1 DZP     -0.384000
     18 O1         -3.3730    2.9080    0.0030 o         1 DZP     -0.606500
     19 CL          0.5190   -4.0350   -0.7640 cl        1 DZP     -0.081400
     20 H1          3.7790    0.1460    2.5770 ha        1 DZP      0.136000
     21 H2          5.5270    1.1200    1.0850 ha        1 DZP      0.134000
     22 H3          4.8810    2.0890   -1.1230 ha        1 DZP      0.136000
     23 H4          2.4960    2.0930   -1.8390 ha        1 DZP      0.144000
     24 H7         -3.3240   -1.5620    0.8020 ha        1 DZP      0.148000
     25 H8         -2.1170   -3.6360    0.2440 ha        1 DZP      0.153000
     26 H11         1.3920    0.1260    1.8590 ha        1 DZP      0.144000
     27 H14         1.3580   -1.3190   -0.9100 ha        1 DZP      0.163000
     28 H171       -1.7650    1.4310   -2.1490 h1        1 DZP      0.088700
     29 H172       -1.6860    3.2290   -1.8130 h1        1 DZP      0.088700
     30 H201       -3.4730    1.8510    2.1750 h1        1 DZP      0.053367
     31 H202       -4.3110    0.4370    1.3880 h1        1 DZP      0.053367
     32 H203       -2.8970    0.1450    2.5150 h1        1 DZP      0.053367
     33 C20        -3.3170    0.8300    1.7330 c3        1 DZP      0.072300
@<TRIPOS>BOND
     1    1    2 ar  
     2    1   10 ar  
     3    1   20 1   
     4    2    3 ar  
     5    2   21 1   
     6    3    4 ar  
     7    3   22 1   
     8    4   11 ar  
     9    4   23 1   
    10    5   11 1   
    11    5   12 1   
    12    5   14 2   
    13    6    7 ar  
    14    6   12 ar  
    15    6   17 1   
    16    7    8 ar  
    17    7   24 1   
    18    8    9 ar  
    19    8   25 1   
    20    9   13 ar  
    21    9   19 1   
    22   10   11 ar  
    23   10   26 1   
    24   12   13 ar  
    25   13   27 1   
    26   14   15 1   
    27   15   16 1   
    28   15   28 1   
    29   15   29 1   
    30   16   17 1   
    31   16   18 2   
    32   17   33 1   
    33   30   33 1   
    34   31   33 1   
    35   32   33 1   
@<TRIPOS>SUBSTRUCTURE
     1 DZP         1 TEMP              0 ****  ****    0 ROOT
