@<TRIPOS>MOLECULE
DZP
   33    28     1     0     0
SMALL
bcc


@<TRIPOS>ATOM
      1 C1          1.1980   -0.7820   -3.6900 c1        1 DZP     -0.121833
      2 C2          2.5390   -0.2860   -3.8240 c1        1 DZP     -0.121833
      3 C3          3.2280    0.1450   -2.7120 c1        1 DZP     -0.121833
      4 C4          2.6140    0.1000   -1.4350 c1        1 DZP     -0.121833
      5 C5          0.7570   -0.1180    0.1250 c1        1 DZP      0.082000
      6 C6         -1.2390    0.2430    1.4660 c1        1 DZP      0.091000
      7 C7         -2.1960    1.0740    2.0600 c1        1 DZP     -0.121833
      8 C8         -2.4540    2.3390    1.5220 c1        1 DZP     -0.121833
      9 C9         -1.7540    2.7760    0.3870 c1        1 DZP     -0.087000
     10 C11         0.5920   -0.8270   -2.4300 c1        1 DZP     -0.104000
     11 C12         1.2930   -0.3880   -1.3020 c1        1 DZP     -0.061000
     12 C13        -0.5350    0.6840    0.3210 c2        1 DZP     -0.118000
     13 C14        -0.7990    1.9510   -0.2100 c2        1 DZP     -0.076000
     14 N15         1.5280   -0.4840    1.2420 n1        1 DZP     -0.162000
     15 C17         0.9450   -0.4760    2.5340 c2        1 DZP     -0.115000
     16 C18        -0.1350   -1.5310    2.5120 c2        1 DZP      0.296000
     17 C20        -2.1070   -2.1260    1.0790 c3        1 DZP     -0.083000
     18 N2         -1.1450   -1.1910    1.6140 n         1 DZP     -0.287000
     19 O1         -0.1470   -2.5170    3.2190 o         1 DZP     -0.331000
     20 CL         -1.9630    4.4480   -0.2380 cl        1 DZP     -0.003000
     21 H1          0.6840   -1.1040   -4.5180 ha        1 DZP      0.142500
     22 H2          2.9750   -0.2530   -4.7250 ha        1 DZP      0.142500
     23 H3          4.1740    0.4960   -2.8060 ha        1 DZP      0.142500
     24 H4          3.1130    0.4190   -0.6310 ha        1 DZP      0.142500
     25 H7         -2.7070    0.7580    2.8870 ha        1 DZP      0.142500
     26 H8         -3.1560    2.9460    1.9550 ha        1 DZP      0.142500
     27 H11        -0.3320   -1.1680   -2.3370 ha        1 DZP      0.140000
     28 H14        -0.3370    2.2460   -0.9620 ha        1 DZP      0.163000
     29 H171        0.6300    0.3630    2.8950 ha        1 DZP      0.128000
     30 H172        1.6530   -0.7020    3.1810 ha        1 DZP      0.128000
     31 H201       -1.6310   -2.9860    0.8030 h1        1 DZP      0.092667
     32 H202       -2.5480   -1.7300    0.2940 h1        1 DZP      0.092667
     33 H203       -2.7380   -2.3180    1.7230 h1        1 DZP      0.092667
@<TRIPOS>BOND
     1    1    2 1   
     2    1   21 1   
     3    2   22 1   
     4    3    4 1   
     5    3   23 1   
     6    4   24 1   
     7    5   12 1   
     8    5   14 1   
     9    6   12 1   
    10    6   18 1   
    11    7    8 1   
    12    7   25 1   
    13    8   26 1   
    14    9   13 1   
    15    9   20 1   
    16   10   11 1   
    17   10   27 1   
    18   12   13 1   
    19   13   28 1   
    20   15   16 1   
    21   15   29 1   
    22   15   30 1   
    23   16   18 1   
    24   16   19 1   
    25   17   18 1   
    26   17   31 1   
    27   17   32 1   
    28   17   33 1   
@<TRIPOS>SUBSTRUCTURE
     1 DZP         1 TEMP              0 ****  ****    0 ROOT
