@<TRIPOS>MOLECULE
DZP
   33    35     1     0     0
SMALL
bcc


@<TRIPOS>ATOM
      1 C1          0.2010    0.1810    0.0580 c2        1 DZP     -0.155000
      2 C2          1.4300    0.7300    0.1920 c2        1 DZP     -0.143000
      3 C3          2.2180    0.3130    1.3660 c2        1 DZP     -0.097000
      4 C4          1.4140   -0.0160    2.3700 c1        1 DZP     -0.095000
      5 C5         -0.7330   -0.1660    3.6660 c2        1 DZP      0.106000
      6 C6         -3.1610    0.3510    4.1200 c2        1 DZP      0.093000
      7 C7         -4.3710    1.1960    3.8100 c3        1 DZP     -0.187000
      8 C8         -4.2240    2.3110    2.8960 c1        1 DZP     -0.073000
      9 C9         -2.9540    2.5520    2.3260 c2        1 DZP     -0.180000
     10 C11        -0.4610   -0.6570    1.1250 c3        1 DZP     -0.103000
     11 C12         0.1180   -0.2950    2.4720 c2        1 DZP     -0.070000
     12 C13        -1.9640    0.6330    3.4800 c2        1 DZP     -0.223000
     13 C14        -1.8730    1.7490    2.5800 c2        1 DZP      0.016000
     14 N15        -0.3250   -0.7520    4.7500 n2        1 DZP     -0.171000
     15 C17        -1.0630   -0.7070    5.9740 c3        1 DZP     -0.087000
     16 C18        -2.5030   -1.1770    5.8040 c2        1 DZP      0.167000
     17 N2         -3.4070   -0.7010    4.9910 n2        1 DZP     -0.286000
     18 O1         -2.7630   -2.2190    6.6490 os        1 DZP     -0.196000
     19 Cl         -2.7880    3.8850    1.2820 cl        1 DZP     -0.004000
     20 H1         -0.3290   -1.7420    0.8710 hc        1 DZP      0.120000
     21 H2         -0.3840    0.3000   -0.8650 ha        1 DZP      0.141000
     22 H3          1.8980    1.3650   -0.5680 ha        1 DZP      0.146000
     23 H4          3.3010    0.1870    1.3000 ha        1 DZP      0.166000
     24 H7         -4.7990    1.6120    4.7720 hc        1 DZP      0.178500
     25 H8         -5.1860    0.5340    3.3810 hc        1 DZP      0.178500
     26 H11        -1.5620   -0.4390    1.1470 hc        1 DZP      0.120000
     27 H14        -0.8910    1.9380    2.1060 ha        1 DZP      0.159000
     28 H171       -1.0870    0.3300    6.4200 h1        1 DZP      0.129500
     29 H172       -0.5290   -1.3900    6.6970 h1        1 DZP      0.129500
     30 H201       -4.1970   -3.2940    5.5550 h1        1 DZP      0.096667
     31 H202       -4.8520   -2.1490    6.8330 h1        1 DZP      0.096667
     32 H203       -3.9520   -3.6750    7.3420 h1        1 DZP      0.096667
     33 C20        -4.0370   -2.8660    6.5730 c3        1 DZP     -0.070000
@<TRIPOS>BOND
     1    1    2 1   
     2    1   10 1   
     3    1   21 1   
     4    2    3 1   
     5    2   22 1   
     6    3    4 1   
     7    3   23 1   
     8    4   11 1   
     9    5   11 1   
    10    5   12 1   
    11    5   14 1   
    12    6    7 1   
    13    6   12 1   
    14    6   17 1   
    15    7    8 1   
    16    7   24 1   
    17    7   25 1   
    18    8    9 1   
    19    9   13 1   
    20    9   19 1   
    21   10   11 1   
    22   10   20 1   
    23   10   26 1   
    24   12   13 1   
    25   13   27 1   
    26   14   15 1   
    27   15   16 1   
    28   15   28 1   
    29   15   29 1   
    30   16   17 1   
    31   16   18 1   
    32   18   33 1   
    33   30   33 1   
    34   31   33 1   
    35   32   33 1   
@<TRIPOS>SUBSTRUCTURE
     1 DZP         1 TEMP              0 ****  ****    0 ROOT
