@<TRIPOS>MOLECULE
DZP
   33    35     1     0     0
SMALL
bcc


@<TRIPOS>ATOM
      1 C1         -0.0380    0.0500    0.0610 c2        1 DZP     -0.156000
      2 C2          1.1680    0.6610    0.0460 c2        1 DZP     -0.142000
      3 C3          2.0860    0.3450    1.1550 c2        1 DZP     -0.099000
      4 C4          1.3990    0.0340    2.2470 c1        1 DZP     -0.085000
      5 C5         -0.5940   -0.1500    3.7580 c2        1 DZP      0.103000
      6 C6         -3.0430   -0.0120    4.3640 c2        1 DZP      0.116000
      7 C7         -4.3890    0.6100    4.0720 c3        1 DZP     -0.203000
      8 C8         -4.4520    1.7490    3.1740 c1        1 DZP     -0.072000
      9 C9         -3.2570    2.2330    2.6090 c2        1 DZP     -0.188000
     10 C11        -0.5510   -0.7600    1.2280 c3        1 DZP     -0.101000
     11 C12         0.1340   -0.3020    2.4930 c2        1 DZP     -0.073000
     12 C13        -1.9430    0.4490    3.6570 c2        1 DZP     -0.225000
     13 C14        -2.0630    1.5790    2.7830 c2        1 DZP      0.028000
     14 N15        -0.0160   -0.5280    4.8560 n2        1 DZP     -0.158000
     15 C17        -0.6930   -0.3960    6.1090 c3        1 DZP     -0.113000
     16 C18        -1.9630   -1.2340    6.2310 c2        1 DZP      0.295000
     17 N2         -3.0140   -1.0370    5.3090 n         1 DZP     -0.279000
     18 O1         -2.0850   -2.0830    7.1260 o         1 DZP     -0.312000
     19 CL         -3.3290    3.6260    1.6390 cl        1 DZP      0.003000
     20 H1         -0.3880   -1.8500    1.0150 hc        1 DZP      0.119000
     21 H2         -0.7150    0.0910   -0.8050 ha        1 DZP      0.141000
     22 H3          1.5280    1.2750   -0.7870 ha        1 DZP      0.146000
     23 H4          3.1630    0.2670    0.9900 ha        1 DZP      0.167000
     24 H7         -4.8730    0.9370    5.0420 hc        1 DZP      0.172000
     25 H8         -5.0780   -0.1700    3.6230 hc        1 DZP      0.172000
     26 H11        -1.6550   -0.5930    1.3460 hc        1 DZP      0.119000
     27 H14        -1.1460    1.9010    2.2530 ha        1 DZP      0.162000
     28 H171       -0.9580    0.6760    6.3460 h1        1 DZP      0.130500
     29 H172        0.0230   -0.7680    6.9000 h1        1 DZP      0.130500
     30 H201       -4.0310   -2.6800    6.1570 h1        1 DZP      0.100000
     31 H202       -5.0040   -1.1380    6.0450 h1        1 DZP      0.100000
     32 H203       -4.6530   -2.1150    4.5360 h1        1 DZP      0.100000
     33 C20        -4.2410   -1.7760    5.5230 c3        1 DZP     -0.098000
@<TRIPOS>BOND
     1    1    2 1   
     2    1   10 1   
     3    1   21 1   
     4    2    3 1   
     5    2   22 1   
     6    3    4 1   
     7    3   23 1   
     8    4   11 1   
     9    5   11 1   
    10    5   12 1   
    11    5   14 1   
    12    6    7 1   
    13    6   12 1   
    14    6   17 1   
    15    7    8 1   
    16    7   24 1   
    17    7   25 1   
    18    8    9 1   
    19    9   13 1   
    20    9   19 1   
    21   10   11 1   
    22   10   20 1   
    23   10   26 1   
    24   12   13 1   
    25   13   27 1   
    26   14   15 1   
    27   15   16 1   
    28   15   28 1   
    29   15   29 1   
    30   16   17 1   
    31   16   18 1   
    32   17   33 1   
    33   30   33 1   
    34   31   33 1   
    35   32   33 1   
@<TRIPOS>SUBSTRUCTURE
     1 DZP         1 TEMP              0 ****  ****    0 ROOT
