@<TRIPOS>MOLECULE
DZX
   27    28     1     0     0
SMALL
bcc


@<TRIPOS>ATOM
      1 O1          0.1870   -0.0570   -0.3160 oh        1 DZX     -0.604800
      2 C6          1.5870   -0.1360   -0.1410 c3        1 DZX      0.144400
      3 C5          1.9740   -0.0960    1.3340 c3        1 DZX     -0.088700
      4 C4          1.3330    1.0930    2.0690 c3        1 DZX      0.158100
      5 O5          1.3340    2.2060    1.1850 oh        1 DZX     -0.618800
      6 C3          2.0210    1.4050    3.4190 c3        1 DZX      0.120100
      7 O7          1.6930    2.7510    3.7320 oh        1 DZX     -0.615800
      8 C2          3.5550    1.1880    3.3770 c3        1 DZX      0.111500
      9 C7          4.1750    2.0940    2.2810 c3        1 DZX     -0.111400
     10 C8          4.1430    1.2200    1.0240 c3        1 DZX     -0.109400
     11 C1          3.5060   -0.1160    1.5010 c3        1 DZX      0.149500
     12 N1          3.7920   -0.2060    2.9520 n7        1 DZX     -0.771200
     13 H1         -0.0770    0.8390   -0.0640 ho        1 DZX      0.411000
     14 H61C        1.8750   -1.1270   -0.5840 h1        1 DZX      0.048200
     15 H62C        2.0900    0.6900   -0.7110 h1        1 DZX      0.048200
     16 H5          1.5570   -1.0250    1.8190 hc        1 DZX      0.075700
     17 H4          0.2550    0.8370    2.2920 h1        1 DZX      0.043700
     18 HA          3.9330   -0.9970    0.9540 h1        1 DZX      0.067700
     19 HB          1.0880    2.9870    1.6980 ho        1 DZX      0.426000
     20 H3          1.5790    0.7350    4.2110 h1        1 DZX      0.057700
     21 H7          2.2850    3.0340    4.4390 ho        1 DZX      0.413000
     22 H2          3.9950    1.3850    4.3880 h1        1 DZX      0.061700
     23 H71C        3.5650    3.0200    2.1480 hc        1 DZX      0.055700
     24 H72C        5.2170    2.3850    2.5530 hc        1 DZX      0.055700
     25 HC          4.7570   -0.4430    3.0960 hn        1 DZX      0.352800
     26 H81C        5.1710    1.0400    0.6280 hc        1 DZX      0.059200
     27 H82C        3.5320    1.7020    0.2250 hc        1 DZX      0.059200
@<TRIPOS>BOND
     1    1    2 1   
     2    1   13 1   
     3    2    3 1   
     4    2   14 1   
     5    2   15 1   
     6    3    4 1   
     7    3   11 1   
     8    3   16 1   
     9    4    5 1   
    10    4    6 1   
    11    4   17 1   
    12    5   19 1   
    13    6    7 1   
    14    6    8 1   
    15    6   20 1   
    16    7   21 1   
    17    8    9 1   
    18    8   12 1   
    19    8   22 1   
    20    9   10 1   
    21    9   23 1   
    22    9   24 1   
    23   10   11 1   
    24   10   26 1   
    25   10   27 1   
    26   11   12 1   
    27   11   18 1   
    28   12   25 1   
@<TRIPOS>SUBSTRUCTURE
     1 DZX         1 TEMP              0 ****  ****    0 ROOT
