@<TRIPOS>MOLECULE
DZX
   27    28     1     0     0
SMALL
bcc


@<TRIPOS>ATOM
      1 O1          0.1740   -0.0750   -0.2920 oh        1 DZX     -0.604800
      2 C6          1.5760   -0.1480   -0.1280 c3        1 DZX      0.144400
      3 C5          1.9740   -0.1000    1.3440 c3        1 DZX     -0.088700
      4 C4          1.3340    1.0910    2.0780 c3        1 DZX      0.158100
      5 O5          1.3250    2.1990    1.1890 oh        1 DZX     -0.618800
      6 C3          2.0320    1.4110    3.4210 c3        1 DZX      0.120100
      7 O7          1.7020    2.7570    3.7310 oh        1 DZX     -0.615800
      8 C2          3.5660    1.1980    3.3690 c3        1 DZX      0.111500
      9 C7          4.1750    2.1010    2.2640 c3        1 DZX     -0.111400
     10 C8          4.1360    1.2210    1.0110 c3        1 DZX     -0.109400
     11 C1          3.5070   -0.1150    1.4990 c3        1 DZX      0.149500
     12 N1          3.8040   -0.1970    2.9490 n3        1 DZX     -0.771200
     13 H1         -0.0910    0.8210   -0.0430 ho        1 DZX      0.411000
     14 H61C        2.0710    0.6760   -0.7060 h1        1 DZX      0.048200
     15 H62C        1.8640   -1.1410   -0.5690 h1        1 DZX      0.048200
     16 H5          1.5630   -1.0280    1.8360 hc        1 DZX      0.075700
     17 H4          0.2590    0.8320    2.3110 h1        1 DZX      0.043700
     18 HA          3.9330   -0.9970    0.9540 h1        1 DZX      0.067700
     19 HB          1.0800    2.9810    1.7000 ho        1 DZX      0.426000
     20 H3          1.5980    0.7430    4.2200 h1        1 DZX      0.057700
     21 H7          2.2990    3.0450    4.4310 ho        1 DZX      0.413000
     22 H2          4.0130    1.4020    4.3750 h1        1 DZX      0.061700
     23 H71C        3.5610    3.0250    2.1310 hc        1 DZX      0.055700
     24 H72C        5.2180    2.3970    2.5260 hc        1 DZX      0.055700
     25 HC          4.7710   -0.4310    3.0860 hn        1 DZX      0.352800
     26 H81C        3.5170    1.6970    0.2140 hc        1 DZX      0.059200
     27 H82C        5.1610    1.0420    0.6080 hc        1 DZX      0.059200
@<TRIPOS>BOND
     1    1    2 1   
     2    1   13 1   
     3    2    3 1   
     4    2   14 1   
     5    2   15 1   
     6    3    4 1   
     7    3   11 1   
     8    3   16 1   
     9    4    5 1   
    10    4    6 1   
    11    4   17 1   
    12    5   19 1   
    13    6    7 1   
    14    6    8 1   
    15    6   20 1   
    16    7   21 1   
    17    8    9 1   
    18    8   12 1   
    19    8   22 1   
    20    9   10 1   
    21    9   23 1   
    22    9   24 1   
    23   10   11 1   
    24   10   26 1   
    25   10   27 1   
    26   11   12 1   
    27   11   18 1   
    28   12   25 1   
@<TRIPOS>SUBSTRUCTURE
     1 DZX         1 TEMP              0 ****  ****    0 ROOT
