@<TRIPOS>MOLECULE
DZY
   19    19     1     0     0
SMALL
bcc


@<TRIPOS>ATOM
      1 O11        -2.9660    1.1780    0.5350 o         1 DZY     -0.835800
      2 C8         -2.5830    0.0840    0.0430 c         1 DZY      0.920600
      3 O10        -3.0400   -1.0480    0.3800 o         1 DZY     -0.835800
      4 C4         -1.5300    0.1190   -1.0950 c3        1 DZY     -0.246700
      5 C1         -0.1350    0.0860   -0.5930 cc        1 DZY      0.406600
      6 C3          0.4640   -1.0320   -0.0100 cd        1 DZY     -0.152700
      7 C7         -0.1650   -2.3350    0.2020 c3        1 DZY     -0.044800
      8 S6          2.0600   -0.6760    0.4440 ss        1 DZY     -0.254300
      9 C5          1.8940    0.9330   -0.1640 cd        1 DZY      0.392700
     10 N2          0.7020    1.2050   -0.6830 nc        1 DZY     -0.626000
     11 C9          3.0230    1.8830   -0.0760 c3        1 DZY     -0.117400
     12 H2         -1.6900   -0.7830   -1.7420 hc        1 DZY      0.045700
     13 H3         -1.7150    1.0390   -1.7050 hc        1 DZY      0.045700
     14 H4         -0.0740   -2.9670   -0.7190 hc        1 DZY      0.059033
     15 H5          0.3090   -2.8820    1.0530 hc        1 DZY      0.059033
     16 H6         -1.2630   -2.1930    0.4240 hc        1 DZY      0.059033
     17 H7          3.9110    1.3850    0.3850 hc        1 DZY      0.042367
     18 H8          3.3080    2.2520   -1.0930 hc        1 DZY      0.042367
     19 H9          2.7420    2.7660    0.5510 hc        1 DZY      0.042367
@<TRIPOS>BOND
     1    1    2 1   
     2    2    3 1   
     3    2    4 1   
     4    4    5 1   
     5    4   12 1   
     6    4   13 1   
     7    5    6 2   
     8    5   10 1   
     9    6    7 1   
    10    6    8 1   
    11    7   14 1   
    12    7   15 1   
    13    7   16 1   
    14    8    9 1   
    15    9   10 2   
    16    9   11 1   
    17   11   17 1   
    18   11   18 1   
    19   11   19 1   
@<TRIPOS>SUBSTRUCTURE
     1 DZY         1 TEMP              0 ****  ****    0 ROOT
