@<TRIPOS>MOLECULE
DZY
   19    17     1     0     0
SMALL
bcc


@<TRIPOS>ATOM
      1 O11        -3.4460    1.1550    0.4680 o         1 DZY     -0.570500
      2 C8         -2.3360    1.4600    0.9780 c2        1 DZY      0.340000
      3 O10        -2.2160    1.5280    2.2290 o         1 DZY     -0.570500
      4 C4         -1.1430    1.7290    0.0880 c3        1 DZY     -0.181000
      5 C1         -0.2890    0.4840   -0.0010 c2        1 DZY     -0.016000
      6 C3          1.0570    0.4180   -0.5180 c1        1 DZY     -0.350000
      7 C7          1.8250    1.5580   -1.1490 c2        1 DZY     -0.155500
      8 S6          1.5260   -1.0300   -0.4150 ss        1 DZY      0.330000
      9 C5          0.3730   -1.8490    0.2030 c1        1 DZY     -0.279000
     10 N2         -0.7140   -0.9570    0.4530 n2        1 DZY     -0.100000
     11 C9          0.3660   -3.3450    0.4290 c2        1 DZY     -0.155500
     12 H2         -0.6140    2.4610    0.4650 hc        1 DZY      0.085000
     13 H3         -1.4530    1.9770   -0.8060 hc        1 DZY      0.085000
     14 H4          1.3000    1.9370   -1.8850 ha        1 DZY      0.090000
     15 H5          2.6790    1.2250   -1.4940 ha        1 DZY      0.090000
     16 H6          1.9920    2.2510   -0.4770 ha        1 DZY      0.090000
     17 H7         -0.0790   -3.7870   -0.3240 ha        1 DZY      0.090000
     18 H8          1.2880   -3.6690    0.4990 ha        1 DZY      0.090000
     19 H9         -0.1160   -3.5480    1.2580 ha        1 DZY      0.090000
@<TRIPOS>BOND
     1    1    2 1   
     2    2    3 1   
     3    2    4 1   
     4    4    5 1   
     5    4   12 1   
     6    4   13 1   
     7    5    6 1   
     8    5   10 1   
     9    6    8 1   
    10    7   14 1   
    11    7   15 1   
    12    7   16 1   
    13    8    9 1   
    14    9   10 1   
    15   11   17 1   
    16   11   18 1   
    17   11   19 1   
@<TRIPOS>SUBSTRUCTURE
     1 DZY         1 TEMP              0 ****  ****    0 ROOT
