@<TRIPOS>MOLECULE
DZY
   19    19     1     0     0
SMALL
bcc


@<TRIPOS>ATOM
      1 O11         0.8400    0.5860    0.7210 o         1 DZY     -0.835800
      2 C8          1.2270   -0.3350   -0.0450 c         1 DZY      0.920600
      3 O10         0.9400   -1.5580    0.1080 o         1 DZY     -0.835800
      4 C4          2.0570    0.0510   -1.2980 c3        1 DZY     -0.246700
      5 C1          3.5160    0.0940   -1.0320 cc        1 DZY      0.406600
      6 C3          4.3060   -1.0330   -0.8000 cd        1 DZY     -0.152700
      7 C7          3.8430   -2.4200   -0.7760 c3        1 DZY     -0.044800
      8 S6          5.9180   -0.5770   -0.5290 ss        1 DZY     -0.254300
      9 C5          5.5050    1.0860   -0.7490 cd        1 DZY      0.392700
     10 N2          4.2200    1.3040   -1.0100 nc        1 DZY     -0.626000
     11 C9          6.5410    2.1330   -0.6350 c3        1 DZY     -0.117400
     12 H2          1.6870    1.0420   -1.6630 hc        1 DZY      0.045700
     13 H3          1.8690   -0.7210   -2.0890 hc        1 DZY      0.045700
     14 H4          4.5060   -3.0590   -0.1430 hc        1 DZY      0.059033
     15 H5          3.8290   -2.8450   -1.8120 hc        1 DZY      0.059033
     16 H6          2.7920   -2.4610   -0.3640 hc        1 DZY      0.059033
     17 H7          6.6090    2.7260   -1.5810 hc        1 DZY      0.042367
     18 H8          7.5370    1.6690   -0.4310 hc        1 DZY      0.042367
     19 H9          6.2960    2.8350    0.2020 hc        1 DZY      0.042367
@<TRIPOS>BOND
     1    1    2 1   
     2    2    3 1   
     3    2    4 1   
     4    4    5 1   
     5    4   12 1   
     6    4   13 1   
     7    5    6 2   
     8    5   10 1   
     9    6    7 1   
    10    6    8 1   
    11    7   14 1   
    12    7   15 1   
    13    7   16 1   
    14    8    9 1   
    15    9   10 2   
    16    9   11 1   
    17   11   17 1   
    18   11   18 1   
    19   11   19 1   
@<TRIPOS>SUBSTRUCTURE
     1 DZY         1 TEMP              0 ****  ****    0 ROOT
