@<TRIPOS>MOLECULE
DZY
   19    19     1     0     0
SMALL
bcc


@<TRIPOS>ATOM
      1 O11         0.7380    0.5460    0.5040 o         1 DZY     -0.835800
      2 C8          1.2160   -0.4270   -0.1350 c         1 DZY      0.920600
      3 O10         0.9940   -1.6420    0.1440 o         1 DZY     -0.835800
      4 C4          2.0830   -0.1300   -1.3870 c3        1 DZY     -0.246700
      5 C1          3.5220    0.0360   -1.0660 cc        1 DZY      0.406600
      6 C3          4.3640   -1.0070   -0.6740 cd        1 DZY     -0.152700
      7 C7          3.9830   -2.4090   -0.5140 c3        1 DZY     -0.044800
      8 S6          5.9310   -0.4220   -0.3890 ss        1 DZY     -0.254300
      9 C5          5.4320    1.1780   -0.8110 cd        1 DZY      0.392700
     10 N2          4.1520    1.2820   -1.1500 nc        1 DZY     -0.626000
     11 C9          6.3990    2.2940   -0.7710 c3        1 DZY     -0.117400
     12 H2          1.6730    0.7900   -1.8760 hc        1 DZY      0.045700
     13 H3          1.9790   -0.9940   -2.0930 hc        1 DZY      0.045700
     14 H4          4.6500   -2.9320    0.2130 hc        1 DZY      0.059033
     15 H5          4.0440   -2.9450   -1.4960 hc        1 DZY      0.059033
     16 H6          2.9170   -2.4720   -0.1450 hc        1 DZY      0.059033
     17 H7          6.4780    2.7840   -1.7740 hc        1 DZY      0.042367
     18 H8          7.4100    1.9190   -0.4760 hc        1 DZY      0.042367
     19 H9          6.0730    3.0660   -0.0300 hc        1 DZY      0.042367
@<TRIPOS>BOND
     1    1    2 1   
     2    2    3 1   
     3    2    4 1   
     4    4    5 1   
     5    4   12 1   
     6    4   13 1   
     7    5    6 2   
     8    5   10 1   
     9    6    7 1   
    10    6    8 1   
    11    7   14 1   
    12    7   15 1   
    13    7   16 1   
    14    8    9 1   
    15    9   10 2   
    16    9   11 1   
    17   11   17 1   
    18   11   18 1   
    19   11   19 1   
@<TRIPOS>SUBSTRUCTURE
     1 DZY         1 TEMP              0 ****  ****    0 ROOT
