@<TRIPOS>MOLECULE
DZZ
   14    13     1     0     0
SMALL
bcc


@<TRIPOS>ATOM
      1 O4         -1.9350    0.1410    0.0830 oh        1 DZZ     -0.705400
      2 P1         -0.3540    0.1410    0.0830 p5        1 DZZ      1.231200
      3 S1          0.2920    0.1410    1.9090 s         1 DZZ     -0.566000
      4 O2          0.1730   -1.1490   -0.6620 os        1 DZZ     -0.554200
      5 C1         -0.4120   -2.3930   -0.3460 c3        1 DZZ      0.131700
      6 O1          0.1730    1.4320   -0.6620 os        1 DZZ     -0.554200
      7 C2          1.2900    2.1070   -0.1280 c3        1 DZZ      0.131700
      8 HO4        -2.2310    0.8320    0.5560 ho        1 DZZ      0.496000
      9 H11         0.1670   -3.1140   -0.6610 h1        1 DZZ      0.065033
     10 H12        -0.5220   -2.4650    0.6210 h1        1 DZZ      0.065033
     11 H13        -1.2830   -2.4630   -0.7800 h1        1 DZZ      0.065033
     12 H21         1.0580    2.4800    0.7440 h1        1 DZZ      0.065033
     13 H22         1.5530    2.8280   -0.7310 h1        1 DZZ      0.065033
     14 H23         2.0310    1.4800   -0.0270 h1        1 DZZ      0.065033
@<TRIPOS>BOND
     1    1    2 1   
     2    1    8 1   
     3    2    3 2   
     4    2    4 1   
     5    2    6 1   
     6    4    5 1   
     7    5    9 1   
     8    5   10 1   
     9    5   11 1   
    10    6    7 1   
    11    7   12 1   
    12    7   13 1   
    13    7   14 1   
@<TRIPOS>SUBSTRUCTURE
     1 DZZ         1 TEMP              0 ****  ****    0 ROOT
