@<TRIPOS>MOLECULE
DZZ
   14    13     1     0     0
SMALL
bcc


@<TRIPOS>ATOM
      1 O4          0.0020    0.9000   -2.1350 oh        1 DZZ     -0.705400
      2 P1          0.0010    0.0690   -0.7860 p5        1 DZZ      1.231200
      3 S1          0.0010   -1.8010   -0.8280 s         1 DZZ     -0.566000
      4 O2          1.2160    0.8200   -0.0690 os        1 DZZ     -0.554200
      5 C1          2.2350    0.0750    0.5620 c3        1 DZZ      0.131700
      6 O1         -1.2160    0.8190   -0.0720 os        1 DZZ     -0.554200
      7 C2         -2.2360    0.0740    0.5580 c3        1 DZZ      0.131700
      8 HO4         0.0020    1.8550   -2.0460 ho        1 DZZ      0.496000
      9 H11         2.2440    0.3560    1.6480 h1        1 DZZ      0.065033
     10 H12         2.0490   -1.0260    0.4310 h1        1 DZZ      0.065033
     11 H13         3.2110    0.3740    0.0970 h1        1 DZZ      0.065033
     12 H21        -2.2480    0.3550    1.6430 h1        1 DZZ      0.065033
     13 H22        -3.2110    0.3720    0.0900 h1        1 DZZ      0.065033
     14 H23        -2.0500   -1.0270    0.4270 h1        1 DZZ      0.065033
@<TRIPOS>BOND
     1    1    2 1   
     2    1    8 1   
     3    2    3 2   
     4    2    4 1   
     5    2    6 1   
     6    4    5 1   
     7    5    9 1   
     8    5   10 1   
     9    5   11 1   
    10    6    7 1   
    11    7   12 1   
    12    7   13 1   
    13    7   14 1   
@<TRIPOS>SUBSTRUCTURE
     1 DZZ         1 TEMP              0 ****  ****    0 ROOT
