@<TRIPOS>MOLECULE
DZZ
   14    13     1     0     0
SMALL
bcc


@<TRIPOS>ATOM
      1 O4         -0.5450   -0.0020    0.4960 oh        1 DZZ     -0.705400
      2 P1          1.0380   -0.0000    0.5680 p5        1 DZZ      1.231200
      3 S1          1.9080    0.0020    2.2240 s         1 DZZ     -0.566000
      4 O2          1.3000   -1.2170   -0.4340 os        1 DZZ     -0.554200
      5 C1          2.2150   -2.2350   -0.0880 c3        1 DZZ      0.131700
      6 O1          1.2980    1.2150   -0.4360 os        1 DZZ     -0.554200
      7 C2          2.2100    2.2360   -0.0910 c3        1 DZZ      0.131700
      8 HO4        -0.9300   -0.0030   -0.3820 ho        1 DZZ      0.496000
      9 H11         3.0270   -2.2450   -0.8610 h1        1 DZZ      0.065033
     10 H12         2.6340   -2.0480    0.9380 h1        1 DZZ      0.065033
     11 H13         1.6630   -3.2110   -0.1220 h1        1 DZZ      0.065033
     12 H21         1.6560    3.2110   -0.1270 h1        1 DZZ      0.065033
     13 H22         3.0220    2.2470   -0.8640 h1        1 DZZ      0.065033
     14 H23         2.6300    2.0510    0.9350 h1        1 DZZ      0.065033
@<TRIPOS>BOND
     1    1    2 1   
     2    1    8 1   
     3    2    3 2   
     4    2    4 1   
     5    2    6 1   
     6    4    5 1   
     7    5    9 1   
     8    5   10 1   
     9    5   11 1   
    10    6    7 1   
    11    7   12 1   
    12    7   13 1   
    13    7   14 1   
@<TRIPOS>SUBSTRUCTURE
     1 DZZ         1 TEMP              0 ****  ****    0 ROOT
