@<TRIPOS>MOLECULE
DZZ
   14    13     1     0     0
SMALL
bcc


@<TRIPOS>ATOM
      1 O4         -0.5520   -0.0220    0.4520 oh        1 DZZ     -0.705400
      2 P1          1.0300   -0.0050    0.5560 p5        1 DZZ      1.231200
      3 S1          1.8660    0.0100    2.2280 s         1 DZZ     -0.566000
      4 O2          1.3230   -1.2210   -0.4380 os        1 DZZ     -0.554200
      5 C1          2.2400   -2.2300   -0.0700 c3        1 DZZ      0.131700
      6 O1          1.2970    1.2110   -0.4460 os        1 DZZ     -0.554200
      7 C2          2.1930    2.2410   -0.0870 c3        1 DZZ      0.131700
      8 HO4        -0.9200   -0.0290   -0.4330 ho        1 DZZ      0.496000
      9 H11         3.0680   -2.2350   -0.8260 h1        1 DZZ      0.065033
     10 H12         2.6360   -2.0370    0.9640 h1        1 DZZ      0.065033
     11 H13         1.6980   -3.2110   -0.1130 h1        1 DZZ      0.065033
     12 H21         1.6310    3.2100   -0.1360 h1        1 DZZ      0.065033
     13 H22         3.0200    2.2570   -0.8440 h1        1 DZZ      0.065033
     14 H23         2.5940    2.0620    0.9480 h1        1 DZZ      0.065033
@<TRIPOS>BOND
     1    1    2 1   
     2    1    8 1   
     3    2    3 2   
     4    2    4 1   
     5    2    6 1   
     6    4    5 1   
     7    5    9 1   
     8    5   10 1   
     9    5   11 1   
    10    6    7 1   
    11    7   12 1   
    12    7   13 1   
    13    7   14 1   
@<TRIPOS>SUBSTRUCTURE
     1 DZZ         1 TEMP              0 ****  ****    0 ROOT
