@<TRIPOS>MOLECULE
801
   30    22     1     0     0
SMALL
bcc


@<TRIPOS>ATOM
      1 C1         -0.2500    0.0210   -2.9160 c1        1 801     -0.219000
      2 C2          1.1340    0.0940   -2.8990 c1        1 801     -0.146750
      3 C3          1.8140    0.0750   -1.6920 c1        1 801     -0.146750
      4 C4          1.1000   -0.0190   -0.4820 c1        1 801     -0.004000
      5 C5         -0.2620   -0.0910   -0.4990 c1        1 801     -0.004000
      6 C6         -0.9530   -0.0720   -1.7250 c1        1 801     -0.080000
      7 C7         -1.0490   -0.0570   -4.1980 c2        1 801      0.353000
      8 N1         -1.4160   -1.3200   -4.7300 n3        1 801     -0.344000
      9 N2         -1.4020    1.0420   -4.8160 n2        1 801     -0.351000
     10 N3          1.5050   -0.0570    0.8110 n1        1 801     -0.202000
     11 N4         -0.6920   -0.1730    0.7840 n1        1 801     -0.202000
     12 C8          0.3990   -0.1520    1.5950 c2        1 801      0.206000
     13 C1'         0.3250   -0.1360    2.9790 c1        1 801     -0.281000
     14 N2'         0.5450   -1.2800    3.6860 n1        1 801     -0.047000
     15 C3'         0.4430   -1.2730    5.0440 c1        1 801     -0.194000
     16 C4'         0.1140   -0.1020    5.7090 c1        1 801     -0.146750
     17 C5'        -0.1070    1.0440    5.0020 c1        1 801     -0.146750
     18 C6'        -0.0030    1.0360    3.6410 c1        1 801      0.275000
     19 O6'        -0.2680    2.2060    2.9100 o         1 801     -0.475000
     20 HC2         1.6290    0.1590   -3.7380 ha        1 801      0.129750
     21 HC3         2.7890    0.1260   -1.6800 ha        1 801      0.129750
     22 HC6        -1.9280   -0.1240   -1.7370 ha        1 801      0.141000
     23 HH11       -1.9510   -1.3660   -5.4700 hn        1 801      0.263500
     24 HH12       -1.1340   -2.0870   -4.3210 hn        1 801      0.263500
     25 HH21       -1.1660    1.8570   -4.4720 DU        1 801      0.292000
     26 HH22       -1.8870    0.9950   -5.5920 hn        1 801      0.246000
     27 HN3         2.3680   -0.0240    1.1040 DU        1 801      0.292000
     28 HC3'        0.6000   -2.0930    5.5500 ha        1 801      0.139000
     29 HC4'        0.0400   -0.0970    6.6820 ha        1 801      0.129750
     30 HC5'       -0.3380    1.8690    5.4690 ha        1 801      0.129750
@<TRIPOS>BOND
     1    1    6 1   
     2    1    7 1   
     3    2    3 1   
     4    2   20 1   
     5    3   21 1   
     6    4    5 1   
     7    6   22 1   
     8    7    8 1   
     9    7    9 1   
    10    8   23 1   
    11    8   24 1   
    12    9   26 1   
    13   10   12 1   
    14   11   12 1   
    15   12   13 1   
    16   13   18 1   
    17   14   15 1   
    18   15   28 1   
    19   16   17 1   
    20   16   29 1   
    21   17   30 1   
    22   18   19 1   
@<TRIPOS>SUBSTRUCTURE
     1 801         1 TEMP              0 ****  ****    0 ROOT
