@<TRIPOS>MOLECULE
801
   30    32     1     0     0
SMALL
bcc


@<TRIPOS>ATOM
      1 C1          3.3400   -0.0470   -0.0160 ca        1 801     -0.294900
      2 C2          3.1820   -1.4390   -0.1840 ca        1 801     -0.104000
      3 C3          1.9250   -2.0210   -0.2510 ca        1 801     -0.154000
      4 C4          0.8060   -1.1920   -0.1370 ca        1 801      0.026000
      5 C5          0.9530    0.2690    0.0440 ca        1 801     -0.022000
      6 C6          2.2280    0.8140    0.1020 ca        1 801     -0.096000
      7 C7          4.6850    0.5310    0.0320 ce        1 801      0.529400
      8 N1          4.9060    1.7500   -0.5310 nh        1 801     -0.501600
      9 N2          5.6930   -0.1620    0.6310 nh        1 801     -0.485700
     10 N3         -0.5490   -1.4240   -0.1560 na        1 801     -0.255600
     11 N4         -0.2990    0.8680    0.1320 nc        1 801     -0.315600
     12 C8         -1.2140   -0.1510    0.0080 cc        1 801      0.326500
     13 C1'        -2.6440   -0.0620    0.0270 cd        1 801     -0.171600
     14 N2'        -3.3530   -1.2450   -0.0610 nd        1 801     -0.543300
     15 C3'        -4.6640   -1.2130   -0.0380 cc        1 801      0.331500
     16 C4'        -5.4310    0.0020    0.0760 cc        1 801     -0.209600
     17 C5'        -4.7740    1.1820    0.1610 cd        1 801     -0.242200
     18 C6'        -3.3030    1.2410    0.1360 c         1 801      0.563500
     19 O6'        -2.7220    2.3430    0.1990 o         1 801     -0.613100
     20 HC2         4.0610   -2.0890   -0.3080 ha        1 801      0.117000
     21 HC3         1.8170   -3.1050   -0.3950 ha        1 801      0.144000
     22 HC6         2.3410    1.8940    0.2770 ha        1 801      0.144000
     23 HH11        4.1370    2.2150   -0.9650 hn        1 801      0.311950
     24 HH12        5.7720    2.2300   -0.4600 hn        1 801      0.311950
     25 HH21        6.6320    0.1570    0.6500 hn        1 801      0.311950
     26 HH22        5.4770   -1.0370    1.0530 hn        1 801      0.311950
     27 HN3        -1.0030   -2.2950   -0.2520 hn        1 801      0.325700
     28 HC3'       -5.1880   -2.1800   -0.1100 h4        1 801      0.004800
     29 HC4'       -6.5270   -0.0660    0.0920 ha        1 801      0.117000
     30 HC5'       -5.2960    2.1450    0.2500 ha        1 801      0.132000
@<TRIPOS>BOND
     1    1    2 ar  
     2    1    6 ar  
     3    1    7 1   
     4    2    3 ar  
     5    2   20 1   
     6    3    4 ar  
     7    3   21 1   
     8    4    5 ar  
     9    4   10 2   
    10    5    6 ar  
    11    5   11 2   
    12    6   22 1   
    13    7    8 2   
    14    7    9 1   
    15    8   23 1   
    16    8   24 1   
    17    9   25 1   
    18    9   26 1   
    19   10   12 1   
    20   10   27 1   
    21   11   12 1   
    22   12   13 2   
    23   13   14 1   
    24   13   18 1   
    25   14   15 2   
    26   15   16 1   
    27   15   28 1   
    28   16   17 2   
    29   16   29 1   
    30   17   18 1   
    31   17   30 1   
    32   18   19 2   
@<TRIPOS>SUBSTRUCTURE
     1 801         1 TEMP              0 ****  ****    0 ROOT
