@<TRIPOS>MOLECULE
802
   31    33     1     0     0
SMALL
bcc


@<TRIPOS>ATOM
      1 C1          3.6950    0.1300    0.0030 ca        1 802     -0.298900
      2 C2          3.5910   -1.2760    0.0790 ca        1 802     -0.100000
      3 C3          2.3590   -1.9100    0.1070 ca        1 802     -0.149000
      4 C4          1.2070   -1.1170    0.0670 ca        1 802      0.034000
      5 C5          1.2980    0.3580   -0.0100 ca        1 802     -0.025000
      6 C6          2.5500    0.9540   -0.0420 ca        1 802     -0.093000
      7 C7          5.0180    0.7560   -0.0390 ce        1 802      0.529400
      8 N1          5.2080    1.8640   -0.8060 nh        1 802     -0.501100
      9 N2          6.0380    0.2190    0.6860 nh        1 802     -0.485200
     10 N3         -0.1350   -1.4060    0.0860 na        1 802     -0.243600
     11 N4          0.0200    0.9070   -0.0350 nc        1 802     -0.372600
     12 C8         -0.8490   -0.1630    0.0210 cc        1 802      0.314500
     13 C1'        -2.2760   -0.1110    0.0180 cd        1 802     -0.319200
     14 C2'        -2.9040    1.1590   -0.0440 cd        1 802     -0.038000
     15 C3'        -4.2780    1.2740   -0.0510 cc        1 802     -0.000500
     16 F3'        -4.8800    2.4940   -0.1110 f         1 802     -0.195500
     17 C4'        -5.1010    0.1020    0.0050 cc        1 802     -0.075000
     18 C5'        -4.5280   -1.1260    0.0660 cd        1 802     -0.262200
     19 C6'        -3.0810   -1.3140    0.0760 c         1 802      0.576500
     20 O6'        -2.6040   -2.4830    0.1340 o         1 802     -0.714100
     21 HC2         4.4960   -1.9020    0.0780 ha        1 802      0.119000
     22 HC3         2.2910   -3.0060    0.1520 ha        1 802      0.151000
     23 HC6         2.6240    2.0510   -0.0600 ha        1 802      0.140000
     24 HH11        4.4330    2.2120   -1.3290 hn        1 802      0.311950
     25 HH12        6.0570    2.3770   -0.8160 hn        1 802      0.311950
     26 HH21        6.9660    0.5680    0.6560 hn        1 802      0.311950
     27 HH22        5.8450   -0.5750    1.2550 hn        1 802      0.311950
     28 HN3        -0.5850   -2.2970    0.1310 hn        1 802      0.358700
     29 HC2'       -2.2890    2.0720   -0.0880 ha        1 802      0.142000
     30 HC4'       -6.1930    0.2330   -0.0020 ha        1 802      0.126000
     31 HC5'       -5.1350   -2.0410    0.1100 ha        1 802      0.135000
@<TRIPOS>BOND
     1    1    2 ar  
     2    1    6 ar  
     3    1    7 1   
     4    2    3 ar  
     5    2   21 1   
     6    3    4 ar  
     7    3   22 1   
     8    4    5 ar  
     9    4   10 2   
    10    5    6 ar  
    11    5   11 2   
    12    6   23 1   
    13    7    8 2   
    14    7    9 1   
    15    8   24 1   
    16    8   25 1   
    17    9   26 1   
    18    9   27 1   
    19   10   12 1   
    20   10   28 1   
    21   11   12 1   
    22   12   13 2   
    23   13   14 1   
    24   13   19 1   
    25   14   15 2   
    26   14   29 1   
    27   15   16 1   
    28   15   17 1   
    29   17   18 2   
    30   17   30 1   
    31   18   19 1   
    32   18   31 1   
    33   19   20 2   
@<TRIPOS>SUBSTRUCTURE
     1 802         1 TEMP              0 ****  ****    0 ROOT
