@<TRIPOS>MOLECULE
802
   31    23     1     0     0
SMALL
bcc


@<TRIPOS>ATOM
      1 C1          0.0440    0.0330   -2.9740 c1        1 802     -0.215000
      2 C2          1.4290    0.0420   -2.9510 c1        1 802     -0.124500
      3 C3          2.1010    0.0330   -1.7390 c1        1 802     -0.124500
      4 C4          1.3770    0.0130   -0.5320 c1        1 802      0.004500
      5 C5          0.0130    0.0030   -0.5560 c1        1 802      0.004500
      6 C6         -0.6700    0.0130   -1.7870 c1        1 802     -0.093000
      7 C7         -0.7700    0.0890   -4.2470 c2        1 802      0.352000
      8 N1         -1.1540   -1.1120   -4.8970 n3        1 802     -0.350000
      9 N2         -1.1210    1.2450   -4.7480 n2        1 802     -0.344000
     10 N3          1.7730    0.0000    0.7650 n1        1 802     -0.226500
     11 N4         -0.4270   -0.0150    0.7270 n1        1 802     -0.226500
     12 C8          0.6590   -0.0170    1.5440 c2        1 802      0.201000
     13 C1'         0.1930   -0.0400    2.8480 c1        1 802     -0.300000
     14 C2'         0.0430    1.1460    3.5510 c1        1 802     -0.038000
     15 C3'        -0.4590    1.1270    4.8420 c1        1 802     -0.063000
     16 F3'        -0.5930    2.2710    5.5260 f         1 802     -0.133000
     17 C4'        -0.8100   -0.0780    5.4320 c2        1 802     -0.075000
     18 C5'        -0.6600   -1.2630    4.7300 c1        1 802     -0.243000
     19 C6'        -0.1580   -1.2440    3.4380 c1        1 802      0.299000
     20 O6'        -0.0120   -2.4450    2.7230 o         1 802     -0.475000
     21 HC2         1.9310    0.0560   -3.7870 ha        1 802      0.135000
     22 HC3         3.0770    0.0390   -1.7230 ha        1 802      0.135000
     23 HC6        -1.6460    0.0070   -1.8040 ha        1 802      0.140000
     24 HH11       -0.7760   -1.9070   -4.6490 hn        1 802      0.261000
     25 HH12       -1.7680   -1.0890   -5.5740 hn        1 802      0.261000
     26 HH21       -0.8740    2.0210   -4.3290 DU        1 802      0.295000
     27 HH22       -1.6150    1.2790   -5.5190 hn        1 802      0.246000
     28 HN3         2.6350    0.0030    1.0620 DU        1 802      0.295000
     29 HC2'        0.3080    1.9920    3.1430 ha        1 802      0.142000
     30 HC4'       -1.1640   -0.0910    6.3420 ha        1 802      0.126000
     31 HC5'       -0.9070   -2.1110    5.1450 ha        1 802      0.135000
@<TRIPOS>BOND
     1    1    6 1   
     2    1    7 1   
     3    2    3 1   
     4    2   21 1   
     5    3   22 1   
     6    4    5 1   
     7    6   23 1   
     8    7    8 1   
     9    7    9 1   
    10    8   24 1   
    11    8   25 1   
    12    9   27 1   
    13   10   12 1   
    14   11   12 1   
    15   12   13 1   
    16   13   19 1   
    17   14   15 1   
    18   14   29 1   
    19   15   17 1   
    20   17   18 1   
    21   17   30 1   
    22   18   31 1   
    23   19   20 1   
@<TRIPOS>SUBSTRUCTURE
     1 802         1 TEMP              0 ****  ****    0 ROOT
