@<TRIPOS>MOLECULE
803
   65    67     1     0     0
SMALL
bcc


@<TRIPOS>ATOM
      1 C1         52.4830   18.6410   23.1680 c3        1 803      0.146100
      2 C2         52.5530   17.1410   23.4230 c3        1 803     -0.088400
      3 C3         52.5110   16.7520   24.8920 c3        1 803     -0.024500
      4 C21        53.9060   16.7110   25.4930 c3        1 803     -0.088100
      5 C4         51.6360   17.6460   25.6940 c2        1 803     -0.148200
      6 C24        51.0800   18.7850   25.2440 ce        1 803     -0.076200
      7 C5         50.2300   19.5890   26.1100 ce        1 803     -0.128000
      8 C6         49.7350   20.7770   25.7400 c2        1 803     -0.158200
      9 C7         50.0100   21.3960   24.4130 c3        1 803     -0.030500
     10 C20        48.7820   21.2760   23.5290 c3        1 803     -0.089100
     11 C8         51.2800   20.8060   23.7880 c3        1 803     -0.049700
     12 C9         51.2560   19.2740   23.8380 c3        1 803     -0.017500
     13 C10        51.5100   21.3160   22.3730 c3        1 803     -0.084400
     14 C11        51.6710   22.8210   22.3190 c3        1 803     -0.102400
     15 C12        52.0040   23.2850   20.9010 c3        1 803      0.143100
     16 C13        52.8070   24.5740   20.8910 c3        1 803     -0.115400
     17 C14        51.9470   25.7250   21.3930 c3        1 803      0.144100
     18 O3         52.7450   26.8970   21.3270 oh        1 803     -0.590800
     19 C15        50.7090   25.8660   20.5160 c3        1 803     -0.208400
     20 C22        50.0950   24.5600   20.1260 c         1 803      0.720600
     21 O2         48.9510   24.4190   19.6880 o         1 803     -0.581500
     22 O1         50.7940   23.3800   20.1370 os        1 803     -0.412900
     23 O4         53.6670   19.2720   23.6940 os        1 803     -0.430900
     24 C23        54.6630   19.6200   22.8260 c         1 803      0.634100
     25 O5         54.5150   19.4150   21.6200 o         1 803     -0.550000
     26 C16        55.8450   20.2310   23.5400 c3        1 803     -0.108700
     27 C19        56.8960   19.1600   23.7550 c3        1 803     -0.093100
     28 C17        56.4030   21.3930   22.7320 c3        1 803     -0.077400
     29 C18        55.4640   22.5710   22.7080 c3        1 803     -0.102100
     30 H1         52.4250   18.8090   22.0530 h1        1 803      0.079700
     31 H21        51.6790   16.6740   22.8950 hc        1 803      0.053700
     32 H22        53.4910   16.7400   22.9560 hc        1 803      0.053700
     33 H3         52.0790   15.7090   24.9560 hc        1 803      0.051700
     34 H211       53.8530   16.4570   26.5790 hc        1 803      0.038033
     35 H212       54.5250   15.9400   24.9750 hc        1 803      0.038033
     36 H213       54.4040   17.7050   25.3800 hc        1 803      0.038033
     37 H4         51.4690   17.3150   26.7320 ha        1 803      0.123000
     38 H5         50.0100   19.1690   27.1050 ha        1 803      0.125000
     39 H6         49.0810   21.3580   26.4080 ha        1 803      0.124000
     40 H7         50.2060   22.4960   24.5840 hc        1 803      0.047700
     41 H201       48.8900   21.9150   22.6190 hc        1 803      0.040033
     42 H202       48.6250   20.2200   23.2050 hc        1 803      0.040033
     43 H203       47.8760   21.6110   24.0890 hc        1 803      0.040033
     44 H8         52.1510   21.1430   24.4220 hc        1 803      0.060700
     45 H9         50.3640   18.9170   23.2430 hc        1 803      0.067700
     46 H101       52.4520   20.8520   21.9680 hc        1 803      0.056700
     47 H102       50.6660   21.0030   21.7040 hc        1 803      0.056700
     48 H111       50.7250   23.3220   22.6540 hc        1 803      0.051200
     49 H112       52.4930   23.1360   23.0140 hc        1 803      0.051200
     50 H12        52.5780   22.4810   20.3520 h1        1 803      0.092700
     51 H131       53.7150   24.4620   21.5390 hc        1 803      0.075200
     52 H132       53.1570   24.8000   19.8500 hc        1 803      0.075200
     53 H14        51.6410   25.5400   22.4620 h1        1 803      0.043700
     54 HO3        52.2000   27.6250   21.6490 ho        1 803      0.405000
     55 H151       49.9320   26.4860   21.0360 hc        1 803      0.090700
     56 H152       50.9870   26.4000   19.5660 hc        1 803      0.090700
     57 H16        55.4920   20.6080   24.5420 hc        1 803      0.082700
     58 H191       57.7590   19.5870   24.3210 hc        1 803      0.048367
     59 H192       56.4660   18.3120   24.3420 hc        1 803      0.048367
     60 H193       57.2660   18.7710   22.7760 hc        1 803      0.048367
     61 H171       57.3840   21.7010   23.1830 hc        1 803      0.057200
     62 H172       56.6040   21.0470   21.6830 hc        1 803      0.057200
     63 H181       55.9030   23.4020   22.1050 hc        1 803      0.037700
     64 H182       54.4840   22.2800   22.2500 hc        1 803      0.037700
     65 H183       55.2690   22.9480   23.7410 hc        1 803      0.037700
@<TRIPOS>BOND
     1    1    2 1   
     2    1   12 1   
     3    1   23 1   
     4    1   30 1   
     5    2    3 1   
     6    2   31 1   
     7    2   32 1   
     8    3    4 1   
     9    3    5 1   
    10    3   33 1   
    11    4   34 1   
    12    4   35 1   
    13    4   36 1   
    14    5    6 2   
    15    5   37 1   
    16    6    7 1   
    17    6   12 1   
    18    7    8 2   
    19    7   38 1   
    20    8    9 1   
    21    8   39 1   
    22    9   10 1   
    23    9   11 1   
    24    9   40 1   
    25   10   41 1   
    26   10   42 1   
    27   10   43 1   
    28   11   12 1   
    29   11   13 1   
    30   11   44 1   
    31   12   45 1   
    32   13   14 1   
    33   13   46 1   
    34   13   47 1   
    35   14   15 1   
    36   14   48 1   
    37   14   49 1   
    38   15   16 1   
    39   15   22 1   
    40   15   50 1   
    41   16   17 1   
    42   16   51 1   
    43   16   52 1   
    44   17   18 1   
    45   17   19 1   
    46   17   53 1   
    47   18   54 1   
    48   19   20 1   
    49   19   55 1   
    50   19   56 1   
    51   20   21 2   
    52   20   22 1   
    53   23   24 1   
    54   24   25 2   
    55   24   26 1   
    56   26   27 1   
    57   26   28 1   
    58   26   57 1   
    59   27   58 1   
    60   27   59 1   
    61   27   60 1   
    62   28   29 1   
    63   28   61 1   
    64   28   62 1   
    65   29   63 1   
    66   29   64 1   
    67   29   65 1   
@<TRIPOS>SUBSTRUCTURE
     1 803         1 TEMP              0 ****  ****    0 ROOT
