@<TRIPOS>MOLECULE
803
   65    67     1     0     0
SMALL
bcc


@<TRIPOS>ATOM
      1 C1          1.1750   -0.1260    0.0710 c3        1 803      0.146100
      2 C2         -0.3030   -0.4950    0.1030 c3        1 803     -0.088400
      3 C3         -0.6130   -1.7720    0.8670 c3        1 803     -0.024500
      4 C21        -0.5410   -2.9890   -0.0380 c3        1 803     -0.088100
      5 C4          0.2710   -1.9600    2.0470 c2        1 803     -0.148200
      6 C24         1.3490   -1.2090    2.3290 ce        1 803     -0.076200
      7 C5          2.1490   -1.4730    3.5160 ce        1 803     -0.128000
      8 C6          3.2840   -0.8170    3.7860 c2        1 803     -0.158200
      9 C7          3.8460    0.2390    2.8970 c3        1 803     -0.030500
     10 C20         3.6080    1.6050    3.5130 c3        1 803     -0.089100
     11 C8          3.2980    0.1020    1.4720 c3        1 803     -0.049700
     12 C9          1.7720   -0.0460    1.4820 c3        1 803     -0.017500
     13 C10         3.7430    1.2480    0.5760 c3        1 803     -0.084400
     14 C11         5.2490    1.3280    0.4440 c3        1 803     -0.102400
     15 C12         5.6550    2.4210   -0.5450 c3        1 803      0.143100
     16 C13         6.9860    2.1270   -1.2150 c3        1 803     -0.115400
     17 C14         8.1110    2.2090   -0.1920 c3        1 803      0.144100
     18 O3          9.3220    1.9560   -0.8890 oh        1 803     -0.590800
     19 C15         8.1320    3.5940    0.4420 c3        1 803     -0.208400
     20 C22         6.7740    4.1380    0.7470 c         1 803      0.720600
     21 O2          6.5440    5.0760    1.5140 o         1 803     -0.581500
     22 O1          5.6390    3.6920    0.1210 os        1 803     -0.412900
     23 O4          1.9010   -1.1240   -0.6750 os        1 803     -0.430900
     24 C23         2.2590   -0.8450   -1.9640 c         1 803      0.634100
     25 O5          1.9810    0.2560   -2.4450 o         1 803     -0.550000
     26 C16         2.9750   -2.0040   -2.6130 c3        1 803     -0.108700
     27 C19         1.9800   -2.7950   -3.4390 c3        1 803     -0.093100
     28 C17         4.1220   -1.4980   -3.4750 c3        1 803     -0.077400
     29 C18         5.2410   -0.9200   -2.6470 c3        1 803     -0.102100
     30 H1          1.2800    0.8770   -0.4340 h1        1 803      0.079700
     31 H21        -0.6730   -0.5890   -0.9510 hc        1 803      0.053700
     32 H22        -0.8470    0.3610    0.5840 hc        1 803      0.053700
     33 H3         -1.6750   -1.6900    1.2490 hc        1 803      0.051700
     34 H211       -1.3020   -2.9080   -0.8510 hc        1 803      0.038033
     35 H212        0.4720   -3.0650   -0.5040 hc        1 803      0.038033
     36 H213       -0.7400   -3.9200    0.5450 hc        1 803      0.038033
     37 H4         -0.0130   -2.7990    2.7040 ha        1 803      0.123000
     38 H5          1.7710   -2.2540    4.1960 ha        1 803      0.125000
     39 H6          3.8620   -1.0230    4.7000 ha        1 803      0.124000
     40 H7          4.9630    0.0770    2.8390 hc        1 803      0.047700
     41 H201        4.2020    2.3860    2.9790 hc        1 803      0.040033
     42 H202        2.5280    1.8840    3.4620 hc        1 803      0.040033
     43 H203        3.9200    1.5990    4.5860 hc        1 803      0.040033
     44 H8          3.7180   -0.8550    1.0440 hc        1 803      0.060700
     45 H9          1.3320    0.8860    1.9480 hc        1 803      0.067700
     46 H101        3.3130    1.0930   -0.4530 hc        1 803      0.056700
     47 H102        3.3460    2.2220    0.9630 hc        1 803      0.056700
     48 H111        5.7130    1.5480    1.4410 hc        1 803      0.051200
     49 H112        5.6490    0.3410    0.0890 hc        1 803      0.051200
     50 H12         4.8570    2.5480   -1.3350 h1        1 803      0.092700
     51 H131        6.9610    1.1060   -1.6780 hc        1 803      0.075200
     52 H132        7.1760    2.8680   -2.0340 hc        1 803      0.075200
     53 H14         7.9660    1.4240    0.6040 h1        1 803      0.043700
     54 HO3        10.0330    2.0050   -0.2400 ho        1 803      0.405000
     55 H151        8.7340    3.5800    1.3890 hc        1 803      0.090700
     56 H152        8.6300    4.3160   -0.2640 hc        1 803      0.090700
     57 H16         3.3840   -2.6660   -1.7980 hc        1 803      0.082700
     58 H191        1.5600   -2.1630   -4.2600 hc        1 803      0.048367
     59 H192        2.4850   -3.6810   -3.8930 hc        1 803      0.048367
     60 H193        1.1400   -3.1510   -2.7940 hc        1 803      0.048367
     61 H171        4.5090   -2.3530   -4.0890 hc        1 803      0.057200
     62 H172        3.7330   -0.7180   -4.1820 hc        1 803      0.057200
     63 H181        6.0630   -0.5560   -3.3090 hc        1 803      0.037700
     64 H182        5.6610   -1.6870   -1.9520 hc        1 803      0.037700
     65 H183        4.8700   -0.0580   -2.0360 hc        1 803      0.037700
@<TRIPOS>BOND
     1    1    2 1   
     2    1   12 1   
     3    1   23 1   
     4    1   30 1   
     5    2    3 1   
     6    2   31 1   
     7    2   32 1   
     8    3    4 1   
     9    3    5 1   
    10    3   33 1   
    11    4   34 1   
    12    4   35 1   
    13    4   36 1   
    14    5    6 2   
    15    5   37 1   
    16    6    7 1   
    17    6   12 1   
    18    7    8 2   
    19    7   38 1   
    20    8    9 1   
    21    8   39 1   
    22    9   10 1   
    23    9   11 1   
    24    9   40 1   
    25   10   41 1   
    26   10   42 1   
    27   10   43 1   
    28   11   12 1   
    29   11   13 1   
    30   11   44 1   
    31   12   45 1   
    32   13   14 1   
    33   13   46 1   
    34   13   47 1   
    35   14   15 1   
    36   14   48 1   
    37   14   49 1   
    38   15   16 1   
    39   15   22 1   
    40   15   50 1   
    41   16   17 1   
    42   16   51 1   
    43   16   52 1   
    44   17   18 1   
    45   17   19 1   
    46   17   53 1   
    47   18   54 1   
    48   19   20 1   
    49   19   55 1   
    50   19   56 1   
    51   20   21 2   
    52   20   22 1   
    53   23   24 1   
    54   24   25 2   
    55   24   26 1   
    56   26   27 1   
    57   26   28 1   
    58   26   57 1   
    59   27   58 1   
    60   27   59 1   
    61   27   60 1   
    62   28   29 1   
    63   28   61 1   
    64   28   62 1   
    65   29   63 1   
    66   29   64 1   
    67   29   65 1   
@<TRIPOS>SUBSTRUCTURE
     1 803         1 TEMP              0 ****  ****    0 ROOT
