@<TRIPOS>MOLECULE
803
   65    67     1     0     0
SMALL
bcc


@<TRIPOS>ATOM
      1 C1          1.1760   -0.1290    0.0740 c3        1 803      0.146100
      2 C2         -0.3010   -0.5000    0.1100 c3        1 803     -0.088400
      3 C3         -0.6090   -1.7730    0.8810 c3        1 803     -0.024500
      4 C21        -0.5360   -2.9950   -0.0170 c3        1 803     -0.088100
      5 C4          0.2760   -1.9520    2.0620 c2        1 803     -0.148200
      6 C24         1.3530   -1.1980    2.3380 ce        1 803     -0.076200
      7 C5          2.1540   -1.4530    3.5270 ce        1 803     -0.128000
      8 C6          3.2880   -0.7940    3.7920 c2        1 803     -0.158200
      9 C7          3.8480    0.2580    2.8970 c3        1 803     -0.030500
     10 C20         3.6080    1.6270    3.5050 c3        1 803     -0.089100
     11 C8          3.2990    0.1100    1.4720 c3        1 803     -0.049700
     12 C9          1.7730   -0.0390    1.4850 c3        1 803     -0.017500
     13 C10         3.7420    1.2510    0.5690 c3        1 803     -0.084400
     14 C11         5.2490    1.3330    0.4360 c3        1 803     -0.102400
     15 C12         5.6520    2.4210   -0.5590 c3        1 803      0.143100
     16 C13         6.9830    2.1240   -1.2280 c3        1 803     -0.115400
     17 C14         8.1080    2.2140   -0.2070 c3        1 803      0.144100
     18 O3          9.3190    1.9590   -0.9030 oh        1 803     -0.590800
     19 C15         8.1290    3.6030    0.4190 c3        1 803     -0.208400
     20 C22         6.7690    4.1470    0.7220 c         1 803      0.720600
     21 O2          6.5390    5.0890    1.4830 o         1 803     -0.581500
     22 O1          5.6350    3.6950    0.0990 os        1 803     -0.412900
     23 O4          1.9030   -1.1300   -0.6660 os        1 803     -0.430900
     24 C23         2.2600   -0.8580   -1.9570 c         1 803      0.634100
     25 O5          1.9800    0.2390   -2.4450 o         1 803     -0.550000
     26 C16         2.9770   -2.0200   -2.6000 c3        1 803     -0.108700
     27 C19         1.9830   -2.8170   -3.4200 c3        1 803     -0.093100
     28 C17         4.1230   -1.5170   -3.4650 c3        1 803     -0.077400
     29 C18         5.2410   -0.9320   -2.6410 c3        1 803     -0.102100
     30 H1          1.2790    0.8720   -0.4370 h1        1 803      0.079700
     31 H21        -0.8460    0.3580    0.5850 hc        1 803      0.053700
     32 H22        -0.6720   -0.6010   -0.9440 hc        1 803      0.053700
     33 H3         -1.6710   -1.6900    1.2630 hc        1 803      0.051700
     34 H211        0.4770   -3.0720   -0.4820 hc        1 803      0.038033
     35 H212       -1.2970   -2.9200   -0.8300 hc        1 803      0.038033
     36 H213       -0.7320   -3.9220    0.5730 hc        1 803      0.038033
     37 H4         -0.0060   -2.7880    2.7240 ha        1 803      0.123000
     38 H5          1.7770   -2.2310    4.2120 ha        1 803      0.125000
     39 H6          3.8660   -0.9940    4.7070 ha        1 803      0.124000
     40 H7          4.9650    0.0970    2.8390 hc        1 803      0.047700
     41 H201        4.2010    2.4050    2.9650 hc        1 803      0.040033
     42 H202        3.9200    1.6280    4.5770 hc        1 803      0.040033
     43 H203        2.5280    1.9040    3.4520 hc        1 803      0.040033
     44 H8          3.7200   -0.8480    1.0500 hc        1 803      0.060700
     45 H9          1.3330    0.8950    1.9440 hc        1 803      0.067700
     46 H101        3.3120    1.0900   -0.4580 hc        1 803      0.056700
     47 H102        3.3440    2.2280    0.9510 hc        1 803      0.056700
     48 H111        5.7120    1.5590    1.4320 hc        1 803      0.051200
     49 H112        5.6490    0.3450    0.0870 hc        1 803      0.051200
     50 H12         4.8530    2.5420   -1.3500 h1        1 803      0.092700
     51 H131        7.1710    2.8610   -2.0520 hc        1 803      0.075200
     52 H132        6.9600    1.1010   -1.6850 hc        1 803      0.075200
     53 H14         7.9650    1.4340    0.5940 h1        1 803      0.043700
     54 HO3        10.0310    2.0130   -0.2540 ho        1 803      0.405000
     55 H151        8.7300    3.5950    1.3660 hc        1 803      0.090700
     56 H152        8.6250    4.3220   -0.2910 hc        1 803      0.090700
     57 H16         3.3880   -2.6760   -1.7800 hc        1 803      0.082700
     58 H191        1.1440   -3.1710   -2.7720 hc        1 803      0.048367
     59 H192        2.4890   -3.7060   -3.8690 hc        1 803      0.048367
     60 H193        1.5620   -2.1920   -4.2440 hc        1 803      0.048367
     61 H171        3.7320   -0.7420   -4.1770 hc        1 803      0.057200
     62 H172        4.5110   -2.3750   -4.0750 hc        1 803      0.057200
     63 H181        4.8690   -0.0680   -2.0360 hc        1 803      0.037700
     64 H182        5.6630   -1.6940   -1.9420 hc        1 803      0.037700
     65 H183        6.0620   -0.5710   -3.3070 hc        1 803      0.037700
@<TRIPOS>BOND
     1    1    2 1   
     2    1   12 1   
     3    1   23 1   
     4    1   30 1   
     5    2    3 1   
     6    2   31 1   
     7    2   32 1   
     8    3    4 1   
     9    3    5 1   
    10    3   33 1   
    11    4   34 1   
    12    4   35 1   
    13    4   36 1   
    14    5    6 2   
    15    5   37 1   
    16    6    7 1   
    17    6   12 1   
    18    7    8 2   
    19    7   38 1   
    20    8    9 1   
    21    8   39 1   
    22    9   10 1   
    23    9   11 1   
    24    9   40 1   
    25   10   41 1   
    26   10   42 1   
    27   10   43 1   
    28   11   12 1   
    29   11   13 1   
    30   11   44 1   
    31   12   45 1   
    32   13   14 1   
    33   13   46 1   
    34   13   47 1   
    35   14   15 1   
    36   14   48 1   
    37   14   49 1   
    38   15   16 1   
    39   15   22 1   
    40   15   50 1   
    41   16   17 1   
    42   16   51 1   
    43   16   52 1   
    44   17   18 1   
    45   17   19 1   
    46   17   53 1   
    47   18   54 1   
    48   19   20 1   
    49   19   55 1   
    50   19   56 1   
    51   20   21 2   
    52   20   22 1   
    53   23   24 1   
    54   24   25 2   
    55   24   26 1   
    56   26   27 1   
    57   26   28 1   
    58   26   57 1   
    59   27   58 1   
    60   27   59 1   
    61   27   60 1   
    62   28   29 1   
    63   28   61 1   
    64   28   62 1   
    65   29   63 1   
    66   29   64 1   
    67   29   65 1   
@<TRIPOS>SUBSTRUCTURE
     1 803         1 TEMP              0 ****  ****    0 ROOT
