@<TRIPOS>MOLECULE
803
   65    65     1     0     0
SMALL
bcc


@<TRIPOS>ATOM
      1 C1         -1.5440    0.2540   -0.3560 c3        1 803      0.062000
      2 C2         -3.0390    0.0140   -0.3280 c3        1 803     -0.178000
      3 C3         -3.6990    0.8860    0.7360 c3        1 803     -0.073000
      4 C21        -5.2060    0.8390    0.5840 c3        1 803     -0.206000
      5 C4         -3.1920    0.2720    1.9830 c2        1 803     -0.142000
      6 C24        -2.0350   -0.3430    1.9860 c1        1 803     -0.073000
      7 C5         -1.8400   -1.5160    2.8180 c1        1 803     -0.138500
      8 C6         -0.6380   -2.0490    2.9320 c1        1 803     -0.138500
      9 C7          0.5470   -1.3030    2.4570 c2        1 803     -0.075000
     10 C20         1.7840   -2.1800    2.5560 c3        1 803     -0.206000
     11 C8          0.1460   -0.9550    1.0430 c3        1 803     -0.082000
     12 C9         -0.9660    0.0920    1.0650 c3        1 803     -0.081000
     13 C10         1.3470   -0.3970    0.2970 c3        1 803     -0.160000
     14 C11         2.1480    0.5630    1.2330 c3        1 803     -0.185000
     15 C12         3.0470    1.4960    0.3680 c3        1 803      0.038000
     16 C13         4.4130    1.2100    0.6620 c3        1 803     -0.191000
     17 C14         4.8210    1.6580    2.0550 c3        1 803      0.034000
     18 O3          6.2400    1.4440    2.2150 oh        1 803     -0.318000
     19 C15         4.5270    3.0730    2.3060 c3        1 803     -0.236000
     20 C22         3.0170    3.3820    1.9340 c2        1 803      0.308000
     21 O2          2.4480    4.3610    2.4270 o         1 803     -0.306000
     22 O1          2.6510    2.9250    0.6290 os        1 803     -0.256000
     23 O4         -0.9400   -0.6710   -1.2120 os        1 803     -0.289000
     24 C23        -1.8020   -1.1420   -2.2670 c2        1 803      0.304000
     25 O5         -2.8340   -1.7310   -1.9920 o         1 803     -0.336000
     26 C16        -1.3370   -1.0530   -3.7330 c3        1 803     -0.099000
     27 C19        -0.6980   -2.3560   -4.1370 c3        1 803     -0.210000
     28 C17        -2.5180   -0.7790   -4.6180 c3        1 803     -0.155000
     29 C18        -2.0400   -0.2330   -5.9420 c3        1 803     -0.211000
     30 H1         -1.3670    1.1520   -0.6760 h1        1 803      0.108000
     31 H21        -3.2110   -0.9230   -0.1280 hc        1 803      0.100500
     32 H22        -3.4190    0.2340   -1.2070 hc        1 803      0.100500
     33 H3         -3.5270    1.8540    0.7100 hc        1 803      0.093000
     34 H211       -5.6260    1.2630    1.3630 hc        1 803      0.077333
     35 H212       -5.5000   -0.0950    0.5210 hc        1 803      0.077333
     36 H213       -5.4650    1.3170   -0.2260 hc        1 803      0.077333
     37 H4         -3.7460    0.2740    2.7910 ha        1 803      0.133000
     38 H5         -2.6110   -1.9470    3.2480 ha        1 803      0.128500
     39 H6         -0.5210   -2.8880    3.4260 ha        1 803      0.128500
     40 H7          0.8230   -0.5110    2.9630 ha        1 803      0.093000
     41 H201        2.5740   -1.6470    2.3680 hc        1 803      0.074667
     42 H202        1.8500   -2.5590    3.4710 hc        1 803      0.074667
     43 H203        1.7180   -2.9180    1.8960 hc        1 803      0.074667
     44 H8         -0.1750   -1.7630    0.5880 hc        1 803      0.099000
     45 H9         -0.6040    0.9440    1.3660 hc        1 803      0.100000
     46 H101        1.9210   -1.1290    0.0170 hc        1 803      0.089500
     47 H102        1.0380    0.1010   -0.4970 hc        1 803      0.089500
     48 H111        2.7070    0.0390    1.8350 hc        1 803      0.096500
     49 H112        1.5240    1.1040    1.7560 hc        1 803      0.096500
     50 H12         2.8840    1.2950   -0.5820 h1        1 803      0.121000
     51 H131        4.9820    1.6700    0.0030 hc        1 803      0.114000
     52 H132        4.5570    0.2450    0.5850 hc        1 803      0.114000
     53 H14         4.3430    1.1150    2.7140 h1        1 803      0.085000
     54 HO3         6.4350    1.3830    3.0850 ho        1 803      0.205000
     55 H151        4.7810    3.2580    3.2390 hc        1 803      0.130500
     56 H152        5.1170    3.6990    1.8170 hc        1 803      0.130500
     57 H16        -0.6920   -0.3360   -3.8250 hc        1 803      0.118000
     58 H191       -0.1720   -2.2230   -4.9540 hc        1 803      0.086333
     59 H192       -0.1190   -2.6630   -3.4290 hc        1 803      0.086333
     60 H193       -1.3970   -3.0270   -4.3030 hc        1 803      0.086333
     61 H171       -3.0150   -1.6120   -4.7690 hc        1 803      0.093500
     62 H172       -3.1040   -0.1220   -4.1870 hc        1 803      0.093500
     63 H181       -2.7700    0.2220   -6.3870 hc        1 803      0.076000
     64 H182       -1.2990    0.4030   -5.7880 hc        1 803      0.076000
     65 H183       -1.7240   -0.9730   -6.5060 hc        1 803      0.076000
@<TRIPOS>BOND
     1    1    2 1   
     2    1   12 1   
     3    1   23 1   
     4    1   30 1   
     5    2    3 1   
     6    2   31 1   
     7    2   32 1   
     8    3    4 1   
     9    3    5 1   
    10    3   33 1   
    11    4   34 1   
    12    4   35 1   
    13    4   36 1   
    14    5    6 1   
    15    5   37 1   
    16    6   12 1   
    17    7    8 1   
    18    7   38 1   
    19    8   39 1   
    20    9   10 1   
    21    9   11 1   
    22    9   40 1   
    23   10   41 1   
    24   10   42 1   
    25   10   43 1   
    26   11   12 1   
    27   11   13 1   
    28   11   44 1   
    29   12   45 1   
    30   13   14 1   
    31   13   46 1   
    32   13   47 1   
    33   14   15 1   
    34   14   48 1   
    35   14   49 1   
    36   15   16 1   
    37   15   22 1   
    38   15   50 1   
    39   16   17 1   
    40   16   51 1   
    41   16   52 1   
    42   17   18 1   
    43   17   19 1   
    44   17   53 1   
    45   18   54 1   
    46   19   20 1   
    47   19   55 1   
    48   19   56 1   
    49   20   21 1   
    50   20   22 1   
    51   23   24 1   
    52   24   25 1   
    53   24   26 1   
    54   26   27 1   
    55   26   28 1   
    56   26   57 1   
    57   27   58 1   
    58   27   59 1   
    59   27   60 1   
    60   28   29 1   
    61   28   61 1   
    62   28   62 1   
    63   29   63 1   
    64   29   64 1   
    65   29   65 1   
@<TRIPOS>SUBSTRUCTURE
     1 803         1 TEMP              0 ****  ****    0 ROOT
