@<TRIPOS>MOLECULE
804
   60    65     1     0     0
SMALL
bcc


@<TRIPOS>ATOM
      1 CAA         0.1280   -0.3950    0.0670 ca        1 804     -0.103000
      2 CAB         0.2530    1.0830    1.9810 ca        1 804     -0.103000
      3 CAC         1.5080   -0.5770    0.1200 ca        1 804     -0.121500
      4 CAD         1.6330    0.9000    2.0300 ca        1 804     -0.121500
      5 CAE         4.2830   -1.3860    0.9300 ca        1 804     -0.116000
      6 CAF         4.5730    0.9600    1.4270 ca        1 804     -0.116000
      7 CAG         5.6610   -1.5680    0.9840 ca        1 804     -0.118000
      8 CAH         5.9520    0.7810    1.4770 ca        1 804     -0.118000
      9 CAI        12.4450   -1.7390    1.1750 ca        1 804     -0.123000
     10 CAJ        11.2490   -2.1590    0.6140 ca        1 804     -0.091000
     11 CAK        11.3310    0.0170    2.4660 ca        1 804     -0.117000
     12 CAL         8.6820   -1.6690    0.5990 cc        1 804     -0.168200
     13 CAM        -4.6750    1.1130    1.4420 c3        1 804     -0.130400
     14 CAN        16.4310    0.5450    3.1240 c3        1 804     -0.132400
     15 CAO        -4.1830   -0.2400    0.9290 c3        1 804      0.108800
     16 CAP        15.8730   -0.7620    3.6840 c3        1 804      0.107800
     17 CAQ        -3.8210    2.2460    0.8740 c3        1 804      0.184800
     18 CAR        15.3380    1.6130    3.0750 c3        1 804      0.179800
     19 NAS        -2.7570   -0.4230    0.9280 n2        1 804     -0.638900
     20 NAT        14.5800   -1.1510    3.1900 n2        1 804     -0.633900
     21 NAU        -2.4020    1.9780    0.8260 nu        1 804     -0.839200
     22 NAV        14.0490    1.1520    2.6100 nu        1 804     -0.836200
     23 NAW         8.8210    0.0890    2.0660 na        1 804     -0.184400
     24 CAX        -1.9820    0.6290    0.9380 ce        1 804      0.630800
     25 CAY        13.8010   -0.2480    2.6580 ce        1 804      0.627800
     26 CAZ        -0.5020    0.4380    0.9960 ca        1 804     -0.115900
     27 CBA        12.4840   -0.6610    2.0860 ca        1 804     -0.114900
     28 CBB         2.2750    0.0700    1.1000 cp        1 804     -0.031000
     29 CBC         3.7230   -0.1200    1.1530 cp        1 804     -0.034000
     30 CBD         6.5110   -0.4860    1.2580 ca        1 804     -0.034800
     31 CBE         7.9470   -0.7020    1.2960 cd        1 804     -0.005300
     32 CBF        10.0670   -1.5050    0.9650 ca        1 804     -0.085800
     33 CBG        10.1170   -0.4050    1.9030 ca        1 804     -0.049200
     34 HAA        -0.4670   -0.9120   -0.7020 ha        1 804      0.141000
     35 HAB        -0.2350    1.7220    2.7300 ha        1 804      0.141000
     36 HAC         2.0020   -1.2290   -0.6170 ha        1 804      0.137500
     37 HAD         2.2230    1.4030    2.8120 ha        1 804      0.137500
     38 HAE         3.6260   -2.2440    0.7210 ha        1 804      0.139000
     39 HAF         4.1470    1.9620    1.5920 ha        1 804      0.139000
     40 HAG         6.0900   -2.5680    0.8160 ha        1 804      0.137500
     41 HAH         6.5990    1.6500    1.6720 ha        1 804      0.137500
     42 HAI        13.3820   -2.2570    0.9190 ha        1 804      0.145000
     43 HAJ        11.2260   -2.9980   -0.0960 ha        1 804      0.137000
     44 HAK        11.3660    0.8460    3.1870 ha        1 804      0.147000
     45 HAL         8.2890   -2.4020   -0.0980 ha        1 804      0.158000
     46 HAM        -4.6330    1.1300    2.5620 hc        1 804      0.052700
     47 HAMA       -5.7400    1.2710    1.1390 hc        1 804      0.052700
     48 HANA       17.2700    0.9080    3.7690 hc        1 804      0.051700
     49 HAO        -4.6120   -1.0600    1.5720 h1        1 804      0.060700
     50 HAOA       -4.5630   -0.3980   -0.1210 h1        1 804      0.060700
     51 HAP        16.5790   -1.6050    3.4370 h1        1 804      0.060200
     52 HAPA       15.8140   -0.6890    4.8080 h1        1 804      0.060200
     53 HAQ        -4.1480    2.4440   -0.1890 h1        1 804      0.046200
     54 HAQA       -4.0110    3.1840    1.4670 h1        1 804      0.046200
     55 HAR        15.6880    2.4700    2.4350 h1        1 804      0.046700
     56 HARA       15.1810    2.0100    4.1200 h1        1 804      0.046700
     57 HNAU       -1.8310    2.6300    1.3190 hn        1 804      0.405800
     58 HNAV       13.7350    1.5790    1.7650 hn        1 804      0.403800
     59 HNAW        8.5380    0.7340    2.7550 hn        1 804      0.298700
     60 HAN        16.8400    0.3720    2.0960 hc        1 804      0.051700
@<TRIPOS>BOND
     1    1    3 ar  
     2    1   26 ar  
     3    1   34 1   
     4    2    4 ar  
     5    2   26 ar  
     6    2   35 1   
     7    3   28 ar  
     8    3   36 1   
     9    4   28 ar  
    10    4   37 1   
    11    5    7 ar  
    12    5   29 ar  
    13    5   38 1   
    14    6    8 ar  
    15    6   29 ar  
    16    6   39 1   
    17    7   30 ar  
    18    7   40 1   
    19    8   30 ar  
    20    8   41 1   
    21    9   10 ar  
    22    9   27 ar  
    23    9   42 1   
    24   10   32 ar  
    25   10   43 1   
    26   11   27 ar  
    27   11   33 ar  
    28   11   44 1   
    29   12   31 2   
    30   12   32 1   
    31   12   45 1   
    32   13   15 1   
    33   13   17 1   
    34   13   46 1   
    35   13   47 1   
    36   14   16 1   
    37   14   18 1   
    38   14   48 1   
    39   14   60 1   
    40   15   19 1   
    41   15   49 1   
    42   15   50 1   
    43   16   20 1   
    44   16   51 1   
    45   16   52 1   
    46   17   21 1   
    47   17   53 1   
    48   17   54 1   
    49   18   22 1   
    50   18   55 1   
    51   18   56 1   
    52   19   24 2   
    53   20   25 2   
    54   21   24 1   
    55   21   57 1   
    56   22   25 1   
    57   22   58 1   
    58   23   31 1   
    59   23   33 1   
    60   23   59 1   
    61   24   26 1   
    62   25   27 1   
    63   28   29 1   
    64   30   31 1   
    65   32   33 ar  
@<TRIPOS>SUBSTRUCTURE
     1 804         1 TEMP              0 ****  ****    0 ROOT
