@<TRIPOS>MOLECULE
804
   60    65     1     0     0
SMALL
bcc


@<TRIPOS>ATOM
      1 CAA         5.7530   -1.2620   -0.1120 ca        1 804     -0.098000
      2 CAB         5.9840    1.0850    0.4380 ca        1 804     -0.098000
      3 CAC         4.3680   -1.1180   -0.1370 ca        1 804     -0.127500
      4 CAD         4.5990    1.2260    0.4100 ca        1 804     -0.127500
      5 CAE         1.7360    1.4190   -0.4700 ca        1 804     -0.116000
      6 CAF         1.4940   -0.7180    0.6290 ca        1 804     -0.116000
      7 CAG         0.3520    1.5600   -0.5010 ca        1 804     -0.118000
      8 CAH         0.1100   -0.5770    0.6030 ca        1 804     -0.118000
      9 CAI        -6.4250    1.7300   -0.1480 ca        1 804     -0.134000
     10 CAJ        -5.2040    2.3810   -0.0840 ca        1 804     -0.091000
     11 CAK        -5.3580   -0.4720   -0.1590 ca        1 804     -0.104000
     12 CAL        -2.6270    1.9480    0.0040 cc        1 804     -0.169200
     13 CAM        10.7410   -0.8270   -0.3140 c3        1 804     -0.132400
     14 CAN       -10.1290   -1.8790    0.1430 c3        1 804     -0.131400
     15 CAO         9.9950   -1.5150    0.8280 c3        1 804      0.107800
     16 CAP        -9.3050   -1.9740   -1.1390 c3        1 804      0.109800
     17 CAQ        10.2070    0.5900   -0.5210 c3        1 804      0.179800
     18 CAR       -10.0990   -0.4530    0.6930 c3        1 804      0.183800
     19 NAS         8.5700   -1.3270    0.8450 n2        1 804     -0.635900
     20 NAT        -8.0360   -1.2990   -1.1160 n2        1 804     -0.642900
     21 NAU         8.7680    0.7190   -0.4590 nh        1 804     -0.835200
     22 NAV        -8.8120    0.2000    0.6340 nh        1 804     -0.840200
     23 NAW        -2.8230   -0.3370   -0.0270 na        1 804     -0.182400
     24 CAX         8.0500   -0.3180    0.1980 ce        1 804      0.627800
     25 CAY        -7.8400   -0.3400   -0.2480 ce        1 804      0.634800
     26 CAZ         6.5660   -0.1590    0.1710 ca        1 804     -0.128900
     27 CBA        -6.5000    0.3200   -0.1810 ca        1 804     -0.117900
     28 CBB         3.7770    0.1270    0.1210 cp        1 804     -0.029000
     29 CBC         2.3230    0.2770    0.0920 cp        1 804     -0.033000
     30 CBD        -0.4760    0.5630    0.0350 ca        1 804     -0.034800
     31 CBE        -1.9170    0.7410   -0.0000 cd        1 804     -0.004300
     32 CBF        -4.0300    1.6240   -0.0540 ca        1 804     -0.086800
     33 CBG        -4.1170    0.1810   -0.0930 ca        1 804     -0.050200
     34 HAA         6.2050   -2.2470   -0.3060 ha        1 804      0.148500
     35 HAB         6.6160    1.9520    0.6820 ha        1 804      0.148500
     36 HAC         3.7330   -1.9870   -0.3660 ha        1 804      0.137500
     37 HAD         4.1450    2.2040    0.6300 ha        1 804      0.137500
     38 HAE         2.3750    2.2060   -0.8990 ha        1 804      0.139000
     39 HAF         1.9440   -1.6140    1.0860 ha        1 804      0.139000
     40 HAG        -0.0990    2.4570   -0.9530 ha        1 804      0.137500
     41 HAH        -0.5170   -1.3630    1.0500 ha        1 804      0.137500
     42 HAI        -7.3530    2.3200   -0.1880 ha        1 804      0.144000
     43 HAJ        -5.1520    3.4790   -0.0600 ha        1 804      0.137000
     44 HAK        -5.4220   -1.5680   -0.2030 ha        1 804      0.149000
     45 HAL        -2.2040    2.9470    0.0550 ha        1 804      0.158000
     46 HAM        11.8340   -0.7760   -0.0790 hc        1 804      0.052200
     47 HAMA       10.6220   -1.4210   -1.2560 hc        1 804      0.052200
     48 HANA       -9.7220   -2.5900    0.9080 hc        1 804      0.051200
     49 HAO        10.1720   -2.6270    0.7730 h1        1 804      0.061700
     50 HAOA       10.4100   -1.1540    1.8130 h1        1 804      0.061700
     51 HAP        -9.0890   -3.0570   -1.3650 h1        1 804      0.059200
     52 HAPA       -9.9090   -1.5630   -1.9990 h1        1 804      0.059200
     53 HAQ        10.6260    1.2520    0.2910 h1        1 804      0.048200
     54 HAQA       10.5790    0.9850   -1.5080 h1        1 804      0.048200
     55 HAR       -10.8110    0.1790    0.0850 h1        1 804      0.046200
     56 HARA      -10.4730   -0.4590    1.7550 h1        1 804      0.046200
     57 HNAU        8.3400    1.0200   -1.3080 hn        1 804      0.403800
     58 HNAV       -8.4420    0.4830    1.5150 hn        1 804      0.406800
     59 HNAW       -2.5750   -1.2770   -0.1860 hn        1 804      0.299700
     60 HAN       -11.1890   -2.1700   -0.0620 hc        1 804      0.051200
@<TRIPOS>BOND
     1    1    3 ar  
     2    1   26 ar  
     3    1   34 1   
     4    2    4 ar  
     5    2   26 ar  
     6    2   35 1   
     7    3   28 ar  
     8    3   36 1   
     9    4   28 ar  
    10    4   37 1   
    11    5    7 ar  
    12    5   29 ar  
    13    5   38 1   
    14    6    8 ar  
    15    6   29 ar  
    16    6   39 1   
    17    7   30 ar  
    18    7   40 1   
    19    8   30 ar  
    20    8   41 1   
    21    9   10 ar  
    22    9   27 ar  
    23    9   42 1   
    24   10   32 ar  
    25   10   43 1   
    26   11   27 ar  
    27   11   33 ar  
    28   11   44 1   
    29   12   31 2   
    30   12   32 1   
    31   12   45 1   
    32   13   15 1   
    33   13   17 1   
    34   13   46 1   
    35   13   47 1   
    36   14   16 1   
    37   14   18 1   
    38   14   48 1   
    39   14   60 1   
    40   15   19 1   
    41   15   49 1   
    42   15   50 1   
    43   16   20 1   
    44   16   51 1   
    45   16   52 1   
    46   17   21 1   
    47   17   53 1   
    48   17   54 1   
    49   18   22 1   
    50   18   55 1   
    51   18   56 1   
    52   19   24 2   
    53   20   25 2   
    54   21   24 1   
    55   21   57 1   
    56   22   25 1   
    57   22   58 1   
    58   23   31 1   
    59   23   33 1   
    60   23   59 1   
    61   24   26 1   
    62   25   27 1   
    63   28   29 1   
    64   30   31 1   
    65   32   33 ar  
@<TRIPOS>SUBSTRUCTURE
     1 804         1 TEMP              0 ****  ****    0 ROOT
