@<TRIPOS>MOLECULE
804
   60    54     1     0     0
SMALL
bcc


@<TRIPOS>ATOM
      1 CAA        -5.6440    0.2370    0.0700 c1        1 804     -0.053000
      2 CAB        -5.6400   -2.1320   -0.3290 c1        1 804     -0.055000
      3 CAC        -4.2600    0.2440    0.0550 c1        1 804     -0.053000
      4 CAD        -4.2550   -2.1250   -0.3440 c1        1 804     -0.061000
      5 CAE        -1.3860   -1.1360    1.0790 c1        1 804     -0.053000
      6 CAF        -1.3330   -0.7610   -1.2840 c1        1 804     -0.061000
      7 CAG        -0.0030   -1.1590    1.1060 c1        1 804     -0.053000
      8 CAH         0.0490   -0.7840   -1.2580 c1        1 804     -0.067500
      9 CAI         6.8590   -0.9810    0.4920 c1        1 804     -0.053000
     10 CAJ         5.7610   -1.8360    0.4720 c1        1 804     -0.053000
     11 CAK         5.3960    0.8980    0.1040 c1        1 804     -0.055000
     12 CAL         3.2070   -1.9270    0.1990 c1        1 804     -0.117900
     13 CAM       -10.5510   -0.3110    0.0300 c3        1 804     -0.112400
     14 CAN         9.6900    3.3560   -0.0050 c3        1 804     -0.112400
     15 CAO        -9.9020   -0.6540    1.4700 c3        1 804      0.110300
     16 CAP         8.2900    3.9220    0.5700 c3        1 804      0.110300
     17 CAQ       -10.1030   -0.9020   -0.8740 c3        1 804      0.187300
     18 CAR         9.5970    2.5320   -0.8370 c3        1 804      0.187300
     19 NAS        -8.5300   -0.5850    1.4410 n2        1 804     -0.641900
     20 NAT         7.4470    2.8750    0.9450 n2        1 804     -0.641900
     21 NAU        -8.6360   -0.7580   -1.0600 nh        1 804     -0.840200
     22 NAV         8.8140    1.3280   -0.4520 nh        1 804     -0.840200
     23 NAW         2.9220    0.2710   -0.0960 ne        1 804     -0.566000
     24 CAX        -7.8540   -0.9740    0.0230 ce        1 804      0.579100
     25 CAY         7.5980    1.5320    0.0760 ce        1 804      0.579100
     26 CAZ        -6.3350   -0.9540   -0.1230 cg        1 804     -0.065700
     27 CBA         6.6810    0.3810    0.3090 cg        1 804     -0.065700
     28 CBB        -3.5640   -0.9360   -0.1510 cg        1 804     -0.032000
     29 CBC        -2.0510   -0.9370   -0.1160 cg        1 804     -0.032000
     30 CBD         0.7140   -0.9820   -0.0640 cg        1 804     -0.056300
     31 CBE         2.2640   -0.9400   -0.0240 ce        1 804      0.121800
     32 CBF         4.4620   -1.3160    0.2650 c1        1 804     -0.075000
     33 CBG         4.2860    0.0340    0.0830 c1        1 804      0.216400
     34 HAA        -6.1270    1.0550    0.2130 ha        1 804      0.084667
     35 HAB        -6.1140   -2.9480   -0.4610 ha        1 804      0.082500
     36 HAC        -3.7610    1.1030    0.1940 ha        1 804      0.084667
     37 HAD        -3.7640   -2.9570   -0.4900 ha        1 804      0.080500
     38 HAE        -1.8930   -1.2610    1.9060 ha        1 804      0.084667
     39 HAF        -1.8010   -0.6210   -2.1260 ha        1 804      0.080500
     40 HAG         0.4800   -1.3030    1.9730 ha        1 804      0.084667
     41 HAH         0.5500   -0.6610   -2.0740 ha        1 804      0.075500
     42 HAI         7.7800   -1.3510    0.6400 ha        1 804      0.084667
     43 HAJ         5.8860   -2.7860    0.6000 ha        1 804      0.084667
     44 HAK         5.2700    1.8590   -0.0250 ha        1 804      0.082500
     45 HAL         3.0290   -2.8790    0.2930 DU        1 804      0.204000
     46 HAM       -11.5020   -0.4990    0.0740 hc        1 804      0.054200
     47 HAMA      -10.4300    0.6780   -0.1450 hc        1 804      0.054200
     48 HAN        10.2020    2.9790    0.7460 hc        1 804      0.054200
     49 HANA       10.2150    4.1400   -0.3890 hc        1 804      0.054200
     50 HAO       -10.2390   -0.1030    2.2300 h1        1 804      0.057700
     51 HAOA      -10.2090   -1.5320    1.7360 h1        1 804      0.057700
     52 HAP         7.8040    4.6350    0.0630 h1        1 804      0.057700
     53 HAPA        8.5340    4.4170    1.3560 h1        1 804      0.057700
     54 HAQ       -10.5550   -0.5910   -1.7040 h1        1 804      0.034450
     55 HAQA      -10.3070   -1.8600   -0.7480 h1        1 804      0.034450
     56 HAR        10.5050    2.2430   -1.0910 h1        1 804      0.034450
     57 HARA        9.1710    2.9360   -1.6220 h1        1 804      0.034450
     58 HNAU       -8.2820   -0.8070   -1.8880 hn        1 804      0.409800
     59 HNAV        9.0420    0.4930   -0.7940 hn        1 804      0.409800
     60 HNAW        2.5280    1.0970   -0.2390 DU        1 804      0.204000
@<TRIPOS>BOND
     1    1    3 3   
     2    1   34 1   
     3    2   26 3   
     4    2   35 1   
     5    3   36 1   
     6    4   28 3   
     7    4   37 1   
     8    5    7 3   
     9    5   38 1   
    10    6   29 3   
    11    6   39 1   
    12    7   40 1   
    13    8   30 3   
    14    8   41 1   
    15    9   10 3   
    16    9   42 1   
    17   10   43 1   
    18   11   27 3   
    19   11   44 1   
    20   12   31 2   
    21   12   32 2   
    22   13   15 1   
    23   13   17 1   
    24   13   46 1   
    25   13   47 1   
    26   14   16 1   
    27   14   18 1   
    28   14   48 1   
    29   14   49 1   
    30   15   19 1   
    31   15   50 1   
    32   15   51 1   
    33   16   20 1   
    34   16   52 1   
    35   16   53 1   
    36   17   21 1   
    37   17   54 1   
    38   17   55 1   
    39   18   22 1   
    40   18   56 1   
    41   18   57 1   
    42   19   24 2   
    43   20   25 2   
    44   21   24 1   
    45   21   58 1   
    46   22   25 1   
    47   22   59 1   
    48   23   31 1   
    49   23   33 2   
    50   24   26 1   
    51   25   27 1   
    52   28   29 1   
    53   30   31 1   
    54   32   33 2   
@<TRIPOS>SUBSTRUCTURE
     1 804         1 TEMP              0 ****  ****    0 ROOT
