@<TRIPOS>MOLECULE
804
   60    65     1     0     0
SMALL
bcc


@<TRIPOS>ATOM
      1 CAA        -0.0520    0.0170   -0.0210 ca        1 804     -0.103000
      2 CAB         0.0170   -0.0700    2.3980 ca        1 804     -0.103000
      3 CAC         1.3400   -0.0110   -0.0590 ca        1 804     -0.122000
      4 CAD         1.4090   -0.0960    2.3560 ca        1 804     -0.122000
      5 CAE         4.2980    0.6430    2.0130 ca        1 804     -0.116000
      6 CAF         4.2150   -0.8550    0.1200 ca        1 804     -0.116000
      7 CAG         5.6880    0.6200    1.9710 ca        1 804     -0.117500
      8 CAH         5.6060   -0.8830    0.0790 ca        1 804     -0.117500
      9 CAI        12.4110   -0.1070    1.3620 ca        1 804     -0.151000
     10 CAJ        11.2870    0.0250    2.1610 ca        1 804     -0.083000
     11 CAK        11.0610   -0.4360   -0.6520 ca        1 804     -0.097000
     12 CAL         8.6750    0.0170    2.0770 cc        1 804     -0.169200
     13 CAM        -4.9100   -0.2180    1.8720 c3        1 804     -0.130400
     14 CAN        16.1180   -0.3800   -1.8860 c3        1 804     -0.129400
     15 CAO        -4.3140   -0.8680    0.6250 c3        1 804      0.108800
     16 CAP        14.9230    0.1990   -2.6430 c3        1 804      0.110800
     17 CAQ        -4.1980    1.0980    2.1850 c3        1 804      0.184800
     18 CAR        15.7000   -1.6090   -1.0780 c3        1 804      0.186800
     19 NAS        -2.8780   -0.8580    0.5440 n2        1 804     -0.638900
     20 NAT        13.7000    0.2910   -1.8930 n2        1 804     -0.644900
     21 NAU        -2.7630    1.0730    2.0140 nh        1 804     -0.839200
     22 NAV        14.4170   -1.5030   -0.4230 nh        1 804     -0.842200
     23 NAW         8.5630   -0.3790   -0.1790 na        1 804     -0.181400
     24 CAX        -2.2090    0.0180    1.2470 ce        1 804      0.631800
     25 CAY        13.5400   -0.4740   -0.8450 ce        1 804      0.636800
     26 CAZ        -0.7170   -0.0090    1.2090 ca        1 804     -0.115900
     27 CBA        12.2970   -0.3390   -0.0260 ca        1 804     -0.106900
     28 CBB         2.0840   -0.0650    1.1280 cp        1 804     -0.031000
     29 CBC         3.5450   -0.0920    1.0860 cp        1 804     -0.033000
     30 CBD         6.3580   -0.1440    1.0030 ca        1 804     -0.034800
     31 CBE         7.8100   -0.1600    0.9900 cd        1 804     -0.004300
     32 CBF        10.0220   -0.0710    1.5750 ca        1 804     -0.089800
     33 CBG         9.9160   -0.3040    0.1510 ca        1 804     -0.044200
     34 HAA        -0.6300    0.0540   -0.9570 ha        1 804      0.141000
     35 HAB        -0.4960   -0.1150    3.3690 ha        1 804      0.141000
     36 HAC         1.8600    0.0170   -1.0290 ha        1 804      0.138000
     37 HAD         1.9830   -0.1530    3.2940 ha        1 804      0.138000
     38 HAE         3.7840    1.2510    2.7740 ha        1 804      0.139000
     39 HAF         3.6350   -1.4460   -0.6060 ha        1 804      0.139000
     40 HAG         6.2700    1.2070    2.6980 ha        1 804      0.137500
     41 HAH         6.1070   -1.5070   -0.6760 ha        1 804      0.137500
     42 HAI        13.4090   -0.0140    1.8140 ha        1 804      0.127000
     43 HAJ        11.3810    0.2070    3.2410 ha        1 804      0.136000
     44 HAK        10.9840   -0.6030   -1.7360 ha        1 804      0.151000
     45 HAL         8.3870    0.1780    3.1120 ha        1 804      0.158000
     46 HAM        -5.9980   -0.0150    1.7120 hc        1 804      0.052700
     47 HAMA       -4.8170   -0.9170    2.7420 hc        1 804      0.052700
     48 HANA       16.9200   -0.6740   -2.6080 hc        1 804      0.051200
     49 HAO        -4.7250   -0.3560   -0.2930 h1        1 804      0.060200
     50 HAOA       -4.6300   -1.9490    0.5800 h1        1 804      0.060200
     51 HAP        14.7320   -0.4250   -3.5640 h1        1 804      0.058200
     52 HAPA       15.1700    1.2430   -2.9860 h1        1 804      0.058200
     53 HAQ        -4.4500    1.4120    3.2370 h1        1 804      0.046200
     54 HAQA       -4.5930    1.8940    1.4890 h1        1 804      0.046200
     55 HAR        16.4990   -1.8360   -0.3170 h1        1 804      0.044200
     56 HARA       15.6360   -2.4930   -1.7770 h1        1 804      0.044200
     57 HNAU       -2.2360    1.3150    2.8240 hn        1 804      0.406800
     58 HNAV       14.4250   -1.6650    0.5600 hn        1 804      0.409800
     59 HNAW        8.1960   -0.4180   -1.0920 hn        1 804      0.300700
     60 HAN        16.5430    0.3980   -1.2020 hc        1 804      0.051200
@<TRIPOS>BOND
     1    1    3 ar  
     2    1   26 ar  
     3    1   34 1   
     4    2    4 ar  
     5    2   26 ar  
     6    2   35 1   
     7    3   28 ar  
     8    3   36 1   
     9    4   28 ar  
    10    4   37 1   
    11    5    7 ar  
    12    5   29 ar  
    13    5   38 1   
    14    6    8 ar  
    15    6   29 ar  
    16    6   39 1   
    17    7   30 ar  
    18    7   40 1   
    19    8   30 ar  
    20    8   41 1   
    21    9   10 ar  
    22    9   27 ar  
    23    9   42 1   
    24   10   32 ar  
    25   10   43 1   
    26   11   27 ar  
    27   11   33 ar  
    28   11   44 1   
    29   12   31 2   
    30   12   32 1   
    31   12   45 1   
    32   13   15 1   
    33   13   17 1   
    34   13   46 1   
    35   13   47 1   
    36   14   16 1   
    37   14   18 1   
    38   14   48 1   
    39   14   60 1   
    40   15   19 1   
    41   15   49 1   
    42   15   50 1   
    43   16   20 1   
    44   16   51 1   
    45   16   52 1   
    46   17   21 1   
    47   17   53 1   
    48   17   54 1   
    49   18   22 1   
    50   18   55 1   
    51   18   56 1   
    52   19   24 2   
    53   20   25 2   
    54   21   24 1   
    55   21   57 1   
    56   22   25 1   
    57   22   58 1   
    58   23   31 1   
    59   23   33 1   
    60   23   59 1   
    61   24   26 1   
    62   25   27 1   
    63   28   29 1   
    64   30   31 1   
    65   32   33 ar  
@<TRIPOS>SUBSTRUCTURE
     1 804         1 TEMP              0 ****  ****    0 ROOT
