@<TRIPOS>MOLECULE
806
   69    74     1     0     0
SMALL
bcc


@<TRIPOS>ATOM
      1 N1          0.7850    0.6660    1.0140 n2        1 806     -0.674100
      2 C1          0.4640   -0.1480    0.0980 ce        1 806      0.623800
      3 N2         -0.7920   -1.0200    0.0900 n4        1 806     -0.882600
      4 C2          1.2690   -0.4050   -1.1200 ca        1 806     -0.208900
      5 C3          0.7580   -0.1400   -2.3760 ca        1 806     -0.073000
      6 C4          1.5540   -0.3680   -3.5280 ca        1 806     -0.049000
      7 C5          1.0560   -0.1110   -4.8350 ca        1 806     -0.106000
      8 C6          1.8370   -0.3540   -5.9420 ca        1 806     -0.090300
      9 C7          3.1540   -0.8610   -5.7830 ca        1 806     -0.078000
     10 C8          3.6620   -1.1090   -4.5320 ca        1 806     -0.119000
     11 C9          2.8750   -0.8680   -3.3730 ca        1 806     -0.005000
     12 C10         3.3750   -1.1130   -2.0650 ca        1 806     -0.088000
     13 C11         2.5950   -0.8860   -0.9580 ca        1 806     -0.103000
     14 C12         1.3150   -0.0740   -7.3290 c3        1 806      0.080600
     15 N21         1.0010   -1.2240   -8.1260 na        1 806     -0.068300
     16 C21         1.9190   -1.8730   -8.9940 ca        1 806     -0.018200
     17 C22         1.4670   -3.2200   -9.2580 cp        1 806     -0.072000
     18 C23         0.2730   -3.4270   -8.4560 cp        1 806     -0.076000
     19 C24         0.0430   -2.1910   -7.7420 ca        1 806      0.006800
     20 C25        -0.5820   -4.5030   -8.2720 ca        1 806     -0.058000
     21 C26        -1.6250   -4.4000   -7.3510 ca        1 806     -0.162000
     22 C27        -1.8200   -3.2030   -6.6430 ca        1 806      0.115100
     23 C28        -1.0200   -2.0700   -6.8480 ca        1 806     -0.201000
     24 C29         2.1670   -4.0240  -10.1460 ca        1 806     -0.073000
     25 C30         3.3100   -3.5120  -10.7610 ca        1 806     -0.148000
     26 C31         3.7480   -2.2120  -10.4980 ca        1 806     -0.096000
     27 C32         3.0650   -1.3740   -9.6160 ca        1 806     -0.158000
     28 O          -2.8950   -3.1650   -5.7560 os        1 806     -0.322900
     29 C41        -2.5360   -2.7060   -4.4480 c3        1 806      0.146100
     30 C42        -3.8280   -2.3980   -3.7030 c3        1 806     -0.124400
     31 C43        -3.4830   -1.9140   -2.2950 c3        1 806      0.162300
     32 N41        -2.5910   -2.7680   -1.5150 nh        1 806     -0.804600
     33 C44        -1.4520   -3.2530   -2.2840 c3        1 806      0.162300
     34 C45        -1.7460   -3.7680   -3.6890 c3        1 806     -0.124400
     35 C46        -3.2880   -3.7640   -0.7140 c2        1 806      0.556200
     36 N42        -3.2490   -5.0480   -0.8160 n2        1 806     -0.760100
     37 C47        -4.1270   -3.1520    0.3980 c3        1 806     -0.128400
     38 HN1         0.2470    0.8090    1.8400 hn        1 806      0.456400
     39 HN21       -0.5180   -1.9940   -0.0870 hn        1 806      0.461133
     40 HN22       -1.3230   -0.9790    0.9610 hn        1 806      0.461133
     41 H3         -0.2550    0.2690   -2.5120 ha        1 806      0.131000
     42 H5          0.0340    0.2860   -4.9430 ha        1 806      0.139000
     43 H7          3.7590   -1.0560   -6.6860 ha        1 806      0.162000
     44 H8          4.6850   -1.4970   -4.4060 ha        1 806      0.156000
     45 H10         4.4080   -1.4840   -1.9530 ha        1 806      0.162000
     46 H11         2.9920   -1.0560    0.0550 ha        1 806      0.155000
     47 H121        0.3700    0.5410   -7.2470 h1        1 806      0.077200
     48 H122        2.0840    0.5370   -7.8850 h1        1 806      0.077200
     49 H25        -0.4330   -5.4360   -8.8370 ha        1 806      0.150000
     50 H26        -2.3070   -5.2450   -7.1790 ha        1 806      0.155000
     51 H28        -1.2250   -1.1230   -6.3330 ha        1 806      0.135000
     52 H29         1.8220   -5.0460  -10.3630 ha        1 806      0.144000
     53 H30         3.8730   -4.1410  -11.4680 ha        1 806      0.143000
     54 H31         4.6520   -1.8340  -11.0010 ha        1 806      0.141000
     55 H32         3.4190   -0.3500   -9.4340 ha        1 806      0.136000
     56 H41        -1.9190   -1.7660   -4.5260 h1        1 806      0.035700
     57 H421       -4.4740   -3.3120   -3.6670 hc        1 806      0.078700
     58 H422       -4.4010   -1.6000   -4.2400 hc        1 806      0.078700
     59 H431       -2.9620   -0.9160   -2.3830 h1        1 806      0.045700
     60 H432       -4.4400   -1.7540   -1.7230 h1        1 806      0.045700
     61 H441       -0.7500   -2.3710   -2.3890 h1        1 806      0.045700
     62 H442       -0.9080   -4.0480   -1.7020 h1        1 806      0.045700
     63 H451       -2.3300   -4.7230   -3.6600 hc        1 806      0.078700
     64 H452       -0.7810   -3.9780   -4.2190 hc        1 806      0.078700
     65 HN42       -2.7270   -5.4490   -1.5660 hn        1 806      0.405400
     66 H471       -4.1940   -3.8510    1.2680 hc        1 806      0.058700
     67 H472       -5.1620   -2.9680    0.0160 hc        1 806      0.058700
     68 H473       -3.6910   -2.1860    0.7480 hc        1 806      0.058700
     69 H23        -1.4000   -0.7210   -0.6830 hn        1 806      0.461133
@<TRIPOS>BOND
     1    1    2 2   
     2    1   38 1   
     3    2    3 1   
     4    2    4 1   
     5    3   39 1   
     6    3   40 1   
     7    3   69 1   
     8    4    5 ar  
     9    4   13 ar  
    10    5    6 ar  
    11    5   41 1   
    12    6    7 ar  
    13    6   11 ar  
    14    7    8 ar  
    15    7   42 1   
    16    8    9 ar  
    17    8   14 1   
    18    9   10 ar  
    19    9   43 1   
    20   10   11 ar  
    21   10   44 1   
    22   11   12 ar  
    23   12   13 ar  
    24   12   45 1   
    25   13   46 1   
    26   14   15 1   
    27   14   47 1   
    28   14   48 1   
    29   15   16 1   
    30   15   19 1   
    31   16   17 ar  
    32   16   27 ar  
    33   17   18 1   
    34   17   24 ar  
    35   18   19 ar  
    36   18   20 ar  
    37   19   23 ar  
    38   20   21 ar  
    39   20   49 1   
    40   21   22 ar  
    41   21   50 1   
    42   22   23 ar  
    43   22   28 1   
    44   23   51 1   
    45   24   25 ar  
    46   24   52 1   
    47   25   26 ar  
    48   25   53 1   
    49   26   27 ar  
    50   26   54 1   
    51   27   55 1   
    52   28   29 1   
    53   29   30 1   
    54   29   34 1   
    55   29   56 1   
    56   30   31 1   
    57   30   57 1   
    58   30   58 1   
    59   31   32 1   
    60   31   59 1   
    61   31   60 1   
    62   32   33 1   
    63   32   35 1   
    64   33   34 1   
    65   33   61 1   
    66   33   62 1   
    67   34   63 1   
    68   34   64 1   
    69   35   36 2   
    70   35   37 1   
    71   36   65 1   
    72   37   66 1   
    73   37   67 1   
    74   37   68 1   
@<TRIPOS>SUBSTRUCTURE
     1 806         1 TEMP              0 ****  ****    0 ROOT
