@<TRIPOS>MOLECULE
806
   69    74     1     0     0
SMALL
bcc


@<TRIPOS>ATOM
      1 N1          0.7190    0.6400    1.0360 n2        1 806     -0.674100
      2 C1          0.4130   -0.1720    0.1140 ce        1 806      0.623800
      3 N2         -0.8320   -1.0580    0.0920 nz        1 806     -0.882600
      4 C2          1.2280   -0.4100   -1.1020 ca        1 806     -0.208900
      5 C3          0.7220   -0.1440   -2.3580 ca        1 806     -0.073000
      6 C4          1.5260   -0.3550   -3.5070 ca        1 806     -0.049000
      7 C5          1.0330   -0.0950   -4.8160 ca        1 806     -0.106000
      8 C6          1.8230   -0.3220   -5.9200 ca        1 806     -0.090300
      9 C7          3.1460   -0.8150   -5.7570 ca        1 806     -0.078000
     10 C8          3.6490   -1.0640   -4.5040 ca        1 806     -0.119000
     11 C9          2.8520   -0.8400   -3.3480 ca        1 806     -0.005000
     12 C10         3.3480   -1.0870   -2.0390 ca        1 806     -0.088000
     13 C11         2.5580   -0.8770   -0.9350 ca        1 806     -0.103000
     14 C12         1.3050   -0.0400   -7.3080 c3        1 806      0.080600
     15 N21         1.0110   -1.1880   -8.1140 na        1 806     -0.068300
     16 C21         1.9410   -1.8200   -8.9800 ca        1 806     -0.018200
     17 C22         1.5080   -3.1720   -9.2560 cp        1 806     -0.072000
     18 C23         0.3120   -3.3980   -8.4620 cp        1 806     -0.076000
     19 C24         0.0620   -2.1700   -7.7410 ca        1 806      0.006800
     20 C25        -0.5310   -4.4860   -8.2900 ca        1 806     -0.058000
     21 C26        -1.5810   -4.4010   -7.3740 ca        1 806     -0.162000
     22 C27        -1.7940   -3.2120   -6.6600 ca        1 806      0.115100
     23 C28        -1.0070   -2.0680   -6.8530 ca        1 806     -0.201000
     24 C29         2.2220   -3.9620  -10.1450 ca        1 806     -0.073000
     25 C30         3.3630   -3.4320  -10.7500 ca        1 806     -0.148000
     26 C31         3.7830   -2.1270  -10.4760 ca        1 806     -0.096000
     27 C32         3.0850   -1.3040   -9.5930 ca        1 806     -0.158000
     28 O          -2.8750   -3.1930   -5.7790 os        1 806     -0.322900
     29 C41        -2.5290   -2.7370   -4.4660 c3        1 806      0.146100
     30 C42        -3.8290   -2.4520   -3.7260 c3        1 806     -0.124400
     31 C43        -3.4980   -1.9720   -2.3130 c3        1 806      0.162300
     32 N41        -2.5990   -2.8190   -1.5340 nh        1 806     -0.804600
     33 C44        -1.4500   -3.2840   -2.3000 c3        1 806      0.162300
     34 C45        -1.7290   -3.7930   -3.7100 c3        1 806     -0.124400
     35 C46        -3.2880   -3.8300   -0.7430 c2        1 806      0.556200
     36 N42        -3.2310   -5.1120   -0.8530 n2        1 806     -0.760100
     37 C47        -4.1410   -3.2360    0.3670 c3        1 806     -0.128400
     38 HN1         0.1740    0.7720    1.8610 hn        1 806      0.456400
     39 HN21       -1.4390   -0.7630   -0.6830 hn        1 806      0.461133
     40 HN22       -0.5450   -2.0280   -0.0890 hn        1 806      0.461133
     41 H3         -0.2960    0.2540   -2.4980 ha        1 806      0.131000
     42 H5          0.0070    0.2900   -4.9270 ha        1 806      0.139000
     43 H7          3.7570   -0.9970   -6.6570 ha        1 806      0.162000
     44 H8          4.6760   -1.4410   -4.3740 ha        1 806      0.156000
     45 H10         4.3850   -1.4460   -1.9230 ha        1 806      0.162000
     46 H11         2.9520   -1.0490    0.0790 ha        1 806      0.155000
     47 H121        0.3520    0.5630   -7.2270 h1        1 806      0.077200
     48 H122        2.0710    0.5840   -7.8560 h1        1 806      0.077200
     49 H25        -0.3670   -5.4130   -8.8600 ha        1 806      0.150000
     50 H26        -2.2530   -5.2560   -7.2120 ha        1 806      0.155000
     51 H28        -1.2260   -1.1270   -6.3340 ha        1 806      0.135000
     52 H29         1.8920   -4.9860  -10.3700 ha        1 806      0.144000
     53 H30         3.9380   -4.0480  -11.4570 ha        1 806      0.143000
     54 H31         4.6850   -1.7350  -10.9720 ha        1 806      0.141000
     55 H32         3.4250   -0.2770   -9.4030 ha        1 806      0.136000
     56 H41        -1.9240   -1.7890   -4.5350 h1        1 806      0.035700
     57 H421       -4.4630   -3.3740   -3.7000 hc        1 806      0.078700
     58 H422       -4.4100   -1.6580   -4.2610 hc        1 806      0.078700
     59 H431       -2.9900   -0.9670   -2.3920 h1        1 806      0.045700
     60 H432       -4.4600   -1.8290   -1.7460 h1        1 806      0.045700
     61 H441       -0.8980   -4.0760   -1.7200 h1        1 806      0.045700
     62 H442       -0.7590   -2.3920   -2.3940 h1        1 806      0.045700
     63 H451       -2.3010   -4.7560   -3.6900 hc        1 806      0.078700
     64 H452       -0.7590   -3.9870   -4.2350 hc        1 806      0.078700
     65 HN42       -2.6990   -5.5020   -1.6030 hn        1 806      0.405400
     66 H471       -5.1760   -3.0640   -0.0190 hc        1 806      0.058700
     67 H472       -3.7210   -2.2670    0.7260 hc        1 806      0.058700
     68 H473       -4.2040   -3.9420    1.2330 hc        1 806      0.058700
     69 H23        -1.3690   -1.0290    0.9600 hn        1 806      0.461133
@<TRIPOS>BOND
     1    1    2 2   
     2    1   38 1   
     3    2    3 1   
     4    2    4 1   
     5    3   39 1   
     6    3   40 1   
     7    3   69 1   
     8    4    5 ar  
     9    4   13 ar  
    10    5    6 ar  
    11    5   41 1   
    12    6    7 ar  
    13    6   11 ar  
    14    7    8 ar  
    15    7   42 1   
    16    8    9 ar  
    17    8   14 1   
    18    9   10 ar  
    19    9   43 1   
    20   10   11 ar  
    21   10   44 1   
    22   11   12 ar  
    23   12   13 ar  
    24   12   45 1   
    25   13   46 1   
    26   14   15 1   
    27   14   47 1   
    28   14   48 1   
    29   15   16 1   
    30   15   19 1   
    31   16   17 ar  
    32   16   27 ar  
    33   17   18 1   
    34   17   24 ar  
    35   18   19 ar  
    36   18   20 ar  
    37   19   23 ar  
    38   20   21 ar  
    39   20   49 1   
    40   21   22 ar  
    41   21   50 1   
    42   22   23 ar  
    43   22   28 1   
    44   23   51 1   
    45   24   25 ar  
    46   24   52 1   
    47   25   26 ar  
    48   25   53 1   
    49   26   27 ar  
    50   26   54 1   
    51   27   55 1   
    52   28   29 1   
    53   29   30 1   
    54   29   34 1   
    55   29   56 1   
    56   30   31 1   
    57   30   57 1   
    58   30   58 1   
    59   31   32 1   
    60   31   59 1   
    61   31   60 1   
    62   32   33 1   
    63   32   35 1   
    64   33   34 1   
    65   33   61 1   
    66   33   62 1   
    67   34   63 1   
    68   34   64 1   
    69   35   36 2   
    70   35   37 1   
    71   36   65 1   
    72   37   66 1   
    73   37   67 1   
    74   37   68 1   
@<TRIPOS>SUBSTRUCTURE
     1 806         1 TEMP              0 ****  ****    0 ROOT
