@<TRIPOS>MOLECULE
806
   68    60     1     0     0
SMALL
bcc


@<TRIPOS>ATOM
      1 N1          2.8940    8.1610   -3.3000 n1        1 806     -0.294000
      2 C1          1.8770    7.6610   -2.6490 c1        1 806      0.127000
      3 N2          0.9670    8.5210   -1.9870 n2        1 806     -0.397000
      4 C2          1.6720    6.1530   -2.6000 c2        1 806     -0.059000
      5 C3          2.2740    5.3060   -1.6740 c1        1 806     -0.071000
      6 C4          2.1110    3.9050   -1.7850 c1        1 806     -0.048000
      7 C5          2.6550    3.0520   -0.8030 c2        1 806     -0.094000
      8 C6          2.4280    1.6790   -0.8700 c1        1 806     -0.114000
      9 C7          1.6640    1.1500   -1.9070 c1        1 806     -0.122000
     10 C8          1.1280    1.9900   -2.8750 c1        1 806     -0.122000
     11 C9          1.3570    3.3820   -2.8080 c1        1 806     -0.023000
     12 C10         0.7470    4.2420   -3.7470 c2        1 806     -0.124000
     13 C11         0.9080    5.6210   -3.6370 c2        1 806     -0.108000
     14 C12         3.2370    0.8770    0.1610 c3        1 806      0.022000
     15 N21         3.0660   -0.5390   -0.0850 n3        1 806     -0.180000
     16 C21         3.6600   -1.3390   -1.0520 c1        1 806      0.054500
     17 C22         2.9470   -2.5100   -1.1310 c1        1 806     -0.086000
     18 C23         1.8980   -2.4400   -0.2060 c1        1 806     -0.086000
     19 C24         1.9770   -1.2270    0.4330 c1        1 806      0.054500
     20 C25         0.8930   -3.3580    0.1500 c1        1 806     -0.062500
     21 C26        -0.0220   -3.0370    1.1480 c1        1 806     -0.234000
     22 C27         0.0570   -1.8110    1.7940 c1        1 806      0.111000
     23 C28         1.0520   -0.9020    1.4430 c1        1 806     -0.172000
     24 C29         3.3580   -3.5270   -2.0150 c1        1 806     -0.062500
     25 C30         4.4870   -3.3450   -2.8070 c1        1 806     -0.122000
     26 C31         5.2100   -2.1580   -2.7270 c1        1 806     -0.122000
     27 C32         4.8050   -1.1550   -1.8560 c1        1 806     -0.172000
     28 O          -1.0580   -1.0720    2.2530 os        1 806     -0.223000
     29 C41        -2.3120   -2.1130    2.5970 c3        1 806      0.038000
     30 C42        -2.9810   -1.5510    3.7000 c3        1 806     -0.182000
     31 C43        -4.3690   -2.1180    3.8540 c3        1 806     -0.028500
     32 N41        -4.5770   -3.5360    3.0780 n3        1 806     -0.325000
     33 C44        -4.2990   -2.9610    1.5950 c3        1 806     -0.028500
     34 C45        -2.8840   -2.3960    1.4160 c3        1 806     -0.182000
     35 C46        -5.7480   -4.3310    3.3340 c2        1 806      0.109000
     36 N42        -5.6390   -5.6280    3.4890 n1        1 806     -0.304000
     37 C47        -7.1170   -3.6660    3.4260 c3        1 806     -0.182000
     38 HN1         3.0170    9.0660   -3.3290 DU        1 806      0.139000
     39 HN21        1.0190    9.4310   -2.1150 hn        1 806      0.194000
     40 HN22        0.3210    8.1720   -1.4420 hn        1 806      0.194000
     41 H3          2.7810    5.6780   -0.9340 ha        1 806      0.149000
     42 H5          3.1900    3.4230   -0.0760 ha        1 806      0.134000
     43 H7          1.5050    0.1850   -1.9540 ha        1 806      0.136500
     44 H8          0.5920    1.6180   -3.6030 ha        1 806      0.136500
     45 H10         0.2140    3.8710   -4.4700 ha        1 806      0.137000
     46 H11         0.4500    6.2170   -4.2600 ha        1 806      0.145000
     47 H121        4.1860    1.1100    0.0840 h1        1 806      0.106500
     48 H122        2.9210    1.0920    1.0630 h1        1 806      0.106500
     49 H25         0.8370   -4.2180   -0.3030 ha        1 806      0.136500
     50 H26        -0.7150   -3.6700    1.3930 ha        1 806      0.137000
     51 H28         1.1080   -0.0390    1.8970 ha        1 806      0.143500
     52 H29         2.8510   -4.3600   -2.0710 ha        1 806      0.136500
     53 H30         4.7720   -4.0510   -3.4210 ha        1 806      0.136500
     54 H31         6.0000   -2.0300   -3.2820 ha        1 806      0.136500
     55 H32         5.3110   -0.3240   -1.8000 ha        1 806      0.143500
     56 H41        -1.9120   -2.9480    2.9150 h1        1 806      0.099000
     57 H421       -3.0440   -0.5840    3.5760 hc        1 806      0.104000
     58 H422       -2.4680   -1.7360    4.5140 hc        1 806      0.104000
     59 H431       -5.0120   -1.4720    3.5020 h1        1 806      0.079500
     60 H432       -4.5490   -2.2530    4.8060 h1        1 806      0.079500
     61 H441       -4.9450   -2.2510    1.4090 h1        1 806      0.079500
     62 H442       -4.4320   -3.6830    0.9490 h1        1 806      0.079500
     63 H451       -2.3370   -3.0530    0.9470 hc        1 806      0.104000
     64 H452       -2.9310   -1.5780    0.8800 hc        1 806      0.104000
     65 HN42       -4.8210   -6.0260    3.4340 DU        1 806      0.139000
     66 H471       -7.8080   -4.3530    3.5170 hc        1 806      0.097333
     67 H472       -7.1410   -3.0730    4.2080 hc        1 806      0.097333
     68 H473       -7.2810   -3.1440    2.6160 hc        1 806      0.097333
@<TRIPOS>BOND
     1    1    2 1   
     2    2    4 1   
     3    3   39 1   
     4    3   40 1   
     5    4    5 1   
     6    4   13 1   
     7    5   41 1   
     8    6    7 1   
     9    6   11 1   
    10    7    8 1   
    11    7   42 1   
    12    8   14 1   
    13    9   10 1   
    14    9   43 1   
    15   10   44 1   
    16   11   12 1   
    17   12   13 1   
    18   12   45 1   
    19   13   46 1   
    20   14   15 1   
    21   14   47 1   
    22   14   48 1   
    23   15   16 1   
    24   15   19 1   
    25   16   27 1   
    26   17   24 1   
    27   18   20 1   
    28   19   23 1   
    29   20   49 1   
    30   21   22 1   
    31   21   50 1   
    32   22   28 1   
    33   23   51 1   
    34   24   52 1   
    35   25   26 1   
    36   25   53 1   
    37   26   54 1   
    38   27   55 1   
    39   28   29 1   
    40   29   30 1   
    41   29   34 1   
    42   29   56 1   
    43   30   31 1   
    44   30   57 1   
    45   30   58 1   
    46   31   32 1   
    47   31   59 1   
    48   31   60 1   
    49   32   33 1   
    50   32   35 1   
    51   33   34 1   
    52   33   61 1   
    53   33   62 1   
    54   34   63 1   
    55   34   64 1   
    56   35   36 1   
    57   35   37 1   
    58   37   66 1   
    59   37   67 1   
    60   37   68 1   
@<TRIPOS>SUBSTRUCTURE
     1 806         1 TEMP              0 ****  ****    0 ROOT
