@<TRIPOS>MOLECULE
806
   68    73     1     0     0
SMALL
bcc


@<TRIPOS>ATOM
      1 N1         -5.6650   -1.2900    2.7450 n2        1 806     -0.827100
      2 C1         -5.2770   -0.0750    2.5010 ce        1 806      0.650800
      3 N2         -5.4380    1.0580    3.3300 nh        1 806     -0.958800
      4 C2         -4.6460    0.2180    1.1730 ca        1 806     -0.140900
      5 C3         -3.6310   -0.5820    0.6990 ca        1 806     -0.073000
      6 C4         -3.0260   -0.3030   -0.5580 ca        1 806     -0.048000
      7 C5         -1.9700   -1.1070   -1.0650 ca        1 806     -0.098000
      8 C6         -1.3990   -0.8260   -2.2860 ca        1 806     -0.120300
      9 C7         -1.8600    0.2810   -3.0460 ca        1 806     -0.110000
     10 C8         -2.8760    1.0740   -2.5750 ca        1 806     -0.117000
     11 C9         -3.4860    0.8000   -1.3210 ca        1 806     -0.024000
     12 C10        -4.5480    1.5970   -0.8130 ca        1 806     -0.124000
     13 C11        -5.1160    1.3150    0.4050 ca        1 806     -0.108000
     14 C12        -0.3160   -1.7080   -2.8420 c3        1 806      0.088600
     15 N21         0.9460   -1.0810   -3.1140 na        1 806     -0.070300
     16 C21         1.2400   -0.3540   -4.2920 ca        1 806     -0.008200
     17 C22         2.4070    0.4730   -4.0740 cp        1 806     -0.070000
     18 C23         2.7920    0.2900   -2.6870 cp        1 806     -0.092000
     19 C24         1.8430   -0.6400   -2.1150 ca        1 806      0.016800
     20 C25         3.8180    0.8040   -1.9070 ca        1 806     -0.061000
     21 C26         3.9080    0.4340   -0.5680 ca        1 806     -0.172000
     22 C27         2.9750   -0.4640   -0.0180 ca        1 806      0.132100
     23 C28         1.9350   -1.0210   -0.7740 ca        1 806     -0.195000
     24 C29         2.9260    1.2280   -5.1160 ca        1 806     -0.078000
     25 C30         2.3000    1.1800   -6.3610 ca        1 806     -0.159000
     26 C31         1.1690    0.3840   -6.5680 ca        1 806     -0.104000
     27 C32         0.6230   -0.3910   -5.5460 ca        1 806     -0.160000
     28 O           3.2030   -0.8540    1.2940 os        1 806     -0.340900
     29 C41         2.0780   -0.7070    2.1790 c3        1 806      0.149100
     30 C42         2.4290   -1.5230    3.4190 c3        1 806     -0.129400
     31 C43         1.3830   -1.2970    4.5120 c3        1 806      0.177300
     32 N41         1.1250    0.0950    4.8420 nh        1 806     -0.745600
     33 C44         0.8440    0.8870    3.6580 c3        1 806      0.177300
     34 C45         1.8650    0.7620    2.5280 c3        1 806     -0.129400
     35 C46         1.9940    0.6740    5.8380 c2        1 806      0.594200
     36 N42         2.6850    1.7650    5.7610 n2        1 806     -0.818100
     37 C47         2.0090   -0.0870    7.1550 c3        1 806     -0.131400
     38 HN1        -6.0810   -1.4550    3.6380 hn        1 806      0.383400
     39 HN21       -5.5500    0.8890    4.3020 hn        1 806      0.400300
     40 HN22       -4.8570    1.8330    3.1120 hn        1 806      0.400300
     41 H3         -3.2780   -1.4510    1.2760 ha        1 806      0.148000
     42 H5         -1.6240   -1.9610   -0.4620 ha        1 806      0.133000
     43 H7         -1.3810    0.4920   -4.0160 ha        1 806      0.144000
     44 H8         -3.2360    1.9340   -3.1610 ha        1 806      0.138000
     45 H10        -4.9080    2.4430   -1.4180 ha        1 806      0.138000
     46 H11        -5.9490    1.9250    0.7860 ha        1 806      0.146000
     47 H121       -0.6880   -2.1540   -3.8110 h1        1 806      0.068200
     48 H122       -0.1150   -2.5530   -2.1190 h1        1 806      0.068200
     49 H25         4.5500    1.5000   -2.3420 ha        1 806      0.139000
     50 H26         4.7130    0.8250    0.0700 ha        1 806      0.148000
     51 H28         1.2280   -1.7340   -0.3320 ha        1 806      0.142000
     52 H29         3.8170    1.8530   -4.9590 ha        1 806      0.137000
     53 H30         2.7020    1.7760   -7.1940 ha        1 806      0.133000
     54 H31         0.6970    0.3660   -7.5620 ha        1 806      0.132000
     55 H32        -0.2630   -1.0140   -5.7290 ha        1 806      0.136000
     56 H41         1.1520   -1.1210    1.6950 h1        1 806      0.045700
     57 H421        3.4490   -1.2310    3.7790 hc        1 806      0.063950
     58 H422        2.4600   -2.6110    3.1560 hc        1 806      0.063950
     59 H431        1.6990   -1.8560    5.4360 h1        1 806      0.057200
     60 H432        0.4010   -1.7320    4.1670 h1        1 806      0.057200
     61 H441       -0.1560    0.5300    3.2740 h1        1 806      0.057200
     62 H442        0.7220    1.9690    3.9380 h1        1 806      0.057200
     63 H451        2.8450    1.2180    2.8220 hc        1 806      0.063950
     64 H452        1.4900    1.3130    1.6280 hc        1 806      0.063950
     65 HN42        2.6830    2.2510    4.8900 hn        1 806      0.385400
     66 H471        2.2540    0.6020    8.0010 hc        1 806      0.058033
     67 H472        1.0160   -0.5560    7.3570 hc        1 806      0.058033
     68 H473        2.7920   -0.8830    7.1090 hc        1 806      0.058033
@<TRIPOS>BOND
     1    1    2 2   
     2    1   38 1   
     3    2    3 1   
     4    2    4 1   
     5    3   39 1   
     6    3   40 1   
     7    4    5 ar  
     8    4   13 ar  
     9    5    6 ar  
    10    5   41 1   
    11    6    7 ar  
    12    6   11 ar  
    13    7    8 ar  
    14    7   42 1   
    15    8    9 ar  
    16    8   14 1   
    17    9   10 ar  
    18    9   43 1   
    19   10   11 ar  
    20   10   44 1   
    21   11   12 ar  
    22   12   13 ar  
    23   12   45 1   
    24   13   46 1   
    25   14   15 1   
    26   14   47 1   
    27   14   48 1   
    28   15   16 1   
    29   15   19 1   
    30   16   17 ar  
    31   16   27 ar  
    32   17   18 1   
    33   17   24 ar  
    34   18   19 ar  
    35   18   20 ar  
    36   19   23 ar  
    37   20   21 ar  
    38   20   49 1   
    39   21   22 ar  
    40   21   50 1   
    41   22   23 ar  
    42   22   28 1   
    43   23   51 1   
    44   24   25 ar  
    45   24   52 1   
    46   25   26 ar  
    47   25   53 1   
    48   26   27 ar  
    49   26   54 1   
    50   27   55 1   
    51   28   29 1   
    52   29   30 1   
    53   29   34 1   
    54   29   56 1   
    55   30   31 1   
    56   30   57 1   
    57   30   58 1   
    58   31   32 1   
    59   31   59 1   
    60   31   60 1   
    61   32   33 1   
    62   32   35 1   
    63   33   34 1   
    64   33   61 1   
    65   33   62 1   
    66   34   63 1   
    67   34   64 1   
    68   35   36 2   
    69   35   37 1   
    70   36   65 1   
    71   37   66 1   
    72   37   67 1   
    73   37   68 1   
@<TRIPOS>SUBSTRUCTURE
     1 806         1 TEMP              0 ****  ****    0 ROOT
