@<TRIPOS>MOLECULE
806
   69    74     1     0     0
SMALL
bcc


@<TRIPOS>ATOM
      1 N1         -0.4580    1.0500    0.2610 n2        1 806     -0.680100
      2 C1         -0.1420   -0.1190   -0.1190 ce        1 806      0.618800
      3 N2         -0.6700   -1.4150    0.4670 n4        1 806     -0.917600
      4 C2          0.7960   -0.4040   -1.2340 ca        1 806     -0.210900
      5 C3          0.4710   -0.0210   -2.5180 ca        1 806     -0.038000
      6 C4          1.3570   -0.3130   -3.5900 ca        1 806     -0.054000
      7 C5          1.0210    0.0140   -4.9310 ca        1 806     -0.103000
      8 C6          1.8630   -0.3290   -5.9660 ca        1 806     -0.091300
      9 C7          3.0960   -0.9740   -5.6910 ca        1 806     -0.078000
     10 C8          3.4540   -1.2800   -4.3990 ca        1 806     -0.119000
     11 C9          2.5860   -0.9700   -3.3190 ca        1 806     -0.012000
     12 C10         2.9090   -1.3080   -1.9740 ca        1 806     -0.082000
     13 C11         2.0340   -1.0410   -0.9520 ca        1 806     -0.141000
     14 C12         1.4760   -0.0300   -7.3930 c3        1 806      0.080600
     15 N21         1.1040   -1.1660   -8.1870 na        1 806     -0.069300
     16 C21         1.9720   -1.8180   -9.1020 ca        1 806     -0.017200
     17 C22         1.4930   -3.1590   -9.3550 cp        1 806     -0.074000
     18 C23         0.3360   -3.3580   -8.5000 cp        1 806     -0.074000
     19 C24         0.1510   -2.1250   -7.7680 ca        1 806      0.006800
     20 C25        -0.5200   -4.4280   -8.2840 ca        1 806     -0.059000
     21 C26        -1.5190   -4.3220   -7.3160 ca        1 806     -0.162000
     22 C27        -1.6710   -3.1280   -6.5940 ca        1 806      0.111100
     23 C28        -0.8720   -2.0010   -6.8290 ca        1 806     -0.197000
     24 C29         2.1410   -3.9640  -10.2800 ca        1 806     -0.073000
     25 C30         3.2590   -3.4600  -10.9460 ca        1 806     -0.148000
     26 C31         3.7210   -2.1650  -10.6980 ca        1 806     -0.096000
     27 C32         3.0900   -1.3260   -9.7790 ca        1 806     -0.156000
     28 O          -2.7080   -3.0800   -5.6620 os        1 806     -0.324900
     29 C41        -2.2790   -2.6760   -4.3560 c3        1 806      0.145100
     30 C42        -3.5220   -2.2400   -3.5890 c3        1 806     -0.122900
     31 C43        -3.1150   -1.8250   -2.1770 c3        1 806      0.150800
     32 N41        -2.3340   -2.8040   -1.4180 nh        1 806     -0.785600
     33 C44        -1.2510   -3.3890   -2.2080 c3        1 806      0.150800
     34 C45        -1.6030   -3.8300   -3.6240 c3        1 806     -0.122900
     35 C46        -3.1630   -3.7540   -0.6780 c2        1 806      0.545200
     36 N42        -3.2540   -5.0280   -0.8360 n2        1 806     -0.748100
     37 C47        -3.9780   -3.1030    0.4270 c3        1 806     -0.132400
     38 HN1        -1.0970    1.2210    1.0060 hn        1 806      0.447400
     39 HN21       -1.3700   -1.8450   -0.2080 hn        1 806      0.464800
     40 HN22       -1.1180   -1.2850    1.3730 hn        1 806      0.464800
     41 H3         -0.4710    0.5090   -2.7350 ha        1 806      0.150000
     42 H5          0.0720    0.5390   -5.1250 ha        1 806      0.144000
     43 H7          3.7620   -1.2310   -6.5320 ha        1 806      0.161000
     44 H8          4.4140   -1.7750   -4.1840 ha        1 806      0.154000
     45 H10         3.8800   -1.7900   -1.7700 ha        1 806      0.159000
     46 H11         2.3010   -1.2840    0.0870 ha        1 806      0.135000
     47 H121        2.3390    0.4910   -7.9010 h1        1 806      0.076700
     48 H122        0.5930    0.6770   -7.3900 h1        1 806      0.076700
     49 H25        -0.4050   -5.3590   -8.8610 ha        1 806      0.150000
     50 H26        -2.2000   -5.1630   -7.1190 ha        1 806      0.153000
     51 H28        -1.0460   -1.0560   -6.2980 ha        1 806      0.136000
     52 H29         1.7750   -4.9810  -10.4870 ha        1 806      0.143000
     53 H30         3.7800   -4.0890  -11.6830 ha        1 806      0.143000
     54 H31         4.6030   -1.7920  -11.2420 ha        1 806      0.141000
     55 H32         3.4620   -0.3060   -9.6110 ha        1 806      0.137000
     56 H41        -1.5620   -1.8100   -4.4310 h1        1 806      0.043700
     57 H421       -4.0070   -1.3720   -4.1050 hc        1 806      0.078950
     58 H422       -4.2670   -3.0770   -3.5660 hc        1 806      0.078950
     59 H431       -4.0400   -1.5580   -1.5950 h1        1 806      0.055700
     60 H432       -2.4690   -0.9010   -2.2520 h1        1 806      0.055700
     61 H441       -0.7980   -4.2540   -1.6470 h1        1 806      0.055700
     62 H442       -0.4600   -2.5830   -2.2840 h1        1 806      0.055700
     63 H451       -0.6650   -4.1250   -4.1610 hc        1 806      0.078950
     64 H452       -2.2820   -4.7210   -3.6190 hc        1 806      0.078950
     65 HN42       -2.7510   -5.4570   -1.5840 hn        1 806      0.410400
     66 H471       -4.1330   -3.8190    1.2730 hc        1 806      0.060700
     67 H472       -3.4770   -2.1870    0.8220 hc        1 806      0.060700
     68 H473       -4.9820   -2.8210    0.0220 hc        1 806      0.060700
     69 H23         0.1110   -2.0680    0.5700 hn        1 806      0.464800
@<TRIPOS>BOND
     1    1    2 2   
     2    1   38 1   
     3    2    3 1   
     4    2    4 1   
     5    3   39 1   
     6    3   40 1   
     7    3   69 1   
     8    4    5 ar  
     9    4   13 ar  
    10    5    6 ar  
    11    5   41 1   
    12    6    7 ar  
    13    6   11 ar  
    14    7    8 ar  
    15    7   42 1   
    16    8    9 ar  
    17    8   14 1   
    18    9   10 ar  
    19    9   43 1   
    20   10   11 ar  
    21   10   44 1   
    22   11   12 ar  
    23   12   13 ar  
    24   12   45 1   
    25   13   46 1   
    26   14   15 1   
    27   14   47 1   
    28   14   48 1   
    29   15   16 1   
    30   15   19 1   
    31   16   17 ar  
    32   16   27 ar  
    33   17   18 1   
    34   17   24 ar  
    35   18   19 ar  
    36   18   20 ar  
    37   19   23 ar  
    38   20   21 ar  
    39   20   49 1   
    40   21   22 ar  
    41   21   50 1   
    42   22   23 ar  
    43   22   28 1   
    44   23   51 1   
    45   24   25 ar  
    46   24   52 1   
    47   25   26 ar  
    48   25   53 1   
    49   26   27 ar  
    50   26   54 1   
    51   27   55 1   
    52   28   29 1   
    53   29   30 1   
    54   29   34 1   
    55   29   56 1   
    56   30   31 1   
    57   30   57 1   
    58   30   58 1   
    59   31   32 1   
    60   31   59 1   
    61   31   60 1   
    62   32   33 1   
    63   32   35 1   
    64   33   34 1   
    65   33   61 1   
    66   33   62 1   
    67   34   63 1   
    68   34   64 1   
    69   35   36 2   
    70   35   37 1   
    71   36   65 1   
    72   37   66 1   
    73   37   67 1   
    74   37   68 1   
@<TRIPOS>SUBSTRUCTURE
     1 806         1 TEMP              0 ****  ****    0 ROOT
