@<TRIPOS>MOLECULE
808
   47    49     1     0     0
SMALL
bcc


@<TRIPOS>ATOM
      1 C1         -0.5230    1.3140    0.5150 c3        1 808      0.113500
      2 N3         -0.3840    0.8630   -0.9080 n4        1 808     -0.716900
      3 C12         4.8800    2.0510    5.8430 cc        1 808     -0.247300
      4 C18         0.7400    2.0750    1.0100 c3        1 808     -0.044100
      5 C21         1.4320    1.1140    1.9140 ca        1 808     -0.118300
      6 O21         5.1310    2.6320    3.6490 os        1 808     -0.349800
      7 C22         2.6900    1.2270    2.4750 ca        1 808     -0.088000
      8 C24         3.1420    0.2090    3.3360 ca        1 808     -0.060300
      9 C25         4.5080    0.2880    3.9320 c3        1 808     -0.078400
     10 C28         4.8080    1.5970    4.5380 cd        1 808      0.271000
     11 C35         5.3970    3.7510    4.4450 cd        1 808      0.138000
     12 C36         5.7550    5.0030    3.6870 c3        1 808      0.632600
     13 F37         6.9380    4.9270    2.9970 f         1 808     -0.224300
     14 F38         4.8280    5.3570    2.7360 f         1 808     -0.224300
     15 F39         5.8790    6.1110    4.4850 f         1 808     -0.224300
     16 C40         5.2610    3.4440    5.7830 cc        1 808     -0.161300
     17 C42         2.3260   -0.8920    3.6070 ca        1 808     -0.108000
     18 C44         1.0520   -1.0080    3.0330 ca        1 808     -0.092000
     19 C46         0.6120   -0.0040    2.1880 ca        1 808     -0.119300
     20 C47        -0.6980    0.1100    1.4870 c3        1 808     -0.055100
     21 S50        -2.0080    0.3430   -1.6710 s6        1 808      1.356900
     22 O52        -2.1000   -0.9820   -1.2900 o         1 808     -0.553300
     23 O53        -2.8980    1.2970   -1.2150 o         1 808     -0.553300
     24 C54        -1.5890    0.5650   -3.2920 c3        1 808     -0.320900
     25 C55        -0.4350   -0.3010   -3.7530 c3        1 808     -0.100100
     26 C57        -2.8270    0.2490   -4.1250 c3        1 808     -0.100100
     27 H1         -1.4240    1.9930    0.5510 hx        1 808      0.122700
     28 HN3         0.0530    1.6200   -1.4330 hn        1 808      0.455300
     29 H18         1.4030    2.4250    0.1800 hc        1 808      0.085700
     30 H18A        0.4080    2.9820    1.5830 hc        1 808      0.085700
     31 H22         3.3330    2.0990    2.2690 ha        1 808      0.165000
     32 H25         5.2640    0.0760    3.1220 hc        1 808      0.086200
     33 H25A        4.6320   -0.4990    4.7270 hc        1 808      0.086200
     34 H40         5.4090    4.1080    6.6330 ha        1 808      0.186000
     35 H42         2.6810   -1.6860    4.2850 ha        1 808      0.152000
     36 H44         0.4200   -1.8790    3.2600 ha        1 808      0.152000
     37 H47        -0.9870   -0.8430    0.9740 hc        1 808      0.093200
     38 H47A       -1.5120    0.3640    2.2180 hc        1 808      0.093200
     39 H54        -1.3260    1.6400   -3.5290 h1        1 808      0.148700
     40 H55        -0.5690   -1.3570   -3.4070 hc        1 808      0.079533
     41 H55A       -0.3900   -0.3160   -4.8720 hc        1 808      0.079533
     42 H55B        0.5430    0.0950   -3.3870 hc        1 808      0.079533
     43 H57        -3.0930   -0.8340   -4.0420 hc        1 808      0.079533
     44 H57A       -2.6240    0.4700   -5.2030 hc        1 808      0.079533
     45 H57B       -3.6920    0.8820   -3.8030 hc        1 808      0.079533
     46 H32         0.2730    0.0780   -0.9170 hn        1 808      0.455300
     47 H12         4.6920    1.4860    6.7530 ha        1 808      0.178000
@<TRIPOS>BOND
     1    1    2 1   
     2    1    4 1   
     3    1   20 1   
     4    1   27 1   
     5    2   21 1   
     6    2   28 1   
     7    2   46 1   
     8    3   10 2   
     9    3   16 1   
    10    3   47 1   
    11    4    5 1   
    12    4   29 1   
    13    4   30 1   
    14    5    7 ar  
    15    5   19 ar  
    16    6   10 1   
    17    6   11 1   
    18    7    8 ar  
    19    7   31 1   
    20    8    9 1   
    21    8   17 ar  
    22    9   10 1   
    23    9   32 1   
    24    9   33 1   
    25   11   12 1   
    26   11   16 2   
    27   12   13 1   
    28   12   14 1   
    29   12   15 1   
    30   16   34 1   
    31   17   18 ar  
    32   17   35 1   
    33   18   19 ar  
    34   18   36 1   
    35   19   20 1   
    36   20   37 1   
    37   20   38 1   
    38   21   22 2   
    39   21   23 2   
    40   21   24 1   
    41   24   25 1   
    42   24   26 1   
    43   24   39 1   
    44   25   40 1   
    45   25   41 1   
    46   25   42 1   
    47   26   43 1   
    48   26   44 1   
    49   26   45 1   
@<TRIPOS>SUBSTRUCTURE
     1 808         1 TEMP              0 ****  ****    0 ROOT
