@<TRIPOS>MOLECULE
808
   46    48     1     0     0
SMALL
bcc


@<TRIPOS>ATOM
      1 C1         -2.7900   -0.6540    0.6020 c3        1 808      0.236500
      2 N3         -3.9570   -0.3330   -0.1720 n3        1 808     -0.917100
      3 C12         4.5790   -1.4580    0.9300 cc        1 808     -0.266300
      4 C18        -1.4700   -0.0500    0.0260 c3        1 808     -0.055100
      5 C21        -0.5150   -1.1880   -0.0540 ca        1 808     -0.085300
      6 O21         3.8690   -0.1050   -0.7660 os        1 808     -0.336800
      7 C22         0.8060   -1.1640   -0.4650 ca        1 808     -0.104000
      8 C24         1.5410   -2.3620   -0.4640 ca        1 808     -0.088300
      9 C25         2.9570   -2.3610   -0.9350 c3        1 808     -0.074400
     10 C28         3.7970   -1.3890   -0.2110 cd        1 808      0.294000
     11 C35         4.7210    0.6260    0.0670 cd        1 808      0.130000
     12 C36         4.9520    2.0570   -0.3380 c3        1 808      0.632600
     13 F37         5.5460    2.2100   -1.5660 f         1 808     -0.226967
     14 F38         3.8090    2.8140   -0.4140 f         1 808     -0.226967
     15 F39         5.7660    2.7450    0.5290 f         1 808     -0.226967
     16 C40         5.1760   -0.1560    1.1090 cc        1 808     -0.166300
     17 C42         0.9410   -3.5550   -0.0540 ca        1 808     -0.120000
     18 C44        -0.3970   -3.5790    0.3590 ca        1 808     -0.114000
     19 C46        -1.1210   -2.3970    0.3580 ca        1 808     -0.083300
     20 C47        -2.5400   -2.1870    0.7500 c3        1 808     -0.049100
     21 S50        -5.1940    0.5640    0.3450 s6        1 808      1.441900
     22 O52        -6.3630    0.1750   -0.3420 o         1 808     -0.648300
     23 O53        -5.2450    0.5710    1.7560 o         1 808     -0.648300
     24 C54        -4.7620    2.1720   -0.1670 c3        1 808     -0.273900
     25 C55        -4.5880    2.2850   -1.6620 c3        1 808     -0.076600
     26 C57        -5.8310    3.1310    0.3090 c3        1 808     -0.076600
     27 H1         -2.9460   -0.2290    1.6400 h1        1 808      0.079700
     28 HN3        -3.9540   -0.7370   -1.0790 hn        1 808      0.450800
     29 H18        -1.6210    0.4100   -0.9840 hc        1 808      0.063200
     30 H18A       -1.0880    0.7480    0.7120 hc        1 808      0.063200
     31 H22         1.2890   -0.2270   -0.7830 ha        1 808      0.148000
     32 H25         3.4140   -3.3800   -0.8050 hc        1 808      0.077200
     33 H25A        2.9720   -2.1150   -2.0350 hc        1 808      0.077200
     34 H40         5.8480    0.1400    1.9120 ha        1 808      0.177000
     35 H42         1.5200   -4.4900   -0.0540 ha        1 808      0.132000
     36 H44        -0.8600   -4.5230    0.6790 ha        1 808      0.138000
     37 H47        -2.7170   -2.4960    1.8120 hc        1 808      0.068200
     38 H47A       -3.2220   -2.7930    0.1020 hc        1 808      0.068200
     39 H54        -3.7940    2.4820    0.3180 h1        1 808      0.104700
     40 H55        -5.4790    1.8600   -2.1900 hc        1 808      0.051367
     41 H55A       -4.4850    3.3560   -1.9630 hc        1 808      0.051367
     42 H55B       -3.6700    1.7440   -2.0000 hc        1 808      0.051367
     43 H57        -5.9510    3.0580    1.4190 hc        1 808      0.051367
     44 H57A       -5.5540    4.1820    0.0530 hc        1 808      0.051367
     45 H57B       -6.8090    2.8980   -0.1810 hc        1 808      0.051367
     46 H12         4.7250   -2.3170    1.5790 ha        1 808      0.173000
@<TRIPOS>BOND
     1    1    2 1   
     2    1    4 1   
     3    1   20 1   
     4    1   27 1   
     5    2   21 1   
     6    2   28 1   
     7    3   10 2   
     8    3   16 1   
     9    3   46 1   
    10    4    5 1   
    11    4   29 1   
    12    4   30 1   
    13    5    7 ar  
    14    5   19 ar  
    15    6   10 1   
    16    6   11 1   
    17    7    8 ar  
    18    7   31 1   
    19    8    9 1   
    20    8   17 ar  
    21    9   10 1   
    22    9   32 1   
    23    9   33 1   
    24   11   12 1   
    25   11   16 2   
    26   12   13 1   
    27   12   14 1   
    28   12   15 1   
    29   16   34 1   
    30   17   18 ar  
    31   17   35 1   
    32   18   19 ar  
    33   18   36 1   
    34   19   20 1   
    35   20   37 1   
    36   20   38 1   
    37   21   22 2   
    38   21   23 2   
    39   21   24 1   
    40   24   25 1   
    41   24   26 1   
    42   24   39 1   
    43   25   40 1   
    44   25   41 1   
    45   25   42 1   
    46   26   43 1   
    47   26   44 1   
    48   26   45 1   
@<TRIPOS>SUBSTRUCTURE
     1 808         1 TEMP              0 ****  ****    0 ROOT
