@<TRIPOS>MOLECULE
808
   46    42     1     0     0
SMALL
bcc


@<TRIPOS>ATOM
      1 C1         -1.9760   -0.0200   -1.0680 c3        1 808      0.041000
      2 N3         -2.4330   -1.2370   -1.7520 n3        1 808     -0.890000
      3 C12         3.4050    1.6500    4.6640 c1        1 808     -0.201000
      4 C18        -0.5010    0.0320   -1.0850 c3        1 808     -0.138500
      5 C21        -0.0180    0.0460    0.3840 c2        1 808     -0.077000
      6 O21         3.8410    2.1390    2.5370 os        1 808     -0.078000
      7 C22         1.2510    0.0310    0.9460 c1        1 808     -0.109500
      8 C24         1.3990   -0.0200    2.3380 c1        1 808     -0.081000
      9 C25         2.7800   -0.1680    2.9440 c3        1 808     -0.066000
     10 C28         3.2950    1.1930    3.3660 c2        1 808      0.005000
     11 C35         4.2880    3.1770    3.3120 c1        1 808     -0.159000
     12 C36         5.0290    4.4000    2.8180 c2        1 808      0.513000
     13 F37         6.2330    4.4570    3.4000 f         1 808     -0.155667
     14 F38         5.1780    4.3240    1.4890 f         1 808     -0.155667
     15 F39         4.3300    5.5000    3.1270 f         1 808     -0.155667
     16 C40         4.0170    2.8710    4.6310 c1        1 808     -0.101000
     17 C42         0.2580   -0.0560    3.1690 c1        1 808     -0.120000
     18 C44        -1.0230   -0.0410    2.6040 c1        1 808     -0.109500
     19 C46        -1.1720    0.0100    1.2260 c2        1 808     -0.077000
     20 C47        -2.4280   -0.0390    0.3120 c3        1 808     -0.138500
     21 S50        -3.1140   -1.1350   -3.2450 s4        1 808      2.012800
     22 O52        -2.5650   -0.0400   -3.9950 o         1 808     -0.536400
     23 O53        -4.4960   -0.7520   -3.1620 o         1 808     -0.536400
     24 C54        -2.9230   -2.6690   -4.1130 c2        1 808     -0.772000
     25 C55        -4.0950   -2.8680   -5.0500 c3        1 808     -0.195500
     26 C57        -1.6370   -2.6400   -4.9130 c3        1 808     -0.195500
     27 H1         -2.3370    0.7650   -1.5210 h1        1 808      0.117000
     28 HN3        -2.3180   -2.0520   -1.3580 hn        1 808      0.246000
     29 H12         3.1000    1.1820    5.4650 DU        1 808      0.175000
     30 H18        -0.1550   -0.7670   -1.5300 hc        1 808      0.105250
     31 H18A       -0.2130    0.8560   -1.5260 hc        1 808      0.105250
     32 H22         2.0400    0.0700    0.3720 ha        1 808      0.143500
     33 H25         2.7320   -0.7550    3.7250 hc        1 808      0.116500
     34 H25A        3.3870   -0.5550    2.2820 hc        1 808      0.116500
     35 H40         4.2250    3.4300    5.4040 DU        1 808      0.175000
     36 H42         0.3620   -0.0920    4.1390 ha        1 808      0.132000
     37 H44        -1.8110   -0.0660    3.1790 ha        1 808      0.143500
     38 H47        -2.9310   -0.8600    0.4840 hc        1 808      0.105250
     39 H47A       -2.9950    0.7390    0.4860 hc        1 808      0.105250
     40 H54        -2.8900   -3.4040   -3.4720 ha        1 808      0.143000
     41 H55        -4.2370   -2.0520   -5.5740 hc        1 808      0.091333
     42 H55A       -4.9010   -3.0650   -4.5270 hc        1 808      0.091333
     43 H55B       -3.9070   -3.6160   -5.6540 hc        1 808      0.091333
     44 H57        -1.6870   -1.9300   -5.5870 hc        1 808      0.091333
     45 H57A       -1.5090   -3.5040   -5.3580 hc        1 808      0.091333
     46 H57B       -0.8820   -2.4670   -4.3120 hc        1 808      0.091333
@<TRIPOS>BOND
     1    1    2 1   
     2    1    4 1   
     3    1   20 1   
     4    1   27 1   
     5    2   21 1   
     6    2   28 1   
     7    3   10 1   
     8    3   16 1   
     9    4    5 1   
    10    4   30 1   
    11    4   31 1   
    12    5    7 1   
    13    5   19 1   
    14    6   10 1   
    15    6   11 1   
    16    7   32 1   
    17    8    9 1   
    18    8   17 1   
    19    9   10 1   
    20    9   33 1   
    21    9   34 1   
    22   11   16 1   
    23   12   13 1   
    24   12   14 1   
    25   12   15 1   
    26   17   36 1   
    27   18   19 1   
    28   18   37 1   
    29   19   20 1   
    30   20   38 1   
    31   20   39 1   
    32   21   22 1   
    33   21   23 1   
    34   24   25 1   
    35   24   26 1   
    36   24   40 1   
    37   25   41 1   
    38   25   42 1   
    39   25   43 1   
    40   26   44 1   
    41   26   45 1   
    42   26   46 1   
@<TRIPOS>SUBSTRUCTURE
     1 808         1 TEMP              0 ****  ****    0 ROOT
