@<TRIPOS>MOLECULE
808
   47    49     1     0     0
SMALL
bcc


@<TRIPOS>ATOM
      1 C1         -0.5220    1.3040    0.5060 c3        1 808      0.113500
      2 N3         -0.3720    0.8560   -0.9170 ny        1 808     -0.716900
      3 C12         4.8480    2.0650    5.8630 cc        1 808     -0.247300
      4 C18         0.7340    2.0710    1.0100 c3        1 808     -0.044100
      5 C21         1.4260    1.1130    1.9160 ca        1 808     -0.118300
      6 O21         5.1110    2.6460    3.6700 os        1 808     -0.349800
      7 C22         2.6810    1.2320    2.4850 ca        1 808     -0.088000
      8 C24         3.1330    0.2140    3.3460 ca        1 808     -0.060300
      9 C25         4.4950    0.2990    3.9500 c3        1 808     -0.078400
     10 C28         4.7870    1.6100    4.5570 cd        1 808      0.271000
     11 C35         5.3680    3.7670    4.4660 cd        1 808      0.138000
     12 C36         5.7260    5.0190    3.7100 c3        1 808      0.632600
     13 F37         6.9130    4.9470    3.0270 f         1 808     -0.224300
     14 F38         4.8030    5.3700    2.7530 f         1 808     -0.224300
     15 F39         5.8410    6.1280    4.5080 f         1 808     -0.224300
     16 C40         5.2250    3.4600    5.8040 cc        1 808     -0.161300
     17 C42         2.3210   -0.8920    3.6110 ca        1 808     -0.108000
     18 C44         1.0520   -1.0130    3.0290 ca        1 808     -0.092000
     19 C46         0.6100   -0.0100    2.1840 ca        1 808     -0.119300
     20 C47        -0.6960    0.0980    1.4760 c3        1 808     -0.055100
     21 S50        -1.9880    0.3300   -1.6900 s6        1 808      1.356900
     22 O52        -2.0750   -0.9970   -1.3120 o         1 808     -0.553300
     23 O53        -2.8870    1.2770   -1.2380 o         1 808     -0.553300
     24 C54        -1.5610    0.5570   -3.3090 c3        1 808     -0.320900
     25 C55        -0.4000   -0.3010   -3.7640 c3        1 808     -0.100100
     26 C57        -2.7930    0.2360   -4.1490 c3        1 808     -0.100100
     27 H1         -1.4270    1.9790    0.5380 hx        1 808      0.122700
     28 HN3         0.0640    1.6170   -1.4370 hn        1 808      0.455300
     29 H18         1.3990    2.4270    0.1840 hc        1 808      0.085700
     30 H18A        0.3930    2.9750    1.5830 hc        1 808      0.085700
     31 H22         3.3200    2.1070    2.2840 ha        1 808      0.165000
     32 H25         5.2570    0.0900    3.1450 hc        1 808      0.086200
     33 H25A        4.6170   -0.4860    4.7470 hc        1 808      0.086200
     34 H40         5.3650    4.1250    6.6540 ha        1 808      0.186000
     35 H42         2.6770   -1.6850    4.2890 ha        1 808      0.152000
     36 H44         0.4230   -1.8890    3.2510 ha        1 808      0.152000
     37 H47        -0.9770   -0.8550    0.9590 hc        1 808      0.093200
     38 H47A       -1.5150    0.3460    2.2020 hc        1 808      0.093200
     39 H54        -1.3030    1.6340   -3.5410 h1        1 808      0.148700
     40 H55        -0.3480   -0.3130   -4.8830 hc        1 808      0.079533
     41 H55A       -0.5290   -1.3590   -3.4220 hc        1 808      0.079533
     42 H55B        0.5740    0.1000   -3.3920 hc        1 808      0.079533
     43 H57        -2.5850    0.4600   -5.2250 hc        1 808      0.079533
     44 H57A       -3.0530   -0.8490   -4.0700 hc        1 808      0.079533
     45 H57B       -3.6630    0.8630   -3.8300 hc        1 808      0.079533
     46 H32         0.2890    0.0750   -0.9230 hn        1 808      0.455300
     47 H12         4.6570    1.5000    6.7720 ha        1 808      0.178000
@<TRIPOS>BOND
     1    1    2 1   
     2    1    4 1   
     3    1   20 1   
     4    1   27 1   
     5    2   21 1   
     6    2   28 1   
     7    2   46 1   
     8    3   10 2   
     9    3   16 1   
    10    3   47 1   
    11    4    5 1   
    12    4   29 1   
    13    4   30 1   
    14    5    7 ar  
    15    5   19 ar  
    16    6   10 1   
    17    6   11 1   
    18    7    8 ar  
    19    7   31 1   
    20    8    9 1   
    21    8   17 ar  
    22    9   10 1   
    23    9   32 1   
    24    9   33 1   
    25   11   12 1   
    26   11   16 2   
    27   12   13 1   
    28   12   14 1   
    29   12   15 1   
    30   16   34 1   
    31   17   18 ar  
    32   17   35 1   
    33   18   19 ar  
    34   18   36 1   
    35   19   20 1   
    36   20   37 1   
    37   20   38 1   
    38   21   22 2   
    39   21   23 2   
    40   21   24 1   
    41   24   25 1   
    42   24   26 1   
    43   24   39 1   
    44   25   40 1   
    45   25   41 1   
    46   25   42 1   
    47   26   43 1   
    48   26   44 1   
    49   26   45 1   
@<TRIPOS>SUBSTRUCTURE
     1 808         1 TEMP              0 ****  ****    0 ROOT
