@<TRIPOS>MOLECULE
809
   40    33     1     0     0
SMALL
bcc


@<TRIPOS>ATOM
      1 O1         -2.9800    0.0630    2.2420 o         1 809     -0.326000
      2 C5         -1.7890   -0.1020    2.2550 c1        1 809      0.371000
      3 N1         -0.9640   -0.1550    3.4230 n2        1 809     -0.405000
      4 C6          0.4030   -0.1930    2.9960 c2        1 809      0.362000
      5 O2          1.3710   -0.2340    3.7190 o         1 809     -0.288000
      6 C3          0.4240   -0.1590    1.4700 c2        1 809     -0.122000
      7 C4         -0.8710   -0.1100    1.0290 c2        1 809     -0.076000
      8 C13        -1.1470   -0.0940   -0.3700 c1        1 809     -0.011000
      9 C15        -2.3410   -0.0640   -1.0880 c1        1 809     -0.132000
     10 C17        -3.8570   -0.2630   -0.8620 c2        1 809     -0.138000
     11 C19        -4.5820    1.1030   -0.9840 c3        1 809     -0.006000
     12 O3         -6.0000    0.9050   -0.8680 oh        1 809     -0.335000
     13 C16        -2.0310   -0.0800   -2.4270 c1        1 809     -0.052000
     14 N2         -0.6680   -0.1180   -2.5460 n2        1 809     -0.175000
     15 C18        -0.2010   -0.1180   -3.8970 c2        1 809     -0.070000
     16 C14        -0.1210   -0.1270   -1.2660 c1        1 809      0.020000
     17 C1          1.2150   -0.1770   -0.8080 c1        1 809     -0.120000
     18 C2          1.4810   -0.1930    0.5450 c1        1 809      0.038000
     19 C7          2.8820   -0.1770    0.9120 c1        1 809     -0.044000
     20 C12         3.5540    1.0270    1.0230 c1        1 809     -0.111000
     21 C8          3.5360   -1.3640    1.2010 c1        1 809     -0.039000
     22 CL1         2.7020   -2.8860    1.0170 cl        1 809     -0.010000
     23 C9          4.8680   -1.3440    1.6040 c2        1 809     -0.126000
     24 C10         5.5390   -0.1350    1.7150 c1        1 809     -0.111000
     25 C11         4.8860    1.0470    1.4260 c1        1 809     -0.111000
     26 HN1        -1.2580   -0.2270    4.2850 hn        1 809      0.261000
     27 H17        -4.0090   -0.6360    0.0440 ha        1 809      0.103000
     28 H17A       -4.2130   -0.8860   -1.5410 ha        1 809      0.103000
     29 H19        -4.3800    1.5050   -1.8510 h1        1 809      0.081000
     30 H19A       -4.2710    1.7050   -0.2610 h1        1 809      0.081000
     31 HO3        -6.4260    1.6860   -1.0260 ho        1 809      0.216000
     32 H16        -2.6850   -0.1350   -3.1780 DU        1 809      0.175000
     33 H18         0.7820   -0.2120   -3.9050 ha        1 809      0.093667
     34 H18A       -0.6070   -0.8670   -4.3850 ha        1 809      0.093667
     35 H18B       -0.4540    0.7370   -4.3320 ha        1 809      0.093667
     36 H1          1.9430   -0.2120   -1.4440 ha        1 809      0.150000
     37 H12         3.0820    1.8830    0.8150 ha        1 809      0.140500
     38 H9          5.3300   -2.1810    1.8080 ha        1 809      0.149000
     39 H10         6.4940   -0.1190    2.0030 ha        1 809      0.139000
     40 H11         5.3650    1.9080    1.5050 ha        1 809      0.140500
@<TRIPOS>BOND
     1    1    2 1   
     2    2    7 1   
     3    3    4 1   
     4    3   26 1   
     5    4    5 1   
     6    4    6 1   
     7    6    7 1   
     8    6   18 1   
     9    7    8 1   
    10    8   16 1   
    11    9   13 1   
    12   10   11 1   
    13   10   27 1   
    14   10   28 1   
    15   11   12 1   
    16   11   29 1   
    17   11   30 1   
    18   12   31 1   
    19   13   14 1   
    20   14   16 1   
    21   15   33 1   
    22   15   34 1   
    23   15   35 1   
    24   17   18 1   
    25   17   36 1   
    26   19   21 1   
    27   20   25 1   
    28   20   37 1   
    29   21   23 1   
    30   23   24 1   
    31   23   38 1   
    32   24   39 1   
    33   25   40 1   
@<TRIPOS>SUBSTRUCTURE
     1 809         1 TEMP              0 ****  ****    0 ROOT
