@<TRIPOS>MOLECULE
809
   40    43     1     0     0
SMALL
bcc


@<TRIPOS>ATOM
      1 O1         -2.7660    2.4960   -0.2700 o         1 809     -0.601500
      2 C5         -1.6140    2.0540   -0.3300 c         1 809      0.734100
      3 N1         -0.4790    2.8500   -0.5950 n         1 809     -0.625500
      4 C6          0.7070    2.0690   -0.6140 c         1 809      0.725100
      5 O2          1.8240    2.5430   -0.8310 o         1 809     -0.563500
      6 C3          0.2910    0.6540   -0.3370 ca        1 809     -0.142600
      7 C4         -1.1190    0.6480   -0.1620 ca        1 809     -0.096600
      8 C13        -1.7850   -0.5270    0.1150 ca        1 809     -0.022800
      9 C15        -3.1550   -0.9310    0.3600 cc        1 809     -0.124400
     10 C17        -4.3330   -0.0550    0.3870 c3        1 809     -0.055200
     11 C19        -4.7950    0.3290   -1.0170 c3        1 809      0.144400
     12 O3         -5.6020    1.4880   -0.9850 oh        1 809     -0.607800
     13 C16        -3.1380   -2.3050    0.5910 cd        1 809     -0.079100
     14 N2         -1.8310   -2.8040    0.5140 na        1 809     -0.083400
     15 C18        -1.4480   -4.1690    0.6520 c3        1 809      0.028600
     16 C14        -0.9720   -1.7390    0.2160 ca        1 809     -0.025200
     17 C1          0.4130   -1.7230    0.0410 ca        1 809     -0.120000
     18 C2          1.0570   -0.5060   -0.2380 cp        1 809      0.038000
     19 C7          2.5120   -0.5080   -0.4280 cp        1 809     -0.044000
     20 C12         3.0380   -0.5640   -1.7260 ca        1 809     -0.094000
     21 C8          3.3970   -0.4710    0.6620 ca        1 809      0.039400
     22 CL1         2.8130   -0.4030    2.2580 cl        1 809     -0.088400
     23 C9          4.7800   -0.4860    0.4540 ca        1 809     -0.126000
     24 C10         5.2860   -0.5410   -0.8430 ca        1 809     -0.111000
     25 C11         4.4150   -0.5810   -1.9320 ca        1 809     -0.128000
     26 HN1        -0.5040    3.8270   -0.7400 hn        1 809      0.347500
     27 H17        -5.1770   -0.5550    0.9320 hc        1 809      0.063700
     28 H17A       -4.0800    0.8870    0.9490 hc        1 809      0.063700
     29 H19        -3.9060    0.4970   -1.6820 h1        1 809      0.041700
     30 H19A       -5.4510   -0.4670   -1.4590 h1        1 809      0.041700
     31 HO3        -5.0380    2.2170   -0.6910 ho        1 809      0.417000
     32 H16        -3.9730   -2.9740    0.8170 h4        1 809      0.175000
     33 H18        -1.2570   -4.6280   -0.3570 h1        1 809      0.054367
     34 H18A       -0.5080   -4.2410    1.2630 h1        1 809      0.054367
     35 H18B       -2.2670   -4.7400    1.1640 h1        1 809      0.054367
     36 H1          1.0030   -2.6470    0.1250 ha        1 809      0.150000
     37 H12         2.3520   -0.5850   -2.5860 ha        1 809      0.142000
     38 H9          5.4670   -0.4490    1.3140 ha        1 809      0.149000
     39 H10         6.3740   -0.5490   -1.0050 ha        1 809      0.139000
     40 H11         4.8150   -0.6190   -2.9560 ha        1 809      0.139000
@<TRIPOS>BOND
     1    1    2 2   
     2    2    3 1   
     3    2    7 1   
     4    3    4 1   
     5    3   26 1   
     6    4    5 2   
     7    4    6 1   
     8    6    7 ar  
     9    6   18 ar  
    10    7    8 ar  
    11    8    9 1   
    12    8   16 ar  
    13    9   10 1   
    14    9   13 2   
    15   10   11 1   
    16   10   27 1   
    17   10   28 1   
    18   11   12 1   
    19   11   29 1   
    20   11   30 1   
    21   12   31 1   
    22   13   14 1   
    23   13   32 1   
    24   14   15 1   
    25   14   16 1   
    26   15   33 1   
    27   15   34 1   
    28   15   35 1   
    29   16   17 ar  
    30   17   18 ar  
    31   17   36 1   
    32   18   19 1   
    33   19   20 ar  
    34   19   21 ar  
    35   20   25 ar  
    36   20   37 1   
    37   21   22 1   
    38   21   23 ar  
    39   23   24 ar  
    40   23   38 1   
    41   24   25 ar  
    42   24   39 1   
    43   25   40 1   
@<TRIPOS>SUBSTRUCTURE
     1 809         1 TEMP              0 ****  ****    0 ROOT
