@<TRIPOS>MOLECULE
809
   40    43     1     0     0
SMALL
bcc


@<TRIPOS>ATOM
      1 O1         -0.1450    0.4300   -0.0280 o         1 809     -0.601500
      2 C5          1.0870    0.3390   -0.0580 c         1 809      0.734100
      3 N1          1.9080    0.3850    1.0890 n         1 809     -0.625500
      4 C6          3.2810    0.2670    0.7470 c         1 809      0.725100
      5 O2          4.1880    0.2870    1.5800 o         1 809     -0.563500
      6 C3          3.3400    0.1330   -0.7470 ca        1 809     -0.142600
      7 C4          2.0050    0.1730   -1.2340 ca        1 809     -0.096600
      8 C13         1.7480    0.0640   -2.5830 ca        1 809     -0.022800
      9 C15         0.5770    0.0510   -3.4380 cc        1 809     -0.124400
     10 C17        -0.8210    0.1550   -3.0050 c3        1 809     -0.055200
     11 C19        -1.2080    1.5900   -2.6530 c3        1 809      0.144400
     12 O3         -2.3580    1.6180   -1.8330 oh        1 809     -0.607800
     13 C16         1.0310   -0.1050   -4.7460 cd        1 809     -0.079100
     14 N2          2.4290   -0.2000   -4.7770 na        1 809     -0.083400
     15 C18         3.2320   -0.3200   -5.9480 c3        1 809      0.028600
     16 C14         2.9050   -0.0930   -3.4650 ca        1 809     -0.025200
     17 C1          4.2130   -0.1300   -2.9770 ca        1 809     -0.120000
     18 C2          4.4350   -0.0180   -1.5950 cp        1 809      0.038000
     19 C7          5.8160   -0.0500   -1.0990 cp        1 809     -0.044000
     20 C12         6.4860    1.1540   -0.8470 ca        1 809     -0.094000
     21 C8          6.4930   -1.2620   -0.8850 ca        1 809      0.039400
     22 CL1         5.7270   -2.7530   -1.1750 cl        1 809     -0.088400
     23 C9          7.8140   -1.2640   -0.4230 ca        1 809     -0.126000
     24 C10         8.4650   -0.0580   -0.1780 ca        1 809     -0.111000
     25 C11         7.8020    1.1510   -0.3900 ca        1 809     -0.128000
     26 HN1         1.5710    0.4790    2.0130 hn        1 809      0.347500
     27 H17        -1.5070   -0.2280   -3.8070 hc        1 809      0.063700
     28 H17A       -0.9750   -0.4890   -2.0940 hc        1 809      0.063700
     29 H19        -1.4950    2.1680   -3.5710 h1        1 809      0.041700
     30 H19A       -0.3540    2.1030   -2.1360 h1        1 809      0.041700
     31 HO3        -2.1160    1.2030   -0.9930 ho        1 809      0.417000
     32 H16         0.4520   -0.1660   -5.6710 h4        1 809      0.175000
     33 H18         4.0570   -1.0620   -5.7690 h1        1 809      0.054367
     34 H18A        3.6910    0.6720   -6.2130 h1        1 809      0.054367
     35 H18B        2.5990   -0.6710   -6.8050 h1        1 809      0.054367
     36 H1          5.0660   -0.2530   -3.6610 ha        1 809      0.150000
     37 H12         5.9600    2.1080   -1.0050 ha        1 809      0.142000
     38 H9          8.3340   -2.2190   -0.2510 ha        1 809      0.149000
     39 H10         9.5020   -0.0620    0.1880 ha        1 809      0.139000
     40 H11         8.3140    2.1030   -0.1910 ha        1 809      0.139000
@<TRIPOS>BOND
     1    1    2 2   
     2    2    3 1   
     3    2    7 1   
     4    3    4 1   
     5    3   26 1   
     6    4    5 2   
     7    4    6 1   
     8    6    7 ar  
     9    6   18 ar  
    10    7    8 ar  
    11    8    9 1   
    12    8   16 ar  
    13    9   10 1   
    14    9   13 2   
    15   10   11 1   
    16   10   27 1   
    17   10   28 1   
    18   11   12 1   
    19   11   29 1   
    20   11   30 1   
    21   12   31 1   
    22   13   14 1   
    23   13   32 1   
    24   14   15 1   
    25   14   16 1   
    26   15   33 1   
    27   15   34 1   
    28   15   35 1   
    29   16   17 ar  
    30   17   18 ar  
    31   17   36 1   
    32   18   19 1   
    33   19   20 ar  
    34   19   21 ar  
    35   20   25 ar  
    36   20   37 1   
    37   21   22 1   
    38   21   23 ar  
    39   23   24 ar  
    40   23   38 1   
    41   24   25 ar  
    42   24   39 1   
    43   25   40 1   
@<TRIPOS>SUBSTRUCTURE
     1 809         1 TEMP              0 ****  ****    0 ROOT
