@<TRIPOS>MOLECULE
809
   40    43     1     0     0
SMALL
bcc


@<TRIPOS>ATOM
      1 O1         -0.1410    0.4490   -0.0240 o         1 809     -0.601500
      2 C5          1.0910    0.3580   -0.0560 c         1 809      0.734100
      3 N1          1.9130    0.4170    1.0890 ns        1 809     -0.625500
      4 C6          3.2860    0.2960    0.7460 c         1 809      0.725100
      5 O2          4.1950    0.3250    1.5770 o         1 809     -0.563500
      6 C3          3.3420    0.1460   -0.7470 ca        1 809     -0.142600
      7 C4          2.0060    0.1810   -1.2320 ca        1 809     -0.096600
      8 C13         1.7480    0.0580   -2.5790 ca        1 809     -0.022800
      9 C15         0.5750    0.0360   -3.4320 cc        1 809     -0.124400
     10 C17        -0.8230    0.1440   -2.9970 c3        1 809     -0.055200
     11 C19        -1.2100    1.5820   -2.6600 c3        1 809      0.144400
     12 O3         -2.3580    1.6180   -1.8380 oh        1 809     -0.607800
     13 C16         1.0260   -0.1340   -4.7390 cd        1 809     -0.079100
     14 N2          2.4240   -0.2290   -4.7720 na        1 809     -0.083400
     15 C18         3.2250   -0.3610   -5.9420 c3        1 809      0.028600
     16 C14         2.9030   -0.1080   -3.4620 ca        1 809     -0.025200
     17 C1          4.2110   -0.1400   -2.9760 ca        1 809     -0.120000
     18 C2          4.4360   -0.0130   -1.5960 cp        1 809      0.038000
     19 C7          5.8170   -0.0400   -1.1020 cp        1 809     -0.044000
     20 C12         6.4880    1.1670   -0.8640 ca        1 809     -0.094000
     21 C8          6.4950   -1.2490   -0.8760 ca        1 809      0.039400
     22 Cl1         5.7290   -2.7430   -1.1490 cl        1 809     -0.088400
     23 C9          7.8170   -1.2470   -0.4170 ca        1 809     -0.126000
     24 C10         8.4680   -0.0370   -0.1860 ca        1 809     -0.111000
     25 C11         7.8040    1.1690   -0.4090 ca        1 809     -0.128000
     26 HN1         1.5790    0.5210    2.0120 hn        1 809      0.347500
     27 H17        -1.5100   -0.2480   -3.7930 hc        1 809      0.063700
     28 H17A       -0.9750   -0.4910   -2.0790 hc        1 809      0.063700
     29 H19        -1.4990    2.1500   -3.5840 h1        1 809      0.041700
     30 H19A       -0.3550    2.1010   -2.1500 h1        1 809      0.041700
     31 HO3        -2.1150    1.2120   -0.9940 ho        1 809      0.417000
     32 H16         0.4450   -0.2050   -5.6620 h4        1 809      0.175000
     33 H18         4.0510   -1.1000   -5.7570 h1        1 809      0.054367
     34 H18A        3.6830    0.6290   -6.2190 h1        1 809      0.054367
     35 H18B        2.5900   -0.7210   -6.7950 h1        1 809      0.054367
     36 H1          5.0630   -0.2690   -3.6600 ha        1 809      0.150000
     37 H12         5.9620    2.1200   -1.0310 ha        1 809      0.142000
     38 H9          8.3380   -2.1990   -0.2350 ha        1 809      0.149000
     39 H10         9.5060   -0.0370    0.1780 ha        1 809      0.139000
     40 H11         8.3170    2.1240   -0.2210 ha        1 809      0.139000
@<TRIPOS>BOND
     1    1    2 2   
     2    2    3 1   
     3    2    7 1   
     4    3    4 1   
     5    3   26 1   
     6    4    5 2   
     7    4    6 1   
     8    6    7 ar  
     9    6   18 ar  
    10    7    8 ar  
    11    8    9 1   
    12    8   16 ar  
    13    9   10 1   
    14    9   13 2   
    15   10   11 1   
    16   10   27 1   
    17   10   28 1   
    18   11   12 1   
    19   11   29 1   
    20   11   30 1   
    21   12   31 1   
    22   13   14 1   
    23   13   32 1   
    24   14   15 1   
    25   14   16 1   
    26   15   33 1   
    27   15   34 1   
    28   15   35 1   
    29   16   17 ar  
    30   17   18 ar  
    31   17   36 1   
    32   18   19 1   
    33   19   20 ar  
    34   19   21 ar  
    35   20   25 ar  
    36   20   37 1   
    37   21   22 1   
    38   21   23 ar  
    39   23   24 ar  
    40   23   38 1   
    41   24   25 ar  
    42   24   39 1   
    43   25   40 1   
@<TRIPOS>SUBSTRUCTURE
     1 809         1 TEMP              0 ****  ****    0 ROOT
