@<TRIPOS>MOLECULE
809
   40    43     1     0     0
SMALL
bcc


@<TRIPOS>ATOM
      1 O1         -0.1460    0.4450   -0.0310 o         1 809     -0.601500
      2 C5          1.0860    0.3560   -0.0610 c         1 809      0.734100
      3 N1          1.9070    0.4150    1.0860 n         1 809     -0.625500
      4 C6          3.2810    0.2970    0.7450 c         1 809      0.725100
      5 O2          4.1880    0.3270    1.5780 o         1 809     -0.563500
      6 C3          3.3390    0.1460   -0.7470 ca        1 809     -0.142600
      7 C4          2.0040    0.1790   -1.2350 ca        1 809     -0.096600
      8 C13         1.7480    0.0560   -2.5830 ca        1 809     -0.022800
      9 C15         0.5770    0.0320   -3.4370 cc        1 809     -0.124400
     10 C17        -0.8220    0.1380   -3.0050 c3        1 809     -0.055200
     11 C19        -1.2110    1.5750   -2.6690 c3        1 809      0.144400
     12 O3         -2.3610    1.6090   -1.8490 oh        1 809     -0.607800
     13 C16         1.0310   -0.1380   -4.7430 cd        1 809     -0.079100
     14 N2          2.4290   -0.2310   -4.7740 na        1 809     -0.083400
     15 C18         3.2330   -0.3610   -5.9430 c3        1 809      0.028600
     16 C14         2.9060   -0.1090   -3.4630 ca        1 809     -0.025200
     17 C1          4.2130   -0.1390   -2.9740 ca        1 809     -0.120000
     18 C2          4.4350   -0.0110   -1.5940 cp        1 809      0.038000
     19 C7          5.8160   -0.0360   -1.0980 cp        1 809     -0.044000
     20 C12         6.4840    1.1730   -0.8600 ca        1 809     -0.094000
     21 C8          6.4950   -1.2430   -0.8690 ca        1 809      0.039400
     22 CL1         5.7310   -2.7390   -1.1410 cl        1 809     -0.088400
     23 C9          7.8160   -1.2390   -0.4070 ca        1 809     -0.126000
     24 C10         8.4650   -0.0280   -0.1760 ca        1 809     -0.111000
     25 C11         7.8000    1.1770   -0.4030 ca        1 809     -0.128000
     26 HN1         1.5700    0.5190    2.0090 hn        1 809      0.347500
     27 H17        -1.5060   -0.2550   -3.8030 hc        1 809      0.063700
     28 H17A       -0.9740   -0.4970   -2.0880 hc        1 809      0.063700
     29 H19        -1.4990    2.1430   -3.5920 h1        1 809      0.041700
     30 H19A       -0.3570    2.0950   -2.1570 h1        1 809      0.041700
     31 HO3        -2.1180    1.2040   -1.0050 ho        1 809      0.417000
     32 H16         0.4530   -0.2100   -5.6680 h4        1 809      0.175000
     33 H18         2.6000   -0.7250   -6.7950 h1        1 809      0.054367
     34 H18A        3.6870    0.6300   -6.2200 h1        1 809      0.054367
     35 H18B        4.0610   -1.0970   -5.7550 h1        1 809      0.054367
     36 H1          5.0660   -0.2670   -3.6570 ha        1 809      0.150000
     37 H12         5.9570    2.1240   -1.0290 ha        1 809      0.142000
     38 H9          8.3380   -2.1900   -0.2230 ha        1 809      0.149000
     39 H10         9.5020   -0.0260    0.1900 ha        1 809      0.139000
     40 H11         8.3110    2.1320   -0.2150 ha        1 809      0.139000
@<TRIPOS>BOND
     1    1    2 2   
     2    2    3 1   
     3    2    7 1   
     4    3    4 1   
     5    3   26 1   
     6    4    5 2   
     7    4    6 1   
     8    6    7 ar  
     9    6   18 ar  
    10    7    8 ar  
    11    8    9 1   
    12    8   16 ar  
    13    9   10 1   
    14    9   13 2   
    15   10   11 1   
    16   10   27 1   
    17   10   28 1   
    18   11   12 1   
    19   11   29 1   
    20   11   30 1   
    21   12   31 1   
    22   13   14 1   
    23   13   32 1   
    24   14   15 1   
    25   14   16 1   
    26   15   33 1   
    27   15   34 1   
    28   15   35 1   
    29   16   17 ar  
    30   17   18 ar  
    31   17   36 1   
    32   18   19 1   
    33   19   20 ar  
    34   19   21 ar  
    35   20   25 ar  
    36   20   37 1   
    37   21   22 1   
    38   21   23 ar  
    39   23   24 ar  
    40   23   38 1   
    41   24   25 ar  
    42   24   39 1   
    43   25   40 1   
@<TRIPOS>SUBSTRUCTURE
     1 809         1 TEMP              0 ****  ****    0 ROOT
