@<TRIPOS>MOLECULE
80A
   44    46     1     0     0
SMALL
bcc


@<TRIPOS>ATOM
      1 C1         -0.1190   -0.1560    0.1410 ca        1 80A     -0.080000
      2 C2          1.2680   -0.1910    0.0990 ca        1 80A     -0.183000
      3 C3          1.9970   -0.1020    1.3020 ca        1 80A      0.139100
      4 C4          1.3320    0.0200    2.5290 ca        1 80A     -0.183000
      5 C5         -0.0610    0.0550    2.5480 ca        1 80A     -0.080000
      6 C6         -0.7940   -0.0330    1.3620 ca        1 80A     -0.170300
      7 C7         -2.2960    0.0020    1.3880 c3        1 80A      0.238700
      8 O8         -2.8160   -0.6520    2.5440 oh        1 80A     -0.598800
      9 C9         -2.8180    1.4110    1.3780 ca        1 80A     -0.042300
     10 C14        -3.4440    1.9780    2.4920 ca        1 80A     -0.229300
     11 C13        -3.9170    3.3000    2.3960 ca        1 80A      0.389700
     12 N12        -3.8000    4.0560    1.2890 nb        1 80A     -0.664000
     13 C11        -3.1940    3.4960    0.2230 ca        1 80A      0.389700
     14 C10        -2.6910    2.1840    0.2160 ca        1 80A     -0.229300
     15 O15         3.3660   -0.1500    1.1520 os        1 80A     -0.336900
     16 C16         4.1370   -0.0470    2.3580 c3        1 80A      0.124400
     17 C17         5.6060   -0.1440    1.9260 c3        1 80A      0.163800
     18 N23         6.2230    1.1460    1.6680 n3        1 80A     -0.722600
     19 C19         7.6740    1.0580    1.4720 c3        1 80A      0.152800
     20 C20         8.0460    1.6280    0.0930 c3        1 80A     -0.096400
     21 C21         6.7460    2.1270   -0.5210 c3        1 80A     -0.096400
     22 C22         5.6550    1.8780    0.5320 c3        1 80A      0.152800
     23 H1         -0.6920   -0.2250   -0.7970 ha        1 80A      0.139500
     24 H2          1.8080   -0.2860   -0.8530 ha        1 80A      0.146000
     25 H4          1.8890    0.0930    3.4730 ha        1 80A      0.146000
     26 H5         -0.5950    0.1550    3.5060 ha        1 80A      0.139500
     27 H7         -2.6960   -0.5330    0.4740 h1        1 80A      0.050700
     28 HO8        -2.3650   -1.5030    2.6030 ho        1 80A      0.411000
     29 H14        -3.5700    1.3990    3.4180 ha        1 80A      0.151000
     30 H13        -4.4180    3.7800    3.2560 h4        1 80A      0.021600
     31 H11        -3.1110    4.1360   -0.6730 h4        1 80A      0.021600
     32 H10        -2.2020    1.7780   -0.6800 ha        1 80A      0.151000
     33 H16         3.8860   -0.9110    3.0270 h1        1 80A      0.051700
     34 H16A        3.9030    0.9190    2.8750 h1        1 80A      0.051700
     35 H17         6.1670   -0.6190    2.7800 h1        1 80A      0.046700
     36 H17A        5.6650   -0.8410    1.0390 h1        1 80A      0.046700
     37 H19         8.1460    1.6730    2.2860 h1        1 80A      0.050450
     38 H19A        8.0550    0.0060    1.5730 h1        1 80A      0.050450
     39 H20         8.7850    2.4580    0.2040 hc        1 80A      0.046950
     40 H20A        8.5150    0.8380   -0.5430 hc        1 80A      0.046950
     41 H21         6.5120    1.5760   -1.4650 hc        1 80A      0.046950
     42 H21A        6.8070    3.2140   -0.7690 hc        1 80A      0.046950
     43 H22         4.7820    1.3350    0.0780 h1        1 80A      0.050450
     44 H22A        5.2810    2.8580    0.9360 h1        1 80A      0.050450
@<TRIPOS>BOND
     1    1    2 ar  
     2    1    6 ar  
     3    1   23 1   
     4    2    3 ar  
     5    2   24 1   
     6    3    4 ar  
     7    3   15 1   
     8    4    5 ar  
     9    4   25 1   
    10    5    6 ar  
    11    5   26 1   
    12    6    7 1   
    13    7    8 1   
    14    7    9 1   
    15    7   27 1   
    16    8   28 1   
    17    9   10 ar  
    18    9   14 ar  
    19   10   11 ar  
    20   10   29 1   
    21   11   12 ar  
    22   11   30 1   
    23   12   13 ar  
    24   13   14 ar  
    25   13   31 1   
    26   14   32 1   
    27   15   16 1   
    28   16   17 1   
    29   16   33 1   
    30   16   34 1   
    31   17   18 1   
    32   17   35 1   
    33   17   36 1   
    34   18   19 1   
    35   18   22 1   
    36   19   20 1   
    37   19   37 1   
    38   19   38 1   
    39   20   21 1   
    40   20   39 1   
    41   20   40 1   
    42   21   22 1   
    43   21   41 1   
    44   21   42 1   
    45   22   43 1   
    46   22   44 1   
@<TRIPOS>SUBSTRUCTURE
     1 80A         1 TEMP              0 ****  ****    0 ROOT
