@<TRIPOS>MOLECULE
80A
   44    41     1     0     0
SMALL
bcc


@<TRIPOS>ATOM
      1 C1         -2.0250    0.6370   -1.2700 c1        1 80A     -0.080000
      2 C2         -0.6340    0.6180   -1.2610 c1        1 80A     -0.206000
      3 C3          0.0550    0.6100   -0.0500 c1        1 80A      0.095000
      4 C4         -0.6460    0.6210    1.1460 c1        1 80A     -0.119500
      5 C5         -2.0360    0.6390    1.1380 c1        1 80A     -0.119500
      6 C6         -2.7270    0.6480   -0.0740 c1        1 80A     -0.162000
      7 C7         -4.2430    0.4900   -0.0840 c3        1 80A      0.113000
      8 O8         -4.7060    0.3770    1.2260 oh        1 80A     -0.325000
      9 C9         -4.8780    1.7080   -0.7440 c2        1 80A     -0.035000
     10 C14        -5.5740    1.5650   -1.9140 c1        1 80A     -0.176000
     11 C13        -6.2620    2.6440   -2.4470 c1        1 80A     -0.074000
     12 N12        -6.2450    3.8480   -1.8080 n1        1 80A     -0.138000
     13 C11        -5.5520    3.9930   -0.6410 c1        1 80A     -0.077000
     14 C10        -4.8630    2.9150   -0.1050 c2        1 80A     -0.151000
     15 O15         1.4890    0.5020   -0.0410 os        1 80A     -0.216000
     16 C16         1.9680   -0.8420   -0.0500 c3        1 80A     -0.023000
     17 C17         3.4260   -0.8710    0.4380 c3        1 80A     -0.074000
     18 N23         3.9780   -2.1900    0.2300 n3        1 80A     -0.252000
     19 C19         4.1860   -2.7610    1.3810 c3        1 80A     -0.078500
     20 C20         5.6680   -2.3810    1.7680 c3        1 80A     -0.172500
     21 C21         6.2830   -1.7820    0.4990 c3        1 80A     -0.172500
     22 C22         5.4160   -2.0650   -0.4720 c3        1 80A     -0.078500
     23 H1         -2.5090    0.6430   -2.1210 ha        1 80A      0.132000
     24 H2         -0.1400    0.6110   -2.1040 ha        1 80A      0.142000
     25 H4         -0.1640    0.6150    1.9930 ha        1 80A      0.149500
     26 H5         -2.5280    0.6470    1.9800 ha        1 80A      0.149500
     27 H7         -4.4840   -0.3170   -0.5860 h1        1 80A      0.089000
     28 HO8        -4.8270   -0.4830    1.4250 ho        1 80A      0.210000
     29 H14        -5.5860    0.7060   -2.3710 ha        1 80A      0.140000
     30 H13        -6.7580    2.5420   -3.2820 ha        1 80A      0.157000
     31 H11        -5.5410    4.8570   -0.1830 ha        1 80A      0.159000
     32 H10        -4.3670    3.0190    0.7310 ha        1 80A      0.161000
     33 H16         1.9220   -1.2000   -0.9630 h1        1 80A      0.087000
     34 H16A        1.4160   -1.3890    0.5420 h1        1 80A      0.087000
     35 H17         3.4560   -0.6520    1.3910 h1        1 80A      0.087500
     36 H17A        3.9530   -0.2120   -0.0660 h1        1 80A      0.087500
     37 H19         4.0940   -3.7310    1.3010 h1        1 80A      0.083500
     38 H19A        3.5600   -2.4130    2.0520 h1        1 80A      0.083500
     39 H20         6.1610   -3.1800    2.0390 hc        1 80A      0.087750
     40 H20A        5.6710   -1.7220    2.4880 hc        1 80A      0.087750
     41 H21         7.1520   -2.1990    0.3120 hc        1 80A      0.087750
     42 H21A        6.3830   -0.8110    0.5950 hc        1 80A      0.087750
     43 H22         5.4050   -1.3420   -1.1350 h1        1 80A      0.083500
     44 H22A        5.6550   -2.9120   -0.9020 h1        1 80A      0.083500
@<TRIPOS>BOND
     1    1    6 1   
     2    1   23 1   
     3    2    3 1   
     4    2   24 1   
     5    3   15 1   
     6    4    5 1   
     7    4   25 1   
     8    5   26 1   
     9    6    7 1   
    10    7    8 1   
    11    7    9 1   
    12    7   27 1   
    13    8   28 1   
    14    9   10 1   
    15    9   14 1   
    16   10   29 1   
    17   11   12 1   
    18   11   30 1   
    19   13   14 1   
    20   13   31 1   
    21   14   32 1   
    22   15   16 1   
    23   16   17 1   
    24   16   33 1   
    25   16   34 1   
    26   17   18 1   
    27   17   35 1   
    28   17   36 1   
    29   18   19 1   
    30   18   22 1   
    31   19   20 1   
    32   19   37 1   
    33   19   38 1   
    34   20   21 1   
    35   20   39 1   
    36   20   40 1   
    37   21   22 1   
    38   21   41 1   
    39   21   42 1   
    40   22   43 1   
    41   22   44 1   
@<TRIPOS>SUBSTRUCTURE
     1 80A         1 TEMP              0 ****  ****    0 ROOT
