@<TRIPOS>MOLECULE
80A
   44    46     1     0     0
SMALL
bcc


@<TRIPOS>ATOM
      1 C1         -1.1630   -0.9830   -1.6780 ca        1 80A     -0.081500
      2 C2          0.2190   -0.9120   -1.5660 ca        1 80A     -0.181500
      3 C3          0.8100   -0.9510   -0.2870 ca        1 80A      0.138100
      4 C4          0.0140   -1.0590    0.8600 ca        1 80A     -0.181500
      5 C5         -1.3710   -1.1260    0.7240 ca        1 80A     -0.081500
      6 C6         -1.9700   -1.0870   -0.5370 ca        1 80A     -0.157300
      7 C7         -3.4630   -1.1790   -0.6850 c3        1 80A      0.233700
      8 O8         -3.9610   -2.4070   -0.1760 oh        1 80A     -0.584800
      9 C9         -4.1620    0.0040   -0.0720 ca        1 80A     -0.083300
     10 C14        -5.3200   -0.1610    0.6970 ca        1 80A     -0.235300
     11 C13        -5.9550    0.9830    1.2110 ca        1 80A      0.391200
     12 N12        -5.5150    2.2390    1.0020 nb        1 80A     -0.663000
     13 C11        -4.4030    2.3820    0.2550 ca        1 80A      0.391200
     14 C10        -3.6950    1.3030   -0.3020 ca        1 80A     -0.235300
     15 O15         2.1860   -0.8750   -0.2850 os        1 80A     -0.335900
     16 C16         2.8190   -0.9350    1.0010 c3        1 80A      0.124400
     17 C17         4.3280   -0.8820    0.7290 c3        1 80A      0.163800
     18 N23         4.8730    0.4650    0.7410 n3        1 80A     -0.723600
     19 C19         6.3390    0.4900    0.7130 c3        1 80A      0.153300
     20 C20         6.8210    1.2850   -0.5120 c3        1 80A     -0.096400
     21 C21         5.5640    1.8000   -1.2010 c3        1 80A     -0.096400
     22 C22         4.3840    1.3310   -0.3350 c3        1 80A      0.153300
     23 H1         -1.6270   -0.9610   -2.6770 ha        1 80A      0.134500
     24 H2          0.8590   -0.8300   -2.4550 ha        1 80A      0.146500
     25 H4          0.4630   -1.0890    1.8630 ha        1 80A      0.146500
     26 H5         -1.9970   -1.2020    1.6260 ha        1 80A      0.134500
     27 H7         -3.7430   -1.2220   -1.7820 h1        1 80A      0.091700
     28 HO8        -3.6590   -2.4900    0.7370 ho        1 80A      0.402000
     29 H14        -5.7310   -1.1630    0.8840 ha        1 80A      0.151500
     30 H13        -6.8710    0.8910    1.8230 h4        1 80A      0.022600
     31 H11        -4.0620    3.4210    0.0950 h4        1 80A      0.022600
     32 H10        -2.7890    1.4770   -0.8990 ha        1 80A      0.151500
     33 H16         2.4650   -0.0830    1.6360 h1        1 80A      0.051200
     34 H16A        2.5620   -1.9110    1.4910 h1        1 80A      0.051200
     35 H17         4.8300   -1.4540    1.5610 h1        1 80A      0.047200
     36 H17A        4.5290   -1.4250   -0.2400 h1        1 80A      0.047200
     37 H19         6.6710    0.9980    1.6590 h1        1 80A      0.050200
     38 H19A        6.7840   -0.5420    0.7040 h1        1 80A      0.050200
     39 H20         7.4790    2.1290   -0.1910 hc        1 80A      0.046950
     40 H20A        7.4150    0.6310   -1.1950 hc        1 80A      0.046950
     41 H21         5.5720    2.9140   -1.2780 hc        1 80A      0.046950
     42 H21A        5.4780    1.3880   -2.2360 hc        1 80A      0.046950
     43 H22         3.6080    0.8170   -0.9660 h1        1 80A      0.050200
     44 H22A        3.8960    2.2150    0.1600 h1        1 80A      0.050200
@<TRIPOS>BOND
     1    1    2 ar  
     2    1    6 ar  
     3    1   23 1   
     4    2    3 ar  
     5    2   24 1   
     6    3    4 ar  
     7    3   15 1   
     8    4    5 ar  
     9    4   25 1   
    10    5    6 ar  
    11    5   26 1   
    12    6    7 1   
    13    7    8 1   
    14    7    9 1   
    15    7   27 1   
    16    8   28 1   
    17    9   10 ar  
    18    9   14 ar  
    19   10   11 ar  
    20   10   29 1   
    21   11   12 ar  
    22   11   30 1   
    23   12   13 ar  
    24   13   14 ar  
    25   13   31 1   
    26   14   32 1   
    27   15   16 1   
    28   16   17 1   
    29   16   33 1   
    30   16   34 1   
    31   17   18 1   
    32   17   35 1   
    33   17   36 1   
    34   18   19 1   
    35   18   22 1   
    36   19   20 1   
    37   19   37 1   
    38   19   38 1   
    39   20   21 1   
    40   20   39 1   
    41   20   40 1   
    42   21   22 1   
    43   21   41 1   
    44   21   42 1   
    45   22   43 1   
    46   22   44 1   
@<TRIPOS>SUBSTRUCTURE
     1 80A         1 TEMP              0 ****  ****    0 ROOT
