@<TRIPOS>MOLECULE
80A
   44    46     1     0     0
SMALL
bcc


@<TRIPOS>ATOM
      1 C1         -0.1180   -0.1630    0.1470 ca        1 80A     -0.080000
      2 C2          1.2690   -0.1950    0.1040 ca        1 80A     -0.183000
      3 C3          1.9980   -0.1010    1.3060 ca        1 80A      0.139100
      4 C4          1.3350    0.0230    2.5330 ca        1 80A     -0.183000
      5 C5         -0.0580    0.0560    2.5530 ca        1 80A     -0.080000
      6 C6         -0.7920   -0.0370    1.3690 ca        1 80A     -0.170300
      7 C7         -2.2950   -0.0050    1.3960 c3        1 80A      0.238700
      8 O8         -2.8120   -0.6540    2.5560 oh        1 80A     -0.598800
      9 C9         -2.8180    1.4040    1.3810 ca        1 80A     -0.042300
     10 C14        -3.4380    1.9770    2.4960 ca        1 80A     -0.229300
     11 C13        -3.9130    3.2970    2.3950 ca        1 80A      0.389700
     12 N12        -3.8050    4.0470    1.2820 nb        1 80A     -0.664000
     13 C11        -3.2050    3.4810    0.2160 ca        1 80A      0.389700
     14 C10        -2.7000    2.1700    0.2130 ca        1 80A     -0.229300
     15 O15         3.3680   -0.1480    1.1540 os        1 80A     -0.336900
     16 C16         4.1400   -0.0410    2.3580 c3        1 80A      0.124400
     17 C17         5.6080   -0.1370    1.9250 c3        1 80A      0.163800
     18 N23         6.2240    1.1530    1.6640 n3        1 80A     -0.722600
     19 C19         7.6740    1.0670    1.4660 c3        1 80A      0.152800
     20 C20         8.0440    1.6350    0.0860 c3        1 80A     -0.096400
     21 C21         6.7420    2.1310   -0.5280 c3        1 80A     -0.096400
     22 C22         5.6530    1.8820    0.5280 c3        1 80A      0.152800
     23 H1         -0.6920   -0.2350   -0.7900 ha        1 80A      0.139500
     24 H2          1.8080   -0.2930   -0.8490 ha        1 80A      0.146000
     25 H4          1.8930    0.1000    3.4770 ha        1 80A      0.146000
     26 H5         -0.5910    0.1580    3.5130 ha        1 80A      0.139500
     27 H7         -2.6950   -0.5450    0.4850 h1        1 80A      0.050700
     28 HO8        -2.3600   -1.5040    2.6190 ho        1 80A      0.411000
     29 H14        -3.5580    1.4040    3.4260 ha        1 80A      0.151000
     30 H13        -4.4090    3.7820    3.2540 h4        1 80A      0.021600
     31 H11        -3.1280    4.1160   -0.6850 h4        1 80A      0.021600
     32 H10        -2.2160    1.7590   -0.6830 ha        1 80A      0.151000
     33 H16         3.9050    0.9260    2.8740 h1        1 80A      0.051700
     34 H16A        3.8910   -0.9040    3.0300 h1        1 80A      0.051700
     35 H17         5.6670   -0.8350    1.0390 h1        1 80A      0.046700
     36 H17A        6.1720   -0.6090    2.7800 h1        1 80A      0.046700
     37 H19         8.1470    1.6830    2.2780 h1        1 80A      0.050450
     38 H19A        8.0570    0.0150    1.5670 h1        1 80A      0.050450
     39 H20         8.7810    2.4660    0.1950 hc        1 80A      0.046950
     40 H20A        8.5130    0.8450   -0.5500 hc        1 80A      0.046950
     41 H21         6.5070    1.5790   -1.4700 hc        1 80A      0.046950
     42 H21A        6.8010    3.2190   -0.7770 hc        1 80A      0.046950
     43 H22         5.2780    2.8630    0.9310 h1        1 80A      0.050450
     44 H22A        4.7800    1.3380    0.0760 h1        1 80A      0.050450
@<TRIPOS>BOND
     1    1    2 ar  
     2    1    6 ar  
     3    1   23 1   
     4    2    3 ar  
     5    2   24 1   
     6    3    4 ar  
     7    3   15 1   
     8    4    5 ar  
     9    4   25 1   
    10    5    6 ar  
    11    5   26 1   
    12    6    7 1   
    13    7    8 1   
    14    7    9 1   
    15    7   27 1   
    16    8   28 1   
    17    9   10 ar  
    18    9   14 ar  
    19   10   11 ar  
    20   10   29 1   
    21   11   12 ar  
    22   11   30 1   
    23   12   13 ar  
    24   13   14 ar  
    25   13   31 1   
    26   14   32 1   
    27   15   16 1   
    28   16   17 1   
    29   16   33 1   
    30   16   34 1   
    31   17   18 1   
    32   17   35 1   
    33   17   36 1   
    34   18   19 1   
    35   18   22 1   
    36   19   20 1   
    37   19   37 1   
    38   19   38 1   
    39   20   21 1   
    40   20   39 1   
    41   20   40 1   
    42   21   22 1   
    43   21   41 1   
    44   21   42 1   
    45   22   43 1   
    46   22   44 1   
@<TRIPOS>SUBSTRUCTURE
     1 80A         1 TEMP              0 ****  ****    0 ROOT
