@<TRIPOS>MOLECULE
80A
   44    46     1     0     0
SMALL
bcc


@<TRIPOS>ATOM
      1 C1         -0.1170   -0.1660    0.1480 ca        1 80A     -0.079500
      2 C2          1.2700   -0.1970    0.1050 ca        1 80A     -0.183000
      3 C3          1.9990   -0.1020    1.3080 ca        1 80A      0.139100
      4 C4          1.3350    0.0230    2.5340 ca        1 80A     -0.183000
      5 C5         -0.0580    0.0550    2.5540 ca        1 80A     -0.079500
      6 C6         -0.7910   -0.0400    1.3690 ca        1 80A     -0.170300
      7 C7         -2.2940   -0.0080    1.3960 c3        1 80A      0.238700
      8 O8         -2.8120   -0.6540    2.5570 oh        1 80A     -0.598800
      9 C9         -2.8180    1.4010    1.3760 ca        1 80A     -0.042300
     10 C14        -3.4290    1.9790    2.4930 ca        1 80A     -0.229300
     11 C13        -3.9050    3.3000    2.3880 ca        1 80A      0.389700
     12 N12        -3.8050    4.0430    1.2700 nb        1 80A     -0.664000
     13 C11        -3.2140    3.4710    0.2020 ca        1 80A      0.389700
     14 C10        -2.7090    2.1600    0.2030 ca        1 80A     -0.229300
     15 O15         3.3690   -0.1470    1.1570 os        1 80A     -0.336900
     16 C16         4.1400   -0.0380    2.3610 c3        1 80A      0.124400
     17 C17         5.6090   -0.1340    1.9290 c3        1 80A      0.163800
     18 N23         6.2230    1.1560    1.6670 n3        1 80A     -0.723600
     19 C19         7.6740    1.0710    1.4700 c3        1 80A      0.152800
     20 C20         8.0440    1.6390    0.0900 c3        1 80A     -0.096400
     21 C21         6.7420    2.1350   -0.5240 c3        1 80A     -0.096400
     22 C22         5.6530    1.8850    0.5310 c3        1 80A      0.152800
     23 H1         -0.6900   -0.2390   -0.7900 ha        1 80A      0.139500
     24 H2          1.8100   -0.2950   -0.8470 ha        1 80A      0.146000
     25 H4          1.8920    0.1010    3.4780 ha        1 80A      0.146000
     26 H5         -0.5920    0.1570    3.5130 ha        1 80A      0.139500
     27 H7         -2.6940   -0.5510    0.4860 h1        1 80A      0.050700
     28 HO8        -2.3600   -1.5040    2.6220 ho        1 80A      0.411000
     29 H14        -3.5420    1.4110    3.4270 ha        1 80A      0.151000
     30 H13        -4.3940    3.7900    3.2490 h4        1 80A      0.021600
     31 H11        -3.1440    4.1010   -0.7020 h4        1 80A      0.021600
     32 H10        -2.2330    1.7440   -0.6950 ha        1 80A      0.151000
     33 H16         3.8920   -0.9010    3.0340 h1        1 80A      0.051700
     34 H16A        3.9040    0.9280    2.8760 h1        1 80A      0.051700
     35 H17         5.6680   -0.8330    1.0440 h1        1 80A      0.046700
     36 H17A        6.1720   -0.6050    2.7840 h1        1 80A      0.046700
     37 H19         8.0570    0.0190    1.5720 h1        1 80A      0.050450
     38 H19A        8.1460    1.6880    2.2830 h1        1 80A      0.050450
     39 H20         8.7800    2.4720    0.1990 hc        1 80A      0.046950
     40 H20A        8.5140    0.8500   -0.5460 hc        1 80A      0.046950
     41 H21         6.5080    1.5810   -1.4660 hc        1 80A      0.046950
     42 H21A        6.8000    3.2220   -0.7740 hc        1 80A      0.046950
     43 H22         4.7800    1.3390    0.0790 h1        1 80A      0.050450
     44 H22A        5.2760    2.8650    0.9330 h1        1 80A      0.050450
@<TRIPOS>BOND
     1    1    2 ar  
     2    1    6 ar  
     3    1   23 1   
     4    2    3 ar  
     5    2   24 1   
     6    3    4 ar  
     7    3   15 1   
     8    4    5 ar  
     9    4   25 1   
    10    5    6 ar  
    11    5   26 1   
    12    6    7 1   
    13    7    8 1   
    14    7    9 1   
    15    7   27 1   
    16    8   28 1   
    17    9   10 ar  
    18    9   14 ar  
    19   10   11 ar  
    20   10   29 1   
    21   11   12 ar  
    22   11   30 1   
    23   12   13 ar  
    24   13   14 ar  
    25   13   31 1   
    26   14   32 1   
    27   15   16 1   
    28   16   17 1   
    29   16   33 1   
    30   16   34 1   
    31   17   18 1   
    32   17   35 1   
    33   17   36 1   
    34   18   19 1   
    35   18   22 1   
    36   19   20 1   
    37   19   37 1   
    38   19   38 1   
    39   20   21 1   
    40   20   39 1   
    41   20   40 1   
    42   21   22 1   
    43   21   41 1   
    44   21   42 1   
    45   22   43 1   
    46   22   44 1   
@<TRIPOS>SUBSTRUCTURE
     1 80A         1 TEMP              0 ****  ****    0 ROOT
