@<TRIPOS>MOLECULE
80G
   24    25     1     0     0
SMALL
bcc


@<TRIPOS>ATOM
      1 C1          0.1280    0.1370    0.0670 ca        1 80G     -0.001000
      2 C2         -0.7000    1.2340   -0.2140 ca        1 80G     -0.125500
      3 C3         -2.0850    1.1160   -0.1280 ca        1 80G     -0.114500
      4 C4         -2.6690   -0.1020    0.2350 ca        1 80G     -0.094300
      5 C5         -1.8490   -1.2000    0.5130 ca        1 80G     -0.114500
      6 C6         -0.4650   -1.0830    0.4330 ca        1 80G     -0.125500
      7 C7          1.5630    0.2550   -0.0180 cc        1 80G     -0.060100
      8 C9          3.9700   -0.1560   -0.2550 cc        1 80G     -0.170100
      9 C10         3.7040    1.1780   -0.0390 cd        1 80G     -0.155000
     10 C11         2.3040    1.4200    0.0990 cd        1 80G     -0.147000
     11 C12        -4.1590   -0.2300    0.3640 c3        1 80G      0.204100
     12 N13        -4.8930    0.3250   -0.7500 n3        1 80G     -0.916800
     13 S8          2.5770   -1.0690   -0.2880 ss        1 80G      0.018200
     14 H2         -0.2510    2.1950   -0.5080 ha        1 80G      0.134500
     15 H3         -2.7240    1.9850   -0.3470 ha        1 80G      0.140500
     16 H5         -2.2960   -2.1630    0.8020 ha        1 80G      0.140500
     17 H6          0.1720   -1.9510    0.6610 ha        1 80G      0.134500
     18 H9          4.9600   -0.5890   -0.3920 h4        1 80G      0.171000
     19 H10         4.4550    1.9690    0.0240 ha        1 80G      0.153000
     20 H11         1.8840    2.4120    0.2830 ha        1 80G      0.155000
     21 H12        -4.4120   -1.3190    0.5440 h1        1 80G      0.033700
     22 H12A       -4.4810    0.3370    1.2880 h1        1 80G      0.033700
     23 HN13       -4.4920    0.0480   -1.6240 hn        1 80G      0.352800
     24 HN1A       -5.8480    0.0280   -0.7150 hn        1 80G      0.352800
@<TRIPOS>BOND
     1    1    2 ar  
     2    1    6 ar  
     3    1    7 1   
     4    2    3 ar  
     5    2   14 1   
     6    3    4 ar  
     7    3   15 1   
     8    4    5 ar  
     9    4   11 1   
    10    5    6 ar  
    11    5   16 1   
    12    6   17 1   
    13    7   10 2   
    14    7   13 1   
    15    8    9 2   
    16    8   13 1   
    17    8   18 1   
    18    9   10 1   
    19    9   19 1   
    20   10   20 1   
    21   11   12 1   
    22   11   21 1   
    23   11   22 1   
    24   12   23 1   
    25   12   24 1   
@<TRIPOS>SUBSTRUCTURE
     1 80G         1 TEMP              0 ****  ****    0 ROOT
