@<TRIPOS>MOLECULE
80G
   25    26     1     0     0
SMALL
bcc


@<TRIPOS>ATOM
      1 C1          0.0050   -0.0130   -0.0520 ca        1 80G      0.097000
      2 C2          1.4090   -0.1120   -0.0050 ca        1 80G     -0.136000
      3 C3          2.0800   -0.1000    1.2110 ca        1 80G     -0.081000
      4 C4          1.3650    0.0110    2.4110 ca        1 80G     -0.230300
      5 C5         -0.0330    0.1010    2.3770 ca        1 80G     -0.081000
      6 C6         -0.7040    0.0900    1.1620 ca        1 80G     -0.136000
      7 C7         -0.6980   -0.0240   -1.3040 cc        1 80G     -0.144100
      8 C9         -2.3800   -0.1420   -3.0790 cc        1 80G     -0.140100
      9 C10        -1.1160    0.0760   -3.5960 cd        1 80G     -0.159000
     10 C11        -0.1370    0.1430   -2.5670 cd        1 80G     -0.103000
     11 C12         2.0800   -0.0140    3.7100 c3        1 80G      0.184100
     12 N13         2.4640    1.3790    4.1330 n4        1 80G     -0.847600
     13 S8         -2.3660   -0.2550   -1.4260 ss        1 80G      0.078200
     14 H2          1.9800   -0.2120   -0.9420 ha        1 80G      0.159500
     15 H3          3.1770   -0.1970    1.2260 ha        1 80G      0.137000
     16 H5         -0.6080    0.1640    3.3150 ha        1 80G      0.137000
     17 H6         -1.8050    0.1590    1.1450 ha        1 80G      0.159500
     18 H9         -3.2910   -0.2340   -3.6740 h4        1 80G      0.189000
     19 H10        -0.8820    0.1850   -4.6580 ha        1 80G      0.171000
     20 H11         0.9240    0.3150   -2.7670 ha        1 80G      0.157000
     21 H12         3.0330   -0.6160    3.6410 hx        1 80G      0.110200
     22 H12A        1.4310   -0.4440    4.5270 hx        1 80G      0.110200
     23 HN13        3.0670    1.8020    3.4200 hn        1 80G      0.455467
     24 HN1A        1.6220    1.9570    4.2230 hn        1 80G      0.455467
     25 H133        2.9590    1.3590    5.0270 hn        1 80G      0.455467
@<TRIPOS>BOND
     1    1    2 ar  
     2    1    6 ar  
     3    1    7 1   
     4    2    3 ar  
     5    2   14 1   
     6    3    4 ar  
     7    3   15 1   
     8    4    5 ar  
     9    4   11 1   
    10    5    6 ar  
    11    5   16 1   
    12    6   17 1   
    13    7   10 2   
    14    7   13 1   
    15    8    9 2   
    16    8   13 1   
    17    8   18 1   
    18    9   10 1   
    19    9   19 1   
    20   10   20 1   
    21   11   12 1   
    22   11   21 1   
    23   11   22 1   
    24   12   23 1   
    25   12   24 1   
    26   12   25 1   
@<TRIPOS>SUBSTRUCTURE
     1 80G         1 TEMP              0 ****  ****    0 ROOT
