@<TRIPOS>MOLECULE
80G
   24    18     1     0     0
SMALL
bcc


@<TRIPOS>ATOM
      1 C1         -0.3790   -0.0620   -0.5940 c1        1 80G      0.000000
      2 C2          1.0080   -0.0500   -0.6230 c1        1 80G     -0.058500
      3 C3          1.7320   -0.0680    0.5730 c1        1 80G     -0.058500
      4 C4          1.0630   -0.0980    1.7900 c1        1 80G     -0.095100
      5 C5         -0.3260   -0.1100    1.8180 c1        1 80G     -0.065500
      6 C6         -1.0490   -0.0920    0.6230 c1        1 80G     -0.070500
      7 C7         -1.1030   -0.0440   -1.7910 c1        1 80G     -0.161400
      8 C9         -2.2410    0.7530   -3.8820 c1        1 80G     -0.161400
      9 C10        -2.2100   -0.7000   -3.9040 cg        1 80G     -0.150500
     10 C11        -1.4870   -1.2070   -2.5760 cg        1 80G     -0.150500
     11 C12         1.8580   -0.1780    3.1030 c3        1 80G      0.160900
     12 N13         2.0240    1.1510    3.6480 n3        1 80G     -0.900800
     13 S8         -1.5550    1.2260   -2.5680 ss        1 80G      0.110800
     14 H2          1.4800   -0.0290   -1.4800 ha        1 80G      0.078000
     15 H3          2.7080   -0.0590    0.5530 ha        1 80G      0.078000
     16 H5         -0.7980   -0.1310    2.6760 ha        1 80G      0.074500
     17 H6         -2.0290   -0.1010    0.6430 ha        1 80G      0.076500
     18 H9         -2.6260    1.3320   -4.5730 DU        1 80G      0.159667
     19 H10        -2.5740   -1.2730   -4.6180 DU        1 80G      0.159667
     20 H11        -1.3280   -2.1470   -2.3300 DU        1 80G      0.159667
     21 H12         1.3710   -0.7370    3.7470 h1        1 80G      0.059700
     22 H12A        2.7400   -0.5720    2.9280 h1        1 80G      0.059700
     23 HN13        1.2020    1.5370    3.7680 hn        1 80G      0.347300
     24 HN1A        2.5190    1.6600    3.0690 hn        1 80G      0.347300
@<TRIPOS>BOND
     1    1    6 3   
     2    2    3 3   
     3    2   14 1   
     4    3   15 1   
     5    4    5 3   
     6    4   11 1   
     7    5   16 1   
     8    6   17 1   
     9    7   10 3   
    10    7   13 1   
    11    8    9 3   
    12    8   13 1   
    13    9   10 1   
    14   11   12 1   
    15   11   21 1   
    16   11   22 1   
    17   12   23 1   
    18   12   24 1   
@<TRIPOS>SUBSTRUCTURE
     1 80G         1 TEMP              0 ****  ****    0 ROOT
