@<TRIPOS>MOLECULE
80G
   25    26     1     0     0
SMALL
bcc


@<TRIPOS>ATOM
      1 C1          0.0060   -0.0130   -0.0530 ca        1 80G      0.097000
      2 C2          1.4100   -0.1160   -0.0020 ca        1 80G     -0.135500
      3 C3          2.0770   -0.1030    1.2160 ca        1 80G     -0.081000
      4 C4          1.3590    0.0110    2.4130 ca        1 80G     -0.230300
      5 C5         -0.0390    0.1050    2.3760 ca        1 80G     -0.081000
      6 C6         -0.7060    0.0940    1.1590 ca        1 80G     -0.135500
      7 C7         -0.6930   -0.0240   -1.3070 cc        1 80G     -0.144100
      8 C9         -2.3700   -0.1400   -3.0870 cc        1 80G     -0.140100
      9 C10        -1.1040    0.0760   -3.6000 cd        1 80G     -0.159000
     10 C11        -0.1280    0.1420   -2.5680 cd        1 80G     -0.103000
     11 C12         2.0710   -0.0140    3.7150 c3        1 80G      0.184100
     12 N13         2.4580    1.3790    4.1360 nz        1 80G     -0.847600
     13 S8         -2.3610   -0.2530   -1.4340 ss        1 80G      0.078200
     14 H2          1.9830   -0.2190   -0.9380 ha        1 80G      0.159500
     15 H3          3.1740   -0.2050    1.2340 ha        1 80G      0.137000
     16 H5         -0.6160    0.1720    3.3120 ha        1 80G      0.137000
     17 H6         -1.8060    0.1670    1.1390 ha        1 80G      0.159500
     18 H9         -3.2790   -0.2320   -3.6840 h4        1 80G      0.189000
     19 H10        -0.8660    0.1840   -4.6620 ha        1 80G      0.171000
     20 H11         0.9340    0.3120   -2.7660 ha        1 80G      0.157000
     21 H12         1.4170   -0.4400    4.5300 hx        1 80G      0.110200
     22 H12A        3.0210   -0.6200    3.6500 hx        1 80G      0.110200
     23 HN13        3.0640    1.7980    3.4240 hn        1 80G      0.455467
     24 HN1A        1.6180    1.9590    4.2230 hn        1 80G      0.455467
     25 H133        2.9500    1.3590    5.0320 hn        1 80G      0.455467
@<TRIPOS>BOND
     1    1    2 ar  
     2    1    6 ar  
     3    1    7 1   
     4    2    3 ar  
     5    2   14 1   
     6    3    4 ar  
     7    3   15 1   
     8    4    5 ar  
     9    4   11 1   
    10    5    6 ar  
    11    5   16 1   
    12    6   17 1   
    13    7   10 2   
    14    7   13 1   
    15    8    9 2   
    16    8   13 1   
    17    8   18 1   
    18    9   10 1   
    19    9   19 1   
    20   10   20 1   
    21   11   12 1   
    22   11   21 1   
    23   11   22 1   
    24   12   23 1   
    25   12   24 1   
    26   12   25 1   
@<TRIPOS>SUBSTRUCTURE
     1 80G         1 TEMP              0 ****  ****    0 ROOT
