@<TRIPOS>MOLECULE
80G
   25    26     1     0     0
SMALL
bcc


@<TRIPOS>ATOM
      1 C1          0.0090   -0.0160   -0.0540 ca        1 80G      0.097000
      2 C2          1.4150   -0.0900   -0.0070 ca        1 80G     -0.135500
      3 C3          2.0840   -0.0770    1.2090 ca        1 80G     -0.081000
      4 C4          1.3670    0.0090    2.4100 ca        1 80G     -0.230300
      5 C5         -0.0330    0.0740    2.3760 ca        1 80G     -0.081000
      6 C6         -0.7020    0.0630    1.1600 ca        1 80G     -0.135500
      7 C7         -0.6920   -0.0280   -1.3070 cc        1 80G     -0.145100
      8 C9         -2.3690   -0.1610   -3.0860 cc        1 80G     -0.140100
      9 C10        -1.1100    0.0890   -3.5980 cd        1 80G     -0.159000
     10 C11        -0.1330    0.1650   -2.5670 cd        1 80G     -0.103000
     11 C12         2.0810   -0.0150    3.7090 c3        1 80G      0.184100
     12 N13         2.4410    1.3810    4.1440 n4        1 80G     -0.847600
     13 S8         -2.3550   -0.2930   -1.4340 ss        1 80G      0.078200
     14 H2          1.9880   -0.1710   -0.9450 ha        1 80G      0.159500
     15 H3          3.1830   -0.1550    1.2250 ha        1 80G      0.137000
     16 H5         -0.6090    0.1190    3.3130 ha        1 80G      0.137000
     17 H6         -1.8040    0.1120    1.1420 ha        1 80G      0.159500
     18 H9         -3.2770   -0.2670   -3.6820 h4        1 80G      0.189000
     19 H10        -0.8770    0.2150   -4.6590 ha        1 80G      0.171000
     20 H11         0.9240    0.3620   -2.7640 ha        1 80G      0.157000
     21 H12         1.4380   -0.4630    4.5220 hx        1 80G      0.110200
     22 H12A        3.0440   -0.6000    3.6360 hx        1 80G      0.110200
     23 HN13        3.0370    1.8200    3.4360 hn        1 80G      0.455467
     24 HN1A        1.5890    1.9440    4.2390 hn        1 80G      0.455467
     25 H133        2.9350    1.3620    5.0390 hn        1 80G      0.455467
@<TRIPOS>BOND
     1    1    2 ar  
     2    1    6 ar  
     3    1    7 1   
     4    2    3 ar  
     5    2   14 1   
     6    3    4 ar  
     7    3   15 1   
     8    4    5 ar  
     9    4   11 1   
    10    5    6 ar  
    11    5   16 1   
    12    6   17 1   
    13    7   10 2   
    14    7   13 1   
    15    8    9 2   
    16    8   13 1   
    17    8   18 1   
    18    9   10 1   
    19    9   19 1   
    20   10   20 1   
    21   11   12 1   
    22   11   21 1   
    23   11   22 1   
    24   12   23 1   
    25   12   24 1   
    26   12   25 1   
@<TRIPOS>SUBSTRUCTURE
     1 80G         1 TEMP              0 ****  ****    0 ROOT
