@<TRIPOS>MOLECULE
812
   43    41     1     0     0
SMALL
bcc


@<TRIPOS>ATOM
      1 C1S        -6.0640   -0.9980   -2.6250 c3        1 812     -0.093000
      2 N1T        -4.9020   -2.0620   -2.2570 n3        1 812     -0.268000
      3 C1R        -6.7610   -0.8020   -1.5070 c3        1 812     -0.183000
      4 C1Q        -5.7640   -1.0900   -0.3560 c3        1 812     -0.172000
      5 C1P        -4.5110   -1.7700   -1.0400 c3        1 812     -0.048000
      6 C1O        -3.3200   -0.7830   -1.0790 c3        1 812     -0.031000
      7 O1N        -2.7090   -0.7260    0.2130 os        1 812     -0.223000
      8 C1K        -1.3420   -0.3920    0.1850 c2        1 812      0.006000
      9 C1J        -0.3810   -1.3920   -0.0520 c2        1 812     -0.119000
     10 C1I         0.9730   -1.0930    0.0490 c1        1 812     -0.177000
     11 C1H         1.3800    0.1960    0.3840 c1        1 812      0.053000
     12 C1M         0.4250    1.1930    0.6200 c1        1 812     -0.174000
     13 C1L        -0.9360    0.8940    0.5190 c1        1 812     -0.102000
     14 N1          2.8180    0.5240    0.4450 n3        1 812     -0.280000
     15 C1G         3.4850    0.6580    1.7400 c3        1 812     -0.015000
     16 C1C         4.9370    1.0710    1.5240 c2        1 812     -0.096000
     17 C1D         5.2950    2.4230    1.5620 c2        1 812     -0.110000
     18 C1E         6.6220    2.7910    1.4030 c1        1 812     -0.130000
     19 C1F         7.5830    1.8210    1.2070 c1        1 812     -0.126000
     20 C1A         7.2170    0.4730    1.1700 c1        1 812     -0.126000
     21 C1B         5.8980    0.1100    1.3280 c1        1 812     -0.127000
     22 H1S        -6.6650   -1.3780   -3.3430 h1        1 812      0.086000
     23 H1SA       -5.6670   -0.1540   -2.9300 h1        1 812      0.086000
     24 HN1T       -4.1960   -1.9640   -2.8430 hn        1 812      0.140000
     25 H1R        -7.5430   -1.4430   -1.4640 hc        1 812      0.086000
     26 H1RA       -7.0870    0.1520   -1.4580 hc        1 812      0.086000
     27 H1Q        -6.1620   -1.6970    0.2870 hc        1 812      0.094000
     28 H1QA       -5.4950   -0.2330    0.0920 hc        1 812      0.094000
     29 H1P        -4.2510   -2.6130   -0.5430 h1        1 812      0.118000
     30 H1O        -2.6580   -1.0920   -1.7420 h1        1 812      0.077000
     31 H1OA       -3.6460    0.1280   -1.3340 h1        1 812      0.077000
     32 H1J        -0.6720   -2.3200   -0.2920 ha        1 812      0.141000
     33 H1I         1.6460   -1.7950   -0.1170 ha        1 812      0.133000
     34 H1M         0.7080    2.0900    0.8540 ha        1 812      0.136000
     35 H1L        -1.6250    1.6130    0.6900 ha        1 812      0.144000
     36 HN1         3.3000    0.6530   -0.3440 hn        1 812      0.195000
     37 H1G         3.4550   -0.2240    2.2260 h1        1 812      0.088500
     38 H1GA        3.0320    1.3370    2.2730 h1        1 812      0.088500
     39 H1D         4.6350    3.0800    1.6980 ha        1 812      0.137000
     40 H1E         6.8870    3.7740    1.4300 ha        1 812      0.134000
     41 H1F         8.5160    2.0740    1.0940 ha        1 812      0.134000
     42 H1A         7.8990   -0.2150    1.0310 ha        1 812      0.134000
     43 H1B         5.6490   -0.8220    1.3040 ha        1 812      0.132000
@<TRIPOS>BOND
     1    1    2 1   
     2    1    3 1   
     3    1   22 1   
     4    1   23 1   
     5    2    5 1   
     6    2   24 1   
     7    3    4 1   
     8    3   25 1   
     9    3   26 1   
    10    4    5 1   
    11    4   27 1   
    12    4   28 1   
    13    5    6 1   
    14    5   29 1   
    15    6    7 1   
    16    6   30 1   
    17    6   31 1   
    18    7    8 1   
    19    8    9 1   
    20    8   13 1   
    21    9   10 1   
    22    9   32 1   
    23   10   33 1   
    24   11   12 1   
    25   11   14 1   
    26   12   34 1   
    27   13   35 1   
    28   14   15 1   
    29   14   36 1   
    30   15   16 1   
    31   15   37 1   
    32   15   38 1   
    33   16   17 1   
    34   16   21 1   
    35   17   18 1   
    36   17   39 1   
    37   18   40 1   
    38   19   20 1   
    39   19   41 1   
    40   20   42 1   
    41   21   43 1   
@<TRIPOS>SUBSTRUCTURE
     1 812         1 TEMP              0 ****  ****    0 ROOT
