@<TRIPOS>MOLECULE
812
   43    45     1     0     0
SMALL
bcc


@<TRIPOS>ATOM
      1 C1S         6.7910    0.5860   -1.3840 c3        1 812      0.154800
      2 N1T         5.5060    0.9350   -0.7900 n3        1 812     -0.810200
      3 C1R         7.3870   -0.6200   -0.6400 c3        1 812     -0.096400
      4 C1Q         6.3140   -1.0720    0.3420 c3        1 812     -0.088400
      5 C1P         5.2470    0.0440    0.3460 c3        1 812      0.164500
      6 C1O         3.8390   -0.5720    0.2840 c3        1 812      0.137400
      7 O1N         2.9570    0.4360    0.7900 os        1 812     -0.332900
      8 C1K         1.6070    0.1510    0.6980 ca        1 812      0.095100
      9 C1J         1.0760   -1.0910    0.3370 ca        1 812     -0.147500
     10 C1I        -0.3030   -1.2660    0.2980 ca        1 812     -0.149500
     11 C1H        -1.1810   -0.2110    0.6300 ca        1 812      0.099600
     12 C1M        -0.6220    1.0380    0.9910 ca        1 812     -0.149500
     13 C1L         0.7520    1.2180    1.0240 ca        1 812     -0.147500
     14 N1         -2.5710   -0.4410    0.6860 nh        1 812     -0.716600
     15 C1G        -3.4380    0.6930    0.4270 c3        1 812      0.223100
     16 C1C        -4.8080    0.2990   -0.0430 ca        1 812     -0.106300
     17 C1D        -5.5870   -0.5850    0.7120 ca        1 812     -0.117500
     18 C1E        -6.8710   -0.9230    0.2860 ca        1 812     -0.132000
     19 C1F        -7.3840   -0.3800   -0.8920 ca        1 812     -0.125000
     20 C1A        -6.6100    0.5020   -1.6450 ca        1 812     -0.132000
     21 C1B        -5.3240    0.8400   -1.2250 ca        1 812     -0.117500
     22 H1S         6.5990    0.3210   -2.4610 h1        1 812      0.041200
     23 H1SA        7.5110    1.4490   -1.3710 h1        1 812      0.041200
     24 HN1T        5.4790    1.8920   -0.5000 hn        1 812      0.366800
     25 H1R         7.6490   -1.4340   -1.3560 hc        1 812      0.047700
     26 H1RA        8.3210   -0.3240   -0.1020 hc        1 812      0.047700
     27 H1Q         5.8690   -2.0440    0.0170 hc        1 812      0.049700
     28 H1QA        6.7300   -1.2120    1.3690 hc        1 812      0.049700
     29 H1P         5.3110    0.6130    1.3210 h1        1 812      0.048700
     30 H1O         3.5480   -0.8560   -0.7600 h1        1 812      0.045700
     31 H1OA        3.7910   -1.4690    0.9560 h1        1 812      0.045700
     32 H1J         1.7320   -1.9350    0.0810 ha        1 812      0.140500
     33 H1I        -0.7040   -2.2510    0.0090 ha        1 812      0.133000
     34 H1M        -1.2760    1.8810    1.2600 ha        1 812      0.133000
     35 H1L         1.1850    2.1890    1.3050 ha        1 812      0.140500
     36 HN1        -2.8440   -1.2590    0.1760 hn        1 812      0.390800
     37 H1G        -3.5430    1.2580    1.4000 h1        1 812      0.048200
     38 H1GA       -2.9770    1.4030   -0.3230 h1        1 812      0.048200
     39 H1D        -5.1840   -1.0080    1.6440 ha        1 812      0.138500
     40 H1E        -7.4790   -1.6190    0.8820 ha        1 812      0.133000
     41 H1F        -8.3970   -0.6460   -1.2250 ha        1 812      0.132000
     42 H1A        -7.0130    0.9330   -2.5740 ha        1 812      0.133000
     43 H1B        -4.7170    1.5350   -1.8240 ha        1 812      0.138500
@<TRIPOS>BOND
     1    1    2 1   
     2    1    3 1   
     3    1   22 1   
     4    1   23 1   
     5    2    5 1   
     6    2   24 1   
     7    3    4 1   
     8    3   25 1   
     9    3   26 1   
    10    4    5 1   
    11    4   27 1   
    12    4   28 1   
    13    5    6 1   
    14    5   29 1   
    15    6    7 1   
    16    6   30 1   
    17    6   31 1   
    18    7    8 1   
    19    8    9 ar  
    20    8   13 ar  
    21    9   10 ar  
    22    9   32 1   
    23   10   11 ar  
    24   10   33 1   
    25   11   12 ar  
    26   11   14 1   
    27   12   13 ar  
    28   12   34 1   
    29   13   35 1   
    30   14   15 1   
    31   14   36 1   
    32   15   16 1   
    33   15   37 1   
    34   15   38 1   
    35   16   17 ar  
    36   16   21 ar  
    37   17   18 ar  
    38   17   39 1   
    39   18   19 ar  
    40   18   40 1   
    41   19   20 ar  
    42   19   41 1   
    43   20   21 ar  
    44   20   42 1   
    45   21   43 1   
@<TRIPOS>SUBSTRUCTURE
     1 812         1 TEMP              0 ****  ****    0 ROOT
