@<TRIPOS>MOLECULE
812
   43    45     1     0     0
SMALL
bcc


@<TRIPOS>ATOM
      1 C1S         0.2820    0.6910   -0.3540 c3        1 812      0.154800
      2 N1T         1.6070    0.1120   -0.1790 n3        1 812     -0.810200
      3 C1R        -0.3540    0.9370    1.0240 c3        1 812     -0.096400
      4 C1Q         0.7280    0.6110    2.0440 c3        1 812     -0.088400
      5 C1P         1.8590   -0.0830    1.2540 c3        1 812      0.164500
      6 C1O         3.2240    0.4820    1.6800 c3        1 812      0.137400
      7 O1N         4.1830   -0.5150    1.3110 os        1 812     -0.332900
      8 C1K         5.5090   -0.1620    1.4810 ca        1 812      0.095100
      9 C1J         5.9510    0.9890    2.1410 ca        1 812     -0.147500
     10 C1I         7.3150    1.2310    2.2680 ca        1 812     -0.149500
     11 C1H         8.2670    0.3250    1.7500 ca        1 812      0.099600
     12 C1M         7.7970   -0.8320    1.0840 ca        1 812     -0.149500
     13 C1L         6.4390   -1.0730    0.9490 ca        1 812     -0.147500
     14 N1          9.6410    0.5360    1.9820 nh        1 812     -0.716600
     15 C1G        10.5660    0.0020    1.0000 c3        1 812      0.223100
     16 C1C        11.8930    0.7030    0.9900 ca        1 812     -0.106300
     17 C1D        12.6420    0.8150    2.1660 ca        1 812     -0.117500
     18 C1E        13.8880    1.4400    2.1450 ca        1 812     -0.132000
     19 C1F        14.3930    1.9530    0.9500 ca        1 812     -0.125000
     20 C1A        13.6490    1.8410   -0.2240 ca        1 812     -0.132000
     21 C1B        12.4010    1.2200   -0.2060 ca        1 812     -0.117500
     22 H1S        -0.3850    0.0390   -0.9820 h1        1 812      0.040700
     23 H1SA        0.4140    1.6660   -0.8990 h1        1 812      0.040700
     24 HN1T        1.7040   -0.7530   -0.6720 hn        1 812      0.366800
     25 H1R        -0.6930    1.9970    1.1180 hc        1 812      0.047700
     26 H1RA       -1.2470    0.2800    1.1650 hc        1 812      0.047700
     27 H1Q         0.3470   -0.0660    2.8460 hc        1 812      0.049700
     28 H1QA        1.1020    1.5450    2.5320 hc        1 812      0.049700
     29 H1P         1.8670   -1.1840    1.5110 h1        1 812      0.048700
     30 H1O         3.2460    0.6140    2.7950 h1        1 812      0.045700
     31 H1OA        3.4570    1.4530    1.1730 h1        1 812      0.045700
     32 H1J         5.2370    1.7100    2.5620 ha        1 812      0.140500
     33 H1I         7.6450    2.1430    2.7890 ha        1 812      0.133000
     34 H1M         8.5100   -1.5620    0.6710 ha        1 812      0.133000
     35 H1L         6.0760   -1.9730    0.4320 ha        1 812      0.140500
     36 HN1         9.8450    1.4850    2.2270 hn        1 812      0.390800
     37 H1G        10.1240    0.0270   -0.0410 h1        1 812      0.047700
     38 H1GA       10.7370   -1.0840    1.2640 h1        1 812      0.047700
     39 H1D        12.2460    0.4040    3.1080 ha        1 812      0.138500
     40 H1E        14.4730    1.5260    3.0720 ha        1 812      0.133000
     41 H1F        15.3770    2.4440    0.9340 ha        1 812      0.132000
     42 H1A        14.0460    2.2440   -1.1680 ha        1 812      0.133000
     43 H1B        11.8170    1.1370   -1.1350 ha        1 812      0.138500
@<TRIPOS>BOND
     1    1    2 1   
     2    1    3 1   
     3    1   22 1   
     4    1   23 1   
     5    2    5 1   
     6    2   24 1   
     7    3    4 1   
     8    3   25 1   
     9    3   26 1   
    10    4    5 1   
    11    4   27 1   
    12    4   28 1   
    13    5    6 1   
    14    5   29 1   
    15    6    7 1   
    16    6   30 1   
    17    6   31 1   
    18    7    8 1   
    19    8    9 ar  
    20    8   13 ar  
    21    9   10 ar  
    22    9   32 1   
    23   10   11 ar  
    24   10   33 1   
    25   11   12 ar  
    26   11   14 1   
    27   12   13 ar  
    28   12   34 1   
    29   13   35 1   
    30   14   15 1   
    31   14   36 1   
    32   15   16 1   
    33   15   37 1   
    34   15   38 1   
    35   16   17 ar  
    36   16   21 ar  
    37   17   18 ar  
    38   17   39 1   
    39   18   19 ar  
    40   18   40 1   
    41   19   20 ar  
    42   19   41 1   
    43   20   21 ar  
    44   20   42 1   
    45   21   43 1   
@<TRIPOS>SUBSTRUCTURE
     1 812         1 TEMP              0 ****  ****    0 ROOT
