@<TRIPOS>MOLECULE
812
   43    45     1     0     0
SMALL
bcc


@<TRIPOS>ATOM
      1 C1S         0.2860    0.6970   -0.3560 c3        1 812      0.154800
      2 N1T         1.6110    0.1160   -0.1830 n7        1 812     -0.810200
      3 C1R        -0.3530    0.9310    1.0230 c3        1 812     -0.096400
      4 C1Q         0.7280    0.5960    2.0420 c3        1 812     -0.088400
      5 C1P         1.8600   -0.0900    1.2480 c3        1 812      0.164500
      6 C1O         3.2240    0.4720    1.6810 c3        1 812      0.137400
      7 O1N         4.1850   -0.5220    1.3060 os        1 812     -0.332900
      8 C1K         5.5100   -0.1680    1.4780 ca        1 812      0.095100
      9 C1J         5.9510    0.9770    2.1480 ca        1 812     -0.147500
     10 C1I         7.3140    1.2200    2.2770 ca        1 812     -0.149500
     11 C1H         8.2670    0.3200    1.7510 ca        1 812      0.099600
     12 C1M         7.7990   -0.8320    1.0750 ca        1 812     -0.149500
     13 C1L         6.4410   -1.0730    0.9380 ca        1 812     -0.147500
     14 N1          9.6410    0.5310    1.9840 nu        1 812     -0.716600
     15 C1G        10.5660    0.0080    0.9970 c3        1 812      0.223100
     16 C1C        11.8920    0.7120    0.9910 ca        1 812     -0.106300
     17 C1D        12.6410    0.8160    2.1670 ca        1 812     -0.117500
     18 C1E        13.8860    1.4450    2.1490 ca        1 812     -0.132000
     19 C1F        14.3890    1.9690    0.9580 ca        1 812     -0.125000
     20 C1A        13.6440    1.8640   -0.2160 ca        1 812     -0.132000
     21 C1B        12.3970    1.2400   -0.2010 ca        1 812     -0.117500
     22 H1S        -0.3790    0.0500   -0.9910 h1        1 812      0.041200
     23 H1SA        0.4190    1.6760   -0.8930 h1        1 812      0.041200
     24 HN1T        1.7080   -0.7450   -0.6840 hn        1 812      0.366800
     25 H1R        -0.6930    1.9890    1.1250 hc        1 812      0.047700
     26 H1RA       -1.2460    0.2720    1.1570 hc        1 812      0.047700
     27 H1Q         1.1000    1.5260    2.5390 hc        1 812      0.049700
     28 H1QA        0.3450   -0.0870    2.8370 hc        1 812      0.049700
     29 H1P         1.8690   -1.1940    1.4960 h1        1 812      0.048700
     30 H1O         3.2440    0.5940    2.7970 h1        1 812      0.045700
     31 H1OA        3.4570    1.4470    1.1820 h1        1 812      0.045700
     32 H1J         5.2360    1.6940    2.5760 ha        1 812      0.140500
     33 H1I         7.6430    2.1280    2.8060 ha        1 812      0.133000
     34 H1M         8.5130   -1.5570    0.6560 ha        1 812      0.133000
     35 H1L         6.0790   -1.9690    0.4130 ha        1 812      0.140500
     36 HN1         9.8440    1.4780    2.2380 hn        1 812      0.390800
     37 H1G        10.1230    0.0400   -0.0430 h1        1 812      0.047700
     38 H1GA       10.7410   -1.0800    1.2510 h1        1 812      0.047700
     39 H1D        12.2470    0.3970    3.1060 ha        1 812      0.138500
     40 H1E        14.4720    1.5250    3.0760 ha        1 812      0.133000
     41 H1F        15.3710    2.4620    0.9450 ha        1 812      0.132000
     42 H1A        14.0380    2.2760   -1.1570 ha        1 812      0.133000
     43 H1B        11.8120    1.1630   -1.1300 ha        1 812      0.138500
@<TRIPOS>BOND
     1    1    2 1   
     2    1    3 1   
     3    1   22 1   
     4    1   23 1   
     5    2    5 1   
     6    2   24 1   
     7    3    4 1   
     8    3   25 1   
     9    3   26 1   
    10    4    5 1   
    11    4   27 1   
    12    4   28 1   
    13    5    6 1   
    14    5   29 1   
    15    6    7 1   
    16    6   30 1   
    17    6   31 1   
    18    7    8 1   
    19    8    9 ar  
    20    8   13 ar  
    21    9   10 ar  
    22    9   32 1   
    23   10   11 ar  
    24   10   33 1   
    25   11   12 ar  
    26   11   14 1   
    27   12   13 ar  
    28   12   34 1   
    29   13   35 1   
    30   14   15 1   
    31   14   36 1   
    32   15   16 1   
    33   15   37 1   
    34   15   38 1   
    35   16   17 ar  
    36   16   21 ar  
    37   17   18 ar  
    38   17   39 1   
    39   18   19 ar  
    40   18   40 1   
    41   19   20 ar  
    42   19   41 1   
    43   20   21 ar  
    44   20   42 1   
    45   21   43 1   
@<TRIPOS>SUBSTRUCTURE
     1 812         1 TEMP              0 ****  ****    0 ROOT
