@<TRIPOS>MOLECULE
812
   44    46     1     0     0
SMALL
bcc


@<TRIPOS>ATOM
      1 C1S         0.1960    1.0640    0.2090 c3        1 812      0.148800
      2 N1T         1.4500    0.3630   -0.0440 n3        1 812     -0.811200
      3 C1R        -0.3140    0.7120    1.6160 c3        1 812     -0.101400
      4 C1Q         0.8150   -0.0590    2.2870 c3        1 812     -0.092400
      5 C1P         1.8720   -0.3120    1.1870 c3        1 812      0.163500
      6 C1O         3.2400    0.2030    1.6700 c3        1 812      0.128400
      7 O1N         4.2080   -0.4270    0.8040 os        1 812     -0.297900
      8 C1K         5.4870    0.0320    0.8670 ca        1 812      0.210100
      9 C1J         5.9630    0.9700    1.8000 ca        1 812     -0.173500
     10 C1I         7.2960    1.3570    1.7740 ca        1 812     -0.059500
     11 C1H         8.1650    0.8090    0.8160 ca        1 812     -0.129400
     12 C1M         7.6940   -0.1400   -0.1170 ca        1 812     -0.059500
     13 C1L         6.3670   -0.5250   -0.0930 ca        1 812     -0.173500
     14 N1          9.5650    1.2240    0.7770 n4        1 812     -0.619400
     15 C1G        10.4670    0.2660    1.5120 c3        1 812      0.175100
     16 C1C        11.8850    0.7120    1.4330 ca        1 812     -0.192300
     17 C1D        12.4260    1.5090    2.4490 ca        1 812     -0.101000
     18 C1E        13.7640    1.8930    2.3910 ca        1 812     -0.118500
     19 C1F        14.5640    1.4850    1.3220 ca        1 812     -0.079000
     20 C1A        14.0260    0.6880    0.3090 ca        1 812     -0.118500
     21 C1B        12.6880    0.3000    0.3630 ca        1 812     -0.101000
     22 H1S        -0.5780    0.8180   -0.5670 h1        1 812      0.053200
     23 H1SA        0.4100    2.1660    0.1400 h1        1 812      0.053200
     24 HN1T        1.3550   -0.2990   -0.7890 hn        1 812      0.368800
     25 H1R        -0.5670    1.6390    2.1850 hc        1 812      0.058200
     26 H1RA       -1.2390    0.0880    1.5530 hc        1 812      0.058200
     27 H1Q         0.4530   -1.0320    2.6990 hc        1 812      0.054700
     28 H1QA        1.2470    0.5300    3.1330 hc        1 812      0.054700
     29 H1P         1.9820   -1.4230    1.0140 h1        1 812      0.060700
     30 H1O         3.4380   -0.1370    2.7200 h1        1 812      0.057700
     31 H1OA        3.3190    1.3160    1.5890 h1        1 812      0.057700
     32 H1J         5.2890    1.4050    2.5550 ha        1 812      0.176500
     33 H1I         7.6520    2.0970    2.5110 ha        1 812      0.151000
     34 H1M         8.3680   -0.5770   -0.8720 ha        1 812      0.151000
     35 H1L         5.9750   -1.2590   -0.8160 ha        1 812      0.176500
     36 HN1         9.6570    2.1560    1.1970 hn        1 812      0.449800
     37 H1G        10.1100    0.2180    2.5800 hx        1 812      0.108700
     38 H1GA       10.3300   -0.7500    1.0420 hx        1 812      0.108700
     39 H1D        11.8040    1.8190    3.3020 ha        1 812      0.137500
     40 H1E        14.1920    2.5150    3.1930 ha        1 812      0.159000
     41 H1F        15.6230    1.7870    1.2800 ha        1 812      0.160000
     42 H1A        14.6600    0.3590   -0.5300 ha        1 812      0.159000
     43 H1B        12.2740   -0.3440   -0.4280 ha        1 812      0.137500
     44 H12         9.8720    1.2840   -0.2020 hn        1 812      0.449800
@<TRIPOS>BOND
     1    1    2 1   
     2    1    3 1   
     3    1   22 1   
     4    1   23 1   
     5    2    5 1   
     6    2   24 1   
     7    3    4 1   
     8    3   25 1   
     9    3   26 1   
    10    4    5 1   
    11    4   27 1   
    12    4   28 1   
    13    5    6 1   
    14    5   29 1   
    15    6    7 1   
    16    6   30 1   
    17    6   31 1   
    18    7    8 1   
    19    8    9 ar  
    20    8   13 ar  
    21    9   10 ar  
    22    9   32 1   
    23   10   11 ar  
    24   10   33 1   
    25   11   12 ar  
    26   11   14 1   
    27   12   13 ar  
    28   12   34 1   
    29   13   35 1   
    30   14   15 1   
    31   14   36 1   
    32   14   44 1   
    33   15   16 1   
    34   15   37 1   
    35   15   38 1   
    36   16   17 ar  
    37   16   21 ar  
    38   17   18 ar  
    39   17   39 1   
    40   18   19 ar  
    41   18   40 1   
    42   19   20 ar  
    43   19   41 1   
    44   20   21 ar  
    45   20   42 1   
    46   21   43 1   
@<TRIPOS>SUBSTRUCTURE
     1 812         1 TEMP              0 ****  ****    0 ROOT
