@<TRIPOS>MOLECULE
815
   50    43     1     0     0
SMALL
bcc


@<TRIPOS>ATOM
      1 C1          1.7440   -3.0810    0.8550 c1        1 815     -0.096000
      2 C2          1.1910   -4.3540    0.9540 c1        1 815     -0.132000
      3 C3          0.6670   -4.9930   -0.2010 c1        1 815      0.020000
      4 C4          0.7060   -4.3600   -1.4080 c1        1 815     -0.117000
      5 C5          1.2700   -3.0620   -1.5080 c1        1 815     -0.083000
      6 C6          1.7840   -2.4350   -0.3750 c1        1 815     -0.133000
      7 C10         0.1500   -6.2840   -0.1110 c2        1 815     -0.215000
      8 C11        -0.3260   -6.9250   -1.2530 c1        1 815     -0.033000
      9 N12        -0.2860   -6.2840   -2.4720 n1        1 815     -0.215000
     10 C13         0.2220   -5.0140   -2.5640 c2        1 815      0.129000
     11 C16        -2.8530    5.1430    2.3010 c1        1 815     -0.217500
     12 C17        -3.1300    6.3930    2.7800 c1        1 815     -0.111000
     13 C18        -2.2670    6.9970    3.6720 c1        1 815     -0.111000
     14 C19        -1.0960    6.3230    4.0900 c1        1 815     -0.074000
     15 N20        -0.8150    5.0620    3.6090 n1        1 815     -0.077000
     16 C21        -1.6660    4.4620    2.7270 c1        1 815     -0.217500
     17 C25        -1.6220    3.0210    2.0110 c1        1 815      0.034000
     18 C26        -2.7970    2.8930    1.1760 c1        1 815     -1.151000
     19 S27        -3.6210    4.1980    1.3100 s         1 815      0.717000
     20 N28         2.1310   -0.0220   -0.4650 n         1 815     -0.314000
     21 C29         0.9840    0.2150    0.1090 c2        1 815      0.277000
     22 C30         0.1740    1.1290   -0.9190 c3        1 815      0.018000
     23 C31         1.2870    1.5620   -1.9130 c3        1 815     -0.187000
     24 C32         2.4540    1.1870   -1.3290 c3        1 815     -0.040000
     25 N37        -0.5070    2.1860   -0.3280 n3        1 815     -0.867000
     26 S38        -2.1720    2.2190   -0.3510 s4        1 815      2.106800
     27 O39        -2.6640    2.9540   -1.4880 o         1 815     -0.538900
     28 O40        -2.7170    0.9110   -0.6050 o         1 815     -0.538900
     29 O41         0.5100   -0.4040    1.0450 o         1 815     -0.350000
     30 N42        -0.0300   -4.9700   -3.9760 n3        1 815     -0.322000
     31 C43         2.8140   -1.2920   -0.4980 c3        1 815      0.019000
     32 H11         2.1060   -2.6390    1.6550 ha        1 815      0.158000
     33 H21         1.1630   -4.8110    1.8250 ha        1 815      0.142000
     34 H51         1.2990   -2.6050   -2.3770 ha        1 815      0.129000
     35 H101        0.1210   -6.7420    0.7570 ha        1 815      0.146000
     36 H111       -0.6910   -7.8360   -1.1890 ha        1 815      0.159000
     37 H171       -3.9410    6.8600    2.4910 ha        1 815      0.146500
     38 H181       -2.4650    7.8930    4.0160 ha        1 815      0.146500
     39 H191       -0.4840    6.7510    4.7230 ha        1 815      0.165000
     40 H251       -0.9230    2.3490    2.1220 DU        1 815      0.206000
     41 H301       -0.5520    0.6410   -1.3610 h1        1 815      0.155000
     42 H311        1.2680    2.5370   -2.0430 hc        1 815      0.109000
     43 H312        1.1730    1.1010   -2.7740 hc        1 815      0.109000
     44 H321        3.1150    0.9430   -2.0180 h1        1 815      0.092500
     45 H322        2.8030    1.9190   -0.7690 h1        1 815      0.092500
     46 H371       -0.0410    2.8950    0.0170 hn        1 815      0.245000
     47 H421        0.4120   -4.3630   -4.5030 hn        1 815      0.199500
     48 H422       -0.6360   -5.5490   -4.3530 hn        1 815      0.199500
     49 H431        3.3020   -1.3800   -1.3480 h1        1 815      0.109500
     50 H432        3.4500   -1.3420    0.2510 h1        1 815      0.109500
@<TRIPOS>BOND
     1    1    6 1   
     2    1   32 1   
     3    2    3 1   
     4    2   33 1   
     5    3    7 1   
     6    4    5 1   
     7    4   10 1   
     8    5   34 1   
     9    6   31 1   
    10    7    8 1   
    11    7   35 1   
    12    8   36 1   
    13    9   10 1   
    14   10   30 1   
    15   11   16 1   
    16   12   13 1   
    17   12   37 1   
    18   13   38 1   
    19   14   15 1   
    20   14   39 1   
    21   17   18 1   
    22   18   19 1   
    23   20   21 1   
    24   20   24 1   
    25   20   31 1   
    26   21   22 1   
    27   21   29 1   
    28   22   23 1   
    29   22   25 1   
    30   22   41 1   
    31   23   24 1   
    32   23   42 1   
    33   23   43 1   
    34   24   44 1   
    35   24   45 1   
    36   25   26 1   
    37   25   46 1   
    38   26   27 1   
    39   26   28 1   
    40   30   47 1   
    41   30   48 1   
    42   31   49 1   
    43   31   50 1   
@<TRIPOS>SUBSTRUCTURE
     1 815         1 TEMP              0 ****  ****    0 ROOT
