@<TRIPOS>MOLECULE
815
   51    55     1     0     0
SMALL
bcc


@<TRIPOS>ATOM
      1 C1         -0.5510    0.2050    0.6410 ca        1 815     -0.108000
      2 C2          0.7420    0.3900    0.2270 ca        1 815     -0.128000
      3 C3          1.8180    0.3260    1.1570 ca        1 815      0.032000
      4 C4          1.5390    0.0620    2.5250 ca        1 815     -0.195300
      5 C5          0.1930   -0.1240    2.9260 ca        1 815     -0.062000
      6 C6         -0.8330   -0.0550    2.0070 ca        1 815     -0.168300
      7 C10         3.1590    0.5320    0.7500 ca        1 815     -0.295300
      8 C11         4.1570    0.4670    1.7080 ca        1 815      0.456200
      9 N12         3.9460    0.2080    3.0220 nb        1 815     -0.736000
     10 C13         2.6720    0.0220    3.4470 ca        1 815      0.671200
     11 C16        -6.1340   -3.2420   -4.5470 ca        1 815     -0.185400
     12 C17        -6.7930   -2.5160   -5.5730 ca        1 815     -0.085000
     13 C18        -6.2990   -2.5960   -6.8500 ca        1 815     -0.164300
     14 C19        -5.1350   -3.4050   -7.1150 ca        1 815      0.421200
     15 N20        -4.4850   -4.0970   -6.1990 nb        1 815     -0.594000
     16 C21        -4.9780   -4.0250   -4.9130 ca        1 815      0.371100
     17 C25        -4.4500   -4.6860   -3.7790 cc        1 815     -0.049800
     18 C26        -5.1800   -4.4020   -2.5980 cd        1 815     -0.673500
     19 S27        -6.4610   -3.3690   -2.9520 ss        1 815      0.382500
     20 N28        -2.8850   -1.4500    2.0750 n         1 815     -0.429800
     21 C29        -3.4700   -1.6960    0.8560 c         1 815      0.680500
     22 C30        -3.8260   -3.2150    0.7530 c3        1 815      0.014500
     23 C31        -3.0330   -3.8630    1.9040 c3        1 815     -0.105400
     24 C32        -2.5680   -2.6800    2.7840 c3        1 815      0.078000
     25 N37        -3.5550   -3.7330   -0.6020 ny        1 815     -0.682900
     26 S38        -4.8010   -5.0910   -1.2340 sy        1 815      1.532800
     27 O39        -3.9220   -6.1480   -1.3320 o         1 815     -0.575300
     28 O40        -5.7750   -5.0650   -0.2610 o         1 815     -0.575300
     29 O41        -3.7390   -0.9050   -0.0610 o         1 815     -0.619500
     30 N42         2.4450   -0.1390    4.8120 nv        1 815     -0.934500
     31 C43        -2.2630   -0.1960    2.4350 c3        1 815      0.146300
     32 H11        -1.3920    0.2720   -0.0690 ha        1 815      0.142000
     33 H21         0.9740    0.6050   -0.8270 ha        1 815      0.144000
     34 H51        -0.0510   -0.3020    3.9850 ha        1 815      0.130000
     35 H101        3.3900    0.7450   -0.3010 ha        1 815      0.151000
     36 H111        5.2210    0.6220    1.4450 h4        1 815      0.032100
     37 H191       -4.7390   -3.4660   -8.1490 h4        1 815      0.057100
     38 H251       -3.5830   -5.3630   -3.8210 ha        1 815      0.203000
     39 H301       -4.9380   -3.3150    0.9490 hx        1 815      0.143700
     40 H311       -3.6900   -4.5520    2.4900 hc        1 815      0.085200
     41 H312       -2.1470   -4.4440    1.5470 hc        1 815      0.085200
     42 H321       -1.4630   -2.7430    2.9860 h1        1 815      0.077700
     43 H322       -3.1120   -2.6840    3.7690 h1        1 815      0.077700
     44 H371       -2.6150   -4.1260   -0.6280 hn        1 815      0.451800
     45 H421        1.6710   -0.7080    5.0600 hn        1 815      0.417800
     46 H422        3.2470   -0.2400    5.3950 hn        1 815      0.417800
     47 H431       -2.3440   -0.0990    3.5560 h1        1 815      0.083700
     48 H432       -2.8720    0.6270    1.9560 h1        1 815      0.083700
     49 H171       -7.6800   -1.9080   -5.3340 ha        1 815      0.169000
     50 H372       -3.5700   -2.9350   -1.2440 hn        1 815      0.451800
     51 H181       -6.7710   -2.0560   -7.6860 ha        1 815      0.177000
@<TRIPOS>BOND
     1    1    2 ar  
     2    1    6 ar  
     3    1   32 1   
     4    2    3 ar  
     5    2   33 1   
     6    3    4 ar  
     7    3    7 ar  
     8    4    5 ar  
     9    4   10 ar  
    10    5    6 ar  
    11    5   34 1   
    12    6   31 1   
    13    7    8 ar  
    14    7   35 1   
    15    8    9 ar  
    16    8   36 1   
    17    9   10 ar  
    18   10   30 1   
    19   11   12 ar  
    20   11   16 ar  
    21   11   19 1   
    22   12   13 ar  
    23   12   49 1   
    24   13   14 ar  
    25   13   51 1   
    26   14   15 ar  
    27   14   37 1   
    28   15   16 ar  
    29   16   17 1   
    30   17   18 2   
    31   17   38 1   
    32   18   19 1   
    33   18   26 1   
    34   20   21 1   
    35   20   24 1   
    36   20   31 1   
    37   21   22 1   
    38   21   29 2   
    39   22   23 1   
    40   22   25 1   
    41   22   39 1   
    42   23   24 1   
    43   23   40 1   
    44   23   41 1   
    45   24   42 1   
    46   24   43 1   
    47   25   26 1   
    48   25   44 1   
    49   25   50 1   
    50   26   27 2   
    51   26   28 2   
    52   30   45 1   
    53   30   46 1   
    54   31   47 1   
    55   31   48 1   
@<TRIPOS>SUBSTRUCTURE
     1 815         1 TEMP              0 ****  ****    0 ROOT
