@<TRIPOS>MOLECULE
815
   51    55     1     0     0
SMALL
bcc


@<TRIPOS>ATOM
      1 C1         -0.5420    0.1900    0.6440 ca        1 815     -0.108000
      2 C2          0.7530    0.3670    0.2360 ca        1 815     -0.128000
      3 C3          1.8250    0.3000    1.1710 ca        1 815      0.032000
      4 C4          1.5380    0.0410    2.5380 ca        1 815     -0.195300
      5 C5          0.1890   -0.1370    2.9330 ca        1 815     -0.062000
      6 C6         -0.8320   -0.0650    2.0100 ca        1 815     -0.168300
      7 C10         3.1690    0.4980    0.7700 ca        1 815     -0.295300
      8 C11         4.1620    0.4300    1.7340 ca        1 815      0.456200
      9 N12         3.9430    0.1750    3.0470 nb        1 815     -0.736000
     10 C13         2.6660   -0.0040    3.4660 ca        1 815      0.671200
     11 C16        -6.1230   -3.2360   -4.5640 ca        1 815     -0.185400
     12 C17        -6.7740   -2.5100   -5.5940 ca        1 815     -0.085000
     13 C18        -6.2750   -2.5960   -6.8690 ca        1 815     -0.164300
     14 C19        -5.1140   -3.4100   -7.1270 ca        1 815      0.421200
     15 N20        -4.4710   -4.1040   -6.2070 nb        1 815     -0.594000
     16 C21        -4.9690   -4.0260   -4.9230 ca        1 815      0.371100
     17 C25        -4.4490   -4.6880   -3.7850 cc        1 815     -0.049800
     18 C26        -5.1820   -4.3970   -2.6080 cd        1 815     -0.673500
     19 S27        -6.4570   -3.3580   -2.9690 ss        1 815      0.382500
     20 N28        -2.8920   -1.4480    2.0700 n         1 815     -0.429800
     21 C29        -3.4740   -1.6930    0.8490 c         1 815      0.680500
     22 C30        -3.8370   -3.2100    0.7470 c3        1 815      0.014500
     23 C31        -3.0530   -3.8600    1.9020 c3        1 815     -0.105400
     24 C32        -2.5850   -2.6790    2.7830 c3        1 815      0.078000
     25 N37        -3.5630   -3.7320   -0.6060 n4        1 815     -0.682900
     26 S38        -4.8120   -5.0850   -1.2410 sy        1 815      1.531800
     27 O39        -3.9380   -6.1470   -1.3330 o         1 815     -0.575300
     28 O40        -5.7900   -5.0530   -0.2730 o         1 815     -0.575300
     29 O41        -3.7330   -0.9020   -0.0710 o         1 815     -0.619500
     30 N42         2.4320   -0.1600    4.8310 nh        1 815     -0.934500
     31 C43        -2.2650   -0.1980    2.4310 c3        1 815      0.146300
     32 H11        -1.3790    0.2600   -0.0700 ha        1 815      0.142000
     33 H21         0.9920    0.5790   -0.8180 ha        1 815      0.144000
     34 H51        -0.0610   -0.3110    3.9920 ha        1 815      0.130000
     35 H101        3.4060    0.7070   -0.2800 ha        1 815      0.151000
     36 H111        5.2280    0.5780    1.4750 h4        1 815      0.032100
     37 H191       -4.7140   -3.4750   -8.1590 h4        1 815      0.057100
     38 H251       -3.5860   -5.3690   -3.8220 ha        1 815      0.203000
     39 H301       -4.9500   -3.3040    0.9380 hx        1 815      0.143700
     40 H311       -3.7150   -4.5460    2.4870 hc        1 815      0.085200
     41 H312       -2.1680   -4.4470    1.5500 hc        1 815      0.085200
     42 H321       -1.4810   -2.7470    2.9900 h1        1 815      0.077700
     43 H322       -3.1340   -2.6790    3.7650 h1        1 815      0.077700
     44 H371       -2.6240   -4.1300   -0.6280 hn        1 815      0.451800
     45 H421        3.2300   -0.2640    5.4170 hn        1 815      0.417800
     46 H422        1.6530   -0.7240    5.0760 hn        1 815      0.417800
     47 H431       -2.8670    0.6290    1.9480 h1        1 815      0.083700
     48 H432       -2.3510   -0.0980    3.5510 h1        1 815      0.083700
     49 H171       -7.6590   -1.8960   -5.3600 ha        1 815      0.169000
     50 H372       -3.5710   -2.9350   -1.2500 hn        1 815      0.451800
     51 H181       -6.7410   -2.0550   -7.7080 ha        1 815      0.177000
@<TRIPOS>BOND
     1    1    2 ar  
     2    1    6 ar  
     3    1   32 1   
     4    2    3 ar  
     5    2   33 1   
     6    3    4 ar  
     7    3    7 ar  
     8    4    5 ar  
     9    4   10 ar  
    10    5    6 ar  
    11    5   34 1   
    12    6   31 1   
    13    7    8 ar  
    14    7   35 1   
    15    8    9 ar  
    16    8   36 1   
    17    9   10 ar  
    18   10   30 1   
    19   11   12 ar  
    20   11   16 ar  
    21   11   19 1   
    22   12   13 ar  
    23   12   49 1   
    24   13   14 ar  
    25   13   51 1   
    26   14   15 ar  
    27   14   37 1   
    28   15   16 ar  
    29   16   17 1   
    30   17   18 2   
    31   17   38 1   
    32   18   19 1   
    33   18   26 1   
    34   20   21 1   
    35   20   24 1   
    36   20   31 1   
    37   21   22 1   
    38   21   29 2   
    39   22   23 1   
    40   22   25 1   
    41   22   39 1   
    42   23   24 1   
    43   23   40 1   
    44   23   41 1   
    45   24   42 1   
    46   24   43 1   
    47   25   26 1   
    48   25   44 1   
    49   25   50 1   
    50   26   27 2   
    51   26   28 2   
    52   30   45 1   
    53   30   46 1   
    54   31   47 1   
    55   31   48 1   
@<TRIPOS>SUBSTRUCTURE
     1 815         1 TEMP              0 ****  ****    0 ROOT
