@<TRIPOS>MOLECULE
815
   50    54     1     0     0
SMALL
bcc


@<TRIPOS>ATOM
      1 C1         -1.3470   -0.7370    2.3840 ca        1 815     -0.096000
      2 C2         -2.0270    0.2900    2.9850 ca        1 815     -0.134000
      3 C3         -1.7630    0.6400    4.3380 ca        1 815      0.020000
      4 C4         -0.7910   -0.0930    5.0690 ca        1 815     -0.182300
      5 C5         -0.0930   -1.1420    4.4190 ca        1 815     -0.082000
      6 C6         -0.3640   -1.4620    3.1070 ca        1 815     -0.139300
      7 C10        -2.4440    1.7100    4.9760 ca        1 815     -0.282300
      8 C11        -2.1390    1.9950    6.2930 ca        1 815      0.433200
      9 N12        -1.2350    1.3090    7.0410 nb        1 815     -0.741000
     10 C13        -0.5590    0.2930    6.4570 ca        1 815      0.652200
     11 C16        -1.6950   -0.1030   -4.4990 ca        1 815     -0.223400
     12 C17        -2.9620   -0.4380   -5.0300 ca        1 815     -0.064000
     13 C18        -3.7990    0.5830   -5.4180 ca        1 815     -0.221300
     14 C19        -3.3660    1.9400   -5.2720 ca        1 815      0.395200
     15 N20        -2.1900    2.3040   -4.7800 nb        1 815     -0.611000
     16 C21        -1.3530    1.2900   -4.3950 ca        1 815      0.377100
     17 C25        -0.0380    1.4330   -3.8400 cc        1 815     -0.099800
     18 C26         0.5430    0.2040   -3.5510 cd        1 815     -0.465500
     19 S27        -0.4700   -1.0600   -3.9480 ss        1 815      0.310500
     20 N28         1.3110   -2.2070    1.4270 n         1 815     -0.463800
     21 C29         0.9790   -1.8920    0.1120 c         1 815      0.672500
     22 C30         2.1990   -1.2290   -0.5920 c3        1 815      0.167500
     23 C31         3.2100   -0.9960    0.5600 c3        1 815     -0.109400
     24 C32         2.5930   -1.6470    1.8110 c3        1 815      0.080000
     25 N37         1.8480   -0.0590   -1.3320 n3        1 815     -0.894100
     26 S38         2.0930    0.1330   -2.9280 sy        1 815      1.544800
     27 O39         2.7060    1.3820   -3.1420 o         1 815     -0.650300
     28 O40         2.7620   -0.9980   -3.4380 o         1 815     -0.650300
     29 O41        -0.1040   -2.1540   -0.4310 o         1 815     -0.623500
     30 N42         0.4430   -0.3570    7.1910 nh        1 815     -0.925500
     31 C43         0.3490   -2.5940    2.4200 c3        1 815      0.146300
     32 H11        -1.5430   -1.0180    1.3350 ha        1 815      0.156000
     33 H21        -2.7880    0.8630    2.4340 ha        1 815      0.141000
     34 H51         0.6840   -1.7080    4.9550 ha        1 815      0.130000
     35 H101       -3.1930    2.2890    4.4220 ha        1 815      0.146000
     36 H111       -2.6400    2.8180    6.8370 h4        1 815      0.022100
     37 H181       -4.7930    0.3810   -5.8370 ha        1 815      0.149000
     38 H191       -4.0370    2.7620   -5.5830 h4        1 815      0.027100
     39 H251        0.4470    2.4060   -3.6870 ha        1 815      0.192000
     40 H301        2.6200   -2.0000   -1.3080 h1        1 815      0.113700
     41 H311        3.3970    0.0900    0.7450 hc        1 815      0.069200
     42 H312        4.1870   -1.4760    0.3090 hc        1 815      0.069200
     43 H321        2.4660   -0.8910    2.6350 h1        1 815      0.052200
     44 H322        3.2510   -2.4740    2.1950 h1        1 815      0.052200
     45 H371        1.4330    0.6530   -0.7800 hn        1 815      0.449800
     46 H421        0.4850   -0.1310    8.1610 hn        1 815      0.405300
     47 H422        0.5170   -1.3320    7.0050 hn        1 815      0.405300
     48 H431        0.8890   -3.2200    3.1880 h1        1 815      0.069200
     49 H432       -0.4220   -3.2410    1.9060 h1        1 815      0.069200
     50 H171       -3.2580   -1.4930   -5.1250 ha        1 815      0.146000
@<TRIPOS>BOND
     1    1    2 ar  
     2    1    6 ar  
     3    1   32 1   
     4    2    3 ar  
     5    2   33 1   
     6    3    4 ar  
     7    3    7 ar  
     8    4    5 ar  
     9    4   10 ar  
    10    5    6 ar  
    11    5   34 1   
    12    6   31 1   
    13    7    8 ar  
    14    7   35 1   
    15    8    9 ar  
    16    8   36 1   
    17    9   10 ar  
    18   10   30 1   
    19   11   12 ar  
    20   11   16 ar  
    21   11   19 1   
    22   12   13 ar  
    23   12   50 1   
    24   13   14 ar  
    25   13   37 1   
    26   14   15 ar  
    27   14   38 1   
    28   15   16 ar  
    29   16   17 1   
    30   17   18 2   
    31   17   39 1   
    32   18   19 1   
    33   18   26 1   
    34   20   21 1   
    35   20   24 1   
    36   20   31 1   
    37   21   22 1   
    38   21   29 2   
    39   22   23 1   
    40   22   25 1   
    41   22   40 1   
    42   23   24 1   
    43   23   41 1   
    44   23   42 1   
    45   24   43 1   
    46   24   44 1   
    47   25   26 1   
    48   25   45 1   
    49   26   27 2   
    50   26   28 2   
    51   30   46 1   
    52   30   47 1   
    53   31   48 1   
    54   31   49 1   
@<TRIPOS>SUBSTRUCTURE
     1 815         1 TEMP              0 ****  ****    0 ROOT
