@<TRIPOS>MOLECULE
815
   52    55     1     0     0
SMALL
bcc


@<TRIPOS>ATOM
      1 C1          0.0360   -0.0800    0.8510 ca        1 815     -0.095000
      2 C2          1.3160    0.3100    0.5520 ca        1 815     -0.089000
      3 C3          2.2740    0.5070    1.5880 ca        1 815     -0.013000
      4 C4          1.8800    0.2950    2.9420 ca        1 815     -0.114300
      5 C5          0.5540   -0.1270    3.2240 ca        1 815     -0.156000
      6 C6         -0.3510   -0.3080    2.2010 ca        1 815     -0.040300
      7 C10         3.5990    0.9180    1.3070 ca        1 815     -0.144300
      8 C11         4.4900    1.1110    2.3590 ca        1 815      0.403200
      9 N12         4.1500    0.9310    3.6600 nb        1 815     -0.616000
     10 C13         2.8950    0.5430    3.9290 ca        1 815      0.444200
     11 C16        -6.6830   -3.2780   -4.8520 ca        1 815     -0.172400
     12 C17        -7.2750   -2.5470   -5.9150 ca        1 815     -0.095000
     13 C18        -6.8690   -2.8130   -7.1970 ca        1 815     -0.144300
     14 C19        -5.8550   -3.8150   -7.4340 ca        1 815      0.427200
     15 N20        -5.2710   -4.5200   -6.4860 nb        1 815     -0.590000
     16 C21        -5.6800   -4.2660   -5.1910 ca        1 815      0.371100
     17 C25        -5.2090   -4.9100   -4.0320 cc        1 815     -0.037800
     18 C26        -5.8300   -4.4250   -2.8410 cd        1 815     -0.741700
     19 S27        -6.9430   -3.2170   -3.2450 ss        1 815      0.400500
     20 N28        -2.2790   -1.8290    1.8140 n         1 815     -0.468800
     21 C29        -3.0070   -1.7880    0.6360 c         1 815      0.673500
     22 C30        -3.7520   -3.1350    0.4330 c3        1 815      0.052500
     23 C31        -3.1620   -4.0570    1.5200 c3        1 815     -0.102400
     24 C32        -2.3770   -3.1240    2.4680 c3        1 815      0.086000
     25 N37        -3.6910   -3.6290   -0.9370 n3        1 815     -0.989800
     26 S38        -5.5000   -5.0400   -1.4740 s4        1 815      1.720100
     27 O39        -4.7000   -6.1370   -1.4470 o         1 815     -0.440400
     28 O40        -6.2340   -4.6470   -0.3990 o         1 815     -0.440400
     29 O41        -3.0560   -0.8470   -0.1690 o         1 815     -0.609500
     30 N42         2.5610    0.3760    5.3620 n4        1 815     -0.819300
     31 C43        -1.7850   -0.6680    2.4970 c3        1 815      0.142300
     32 H11        -0.7200   -0.2060    0.0540 ha        1 815      0.178000
     33 H21         1.6250    0.4880   -0.4910 ha        1 815      0.169000
     34 H51         0.2360   -0.3060    4.2610 ha        1 815      0.122000
     35 H101        3.9190    1.0850    0.2650 ha        1 815      0.186000
     36 H111        5.5400    1.4300    2.1970 h4        1 815      0.075100
     37 H191       -5.5290   -4.0240   -8.4750 h4        1 815      0.066100
     38 H251       -4.4570   -5.7150   -4.0440 ha        1 815      0.209000
     39 H301       -4.8450   -2.9360    0.6640 h1        1 815      0.125700
     40 H311       -2.4780   -4.8350    1.0970 hc        1 815      0.086200
     41 H312       -3.9790   -4.5790    2.0770 hc        1 815      0.086200
     42 H321       -2.9090   -3.0270    3.4550 h1        1 815      0.067700
     43 H322       -1.3450   -3.5280    2.6580 h1        1 815      0.067700
     44 H371       -2.8530   -4.1730   -1.0810 hn        1 815      0.410300
     45 H421        1.7870    1.0060    5.5950 hn        1 815      0.472133
     46 H422        2.2800   -0.5960    5.5250 hn        1 815      0.472133
     47 H431       -2.4150    0.2230    2.1900 h1        1 815      0.081700
     48 H432       -1.9120   -0.8280    3.6080 h1        1 815      0.081700
     49 H171       -8.0470   -1.7890   -5.7000 ha        1 815      0.175000
     50 H372       -3.6750   -2.8410   -1.5700 hn        1 815      0.410300
     51 H423        3.3730    0.5990    5.9570 hn        1 815      0.472133
     52 H181       -7.2990   -2.2800   -8.0620 ha        1 815      0.186000
@<TRIPOS>BOND
     1    1    2 ar  
     2    1    6 ar  
     3    1   32 1   
     4    2    3 ar  
     5    2   33 1   
     6    3    4 ar  
     7    3    7 ar  
     8    4    5 ar  
     9    4   10 ar  
    10    5    6 ar  
    11    5   34 1   
    12    6   31 1   
    13    7    8 ar  
    14    7   35 1   
    15    8    9 ar  
    16    8   36 1   
    17    9   10 ar  
    18   10   30 1   
    19   11   12 ar  
    20   11   16 ar  
    21   11   19 1   
    22   12   13 ar  
    23   12   49 1   
    24   13   14 ar  
    25   13   52 1   
    26   14   15 ar  
    27   14   37 1   
    28   15   16 ar  
    29   16   17 1   
    30   17   18 2   
    31   17   38 1   
    32   18   19 1   
    33   18   26 1   
    34   20   21 1   
    35   20   24 1   
    36   20   31 1   
    37   21   22 1   
    38   21   29 2   
    39   22   23 1   
    40   22   25 1   
    41   22   39 1   
    42   23   24 1   
    43   23   40 1   
    44   23   41 1   
    45   24   42 1   
    46   24   43 1   
    47   25   44 1   
    48   25   50 1   
    49   26   27 1   
    50   26   28 1   
    51   30   45 1   
    52   30   46 1   
    53   30   51 1   
    54   31   47 1   
    55   31   48 1   
@<TRIPOS>SUBSTRUCTURE
     1 815         1 TEMP              0 ****  ****    0 ROOT
