@<TRIPOS>MOLECULE
817
   29    29     1     0     0
SMALL
bcc


@<TRIPOS>ATOM
      1 N1          6.4650   -0.0700   -0.7500 n2        1 817     -0.815100
      2 C2          3.1580   -0.2520    0.2960 c2        1 817      0.653100
      3 N2          5.6200    1.5800    0.7400 nh        1 817     -0.894800
      4 N3          4.0670    0.2760   -0.6470 nh        1 817     -0.796200
      5 C4         -0.8340   -1.1030    0.3330 ca        1 817     -0.088300
      6 C6         -2.5590   -2.3520   -0.8250 ca        1 817     -0.133000
      7 C7         -3.4500   -1.2920   -0.6580 ca        1 817     -0.070000
      8 C10        -1.7260   -0.0370    0.5020 ca        1 817     -0.063000
      9 C1          5.4450    0.5400   -0.2210 c2        1 817      0.760100
     10 N4          3.5020   -0.5880    1.4950 n2        1 817     -0.843100
     11 S1          1.5660   -0.4440   -0.4680 ss        1 817     -0.285300
     12 C3          0.5420   -1.0110    0.8700 c3        1 817      0.029000
     13 C5         -1.2580   -2.2600   -0.3330 ca        1 817     -0.080000
     14 C8         -3.0270   -0.1390    0.0070 ca        1 817     -0.168300
     15 F1         -5.3130    0.6670    0.2750 f         1 817     -0.235300
     16 F2         -3.7690    1.7910    1.3010 f         1 817     -0.235300
     17 F3         -3.9660    1.9360   -0.8520 f         1 817     -0.235300
     18 HN1         6.2680   -0.7160   -1.4830 hn        1 817      0.413400
     19 HN21        6.5710    1.6900    1.0290 hn        1 817      0.401800
     20 HN22        5.0050    1.5060    1.5220 hn        1 817      0.401800
     21 HN3         3.6800    1.0280   -1.1860 hn        1 817      0.428800
     22 H6         -2.8860   -3.2630   -1.3490 ha        1 817      0.148000
     23 H7         -4.4810   -1.3600   -1.0400 ha        1 817      0.155000
     24 H10        -1.4090    0.8790    1.0260 ha        1 817      0.156000
     25 HN4         2.8160   -1.0670    2.0340 hn        1 817      0.405400
     26 H31         0.8910   -2.0120    1.2290 h1        1 817      0.077700
     27 H32         0.5890   -0.2990    1.7310 h1        1 817      0.077700
     28 H5         -0.5590   -3.1000   -0.4700 ha        1 817      0.147000
     29 C9         -3.9910    1.0290    0.1800 c3        1 817      0.688200
@<TRIPOS>BOND
     1    1    9 2   
     2    1   18 1   
     3    2    4 1   
     4    2   10 2   
     5    2   11 1   
     6    3    9 1   
     7    3   19 1   
     8    3   20 1   
     9    4    9 1   
    10    4   21 1   
    11    5    8 ar  
    12    5   12 1   
    13    5   13 ar  
    14    6    7 ar  
    15    6   13 ar  
    16    6   22 1   
    17    7   14 ar  
    18    7   23 1   
    19    8   14 ar  
    20    8   24 1   
    21   10   25 1   
    22   11   12 1   
    23   12   26 1   
    24   12   27 1   
    25   13   28 1   
    26   14   29 1   
    27   15   29 1   
    28   16   29 1   
    29   17   29 1   
@<TRIPOS>SUBSTRUCTURE
     1 817         1 TEMP              0 ****  ****    0 ROOT
