@<TRIPOS>MOLECULE
817
   29    23     1     0     0
SMALL
bcc


@<TRIPOS>ATOM
      1 N1         -2.1860    0.7010    2.9580 n1        1 817     -0.317000
      2 C2         -0.0770    2.2960    1.7000 c1        1 817     -0.014000
      3 N2         -2.5470    2.5620    4.3670 n3        1 817     -0.352000
      4 N3         -0.4770    2.3270    3.0620 n2        1 817     -0.292000
      5 C4          1.0320   -0.3750   -1.3350 c1        1 817     -0.085000
      6 C6          2.6970   -1.9940   -1.9430 c1        1 817     -0.136000
      7 C7          1.7150   -2.7910   -2.5100 c1        1 817     -0.073000
      8 C9         -0.5910   -3.3190   -3.1550 c3        1 817      0.466000
      9 C10         0.0500   -1.1720   -1.9020 c1        1 817     -0.065000
     10 C1         -1.7550    1.8380    3.4370 c2        1 817      0.168000
     11 N4          0.3420    3.3880    1.1170 n1        1 817     -0.313000
     12 S1         -0.1460    0.7750    0.7900 ss        1 817      0.160000
     13 C3          0.6710    0.9820   -0.7700 c2        1 817     -0.219000
     14 C5          2.3560   -0.7860   -1.3550 c2        1 817     -0.082000
     15 C8          0.3920   -2.3800   -2.4900 c1        1 817     -0.163000
     16 F1         -0.4650   -3.2290   -4.4850 f         1 817     -0.164333
     17 F2         -1.8380   -2.9830   -2.8010 f         1 817     -0.164333
     18 F3         -0.3410   -4.5760   -2.7660 f         1 817     -0.164333
     19 HN1        -2.9970    0.3720    3.2220 DU        1 817      0.159500
     20 HN21       -2.2560    3.3690    4.6850 hn        1 817      0.198000
     21 HN22       -3.3420    2.2170    4.6570 hn        1 817      0.198000
     22 HN3         0.0760    2.6870    3.6910 hn        1 817      0.225000
     23 H6          3.6300   -2.2840   -1.9580 ha        1 817      0.146000
     24 H7          1.9560   -3.6420   -2.9240 ha        1 817      0.154000
     25 H10        -0.8820   -0.8830   -1.8880 ha        1 817      0.157000
     26 HN4         0.3770    4.1710    1.5860 DU        1 817      0.159500
     27 H31         1.4850    1.5100   -0.6440 h4        1 817      0.133000
     28 H32         0.0750    1.4460   -1.3910 h4        1 817      0.133000
     29 H5          3.0480   -0.2250   -0.9560 ha        1 817      0.147000
@<TRIPOS>BOND
     1    1   10 1   
     2    2   11 1   
     3    2   12 1   
     4    3   10 1   
     5    3   20 1   
     6    3   21 1   
     7    4   10 1   
     8    4   22 1   
     9    5    9 1   
    10    5   14 1   
    11    6   14 1   
    12    6   23 1   
    13    7   15 1   
    14    7   24 1   
    15    8   15 1   
    16    8   16 1   
    17    8   17 1   
    18    8   18 1   
    19    9   25 1   
    20   12   13 1   
    21   13   27 1   
    22   13   28 1   
    23   14   29 1   
@<TRIPOS>SUBSTRUCTURE
     1 817         1 TEMP              0 ****  ****    0 ROOT
