@<TRIPOS>MOLECULE
817
   31    32     1     0     0
SMALL
bcc


@<TRIPOS>ATOM
      1 N1          0.7550   -1.5080   -0.7510 n2        1 817     -0.617100
      2 C2          3.8930    0.1380   -0.7640 c2        1 817      0.572100
      3 N2          1.2870   -0.0450    1.0400 n4        1 817     -0.816600
      4 N3          2.4240    0.3070   -1.1920 n4        1 817     -0.779000
      5 C4          7.1140   -0.2550   -3.0860 c2        1 817     -0.139400
      6 C6          8.4630    0.4830   -4.9850 c2        1 817      0.017800
      7 C7          7.8050   -0.6460   -5.2680 ce        1 817     -0.213200
      8 C10         6.9830   -1.0990   -4.1310 ce        1 817     -0.132200
      9 C1          1.4370   -0.4960   -0.3850 c2        1 817      0.627100
     10 N4          4.0580    0.0480    0.5000 n2        1 817     -0.876100
     11 S1          4.8690    0.1170   -2.1540 ss        1 817     -0.206300
     12 C3          6.5860   -0.3490   -1.7430 c3        1 817      0.141900
     13 C5          8.0690    0.8640   -3.5520 c3        1 817     -0.043000
     14 C8          7.0300   -1.8790   -5.3890 cx        1 817      0.091700
     15 F1          8.0590   -3.6790   -6.6540 f         1 817     -0.210967
     16 F2          8.8590   -3.3660   -4.6480 f         1 817     -0.210967
     17 F3          6.8870   -4.2490   -4.9050 f         1 817     -0.210967
     18 HN1         0.7770   -1.9160   -1.6670 hn        1 817      0.531400
     19 HN21        0.6630   -0.7000    1.5500 hn        1 817      0.510133
     20 HN22        2.2240   -0.0400    1.5040 hn        1 817      0.510133
     21 HN3         2.1860    1.3110   -1.1520 hn        1 817      0.492300
     22 H6          7.5700    1.8630   -3.5310 hc        1 817      0.105200
     23 H7          9.1650    1.0760   -5.5750 ha        1 817      0.201000
     24 H10         6.1320   -1.8990   -6.0510 hc        1 817      0.144700
     25 HN4         4.9660   -0.0110    0.9090 hn        1 817      0.523400
     26 H31         7.0420    0.3780   -1.0320 h1        1 817      0.110700
     27 H32         6.6010   -1.3810   -1.3190 h1        1 817      0.110700
     28 H5          8.9810    0.8880   -2.9020 hc        1 817      0.105200
     29 C9          7.7180   -3.2710   -5.3950 c3        1 817      0.654900
     30 H23         0.8720    0.8960    1.0730 hn        1 817      0.510133
     31 H321        2.3710    0.0100   -2.1860 hn        1 817      0.492300
@<TRIPOS>BOND
     1    1    9 2   
     2    1   18 1   
     3    2    4 1   
     4    2   10 2   
     5    2   11 1   
     6    3    9 1   
     7    3   19 1   
     8    3   20 1   
     9    3   30 1   
    10    4    9 1   
    11    4   21 1   
    12    4   31 1   
    13    5    8 2   
    14    5   12 1   
    15    5   13 1   
    16    6    7 2   
    17    6   13 1   
    18    6   23 1   
    19    7    8 1   
    20    7   14 1   
    21    8   14 1   
    22   10   25 1   
    23   11   12 1   
    24   12   26 1   
    25   12   27 1   
    26   13   22 1   
    27   13   28 1   
    28   14   24 1   
    29   14   29 1   
    30   15   29 1   
    31   16   29 1   
    32   17   29 1   
@<TRIPOS>SUBSTRUCTURE
     1 817         1 TEMP              0 ****  ****    0 ROOT
