@<TRIPOS>MOLECULE
817
   31    32     1     0     0
SMALL
bcc


@<TRIPOS>ATOM
      1 N1          0.7380   -1.4960   -0.7860 n2        1 817     -0.617100
      2 C2          3.8930    0.1180   -0.7560 c2        1 817      0.572100
      3 N2          1.2790   -0.0760    1.0360 nz        1 817     -0.816600
      4 N3          2.4260    0.3110   -1.1860 ny        1 817     -0.779000
      5 C4          7.1180   -0.2570   -3.0740 c2        1 817     -0.139400
      6 C6          8.4790    0.5040   -4.9570 c2        1 817      0.017800
      7 C7          7.8140   -0.6160   -5.2590 ce        1 817     -0.213200
      8 C10         6.9870   -1.0830   -4.1330 ce        1 817     -0.132200
      9 C1          1.4290   -0.5000   -0.3980 c2        1 817      0.627100
     10 N4          4.0520    0.0010    0.5060 n2        1 817     -0.876100
     11 S1          4.8730    0.1140   -2.1430 ss        1 817     -0.207300
     12 C3          6.5850   -0.3690   -1.7340 c3        1 817      0.141900
     13 C5          8.0820    0.8640   -3.5190 c3        1 817     -0.043000
     14 C8          7.0330   -1.8430   -5.4030 cx        1 817      0.091700
     15 F1          8.0570   -3.6290   -6.6940 f         1 817     -0.210967
     16 F2          8.8520   -3.3520   -4.6800 f         1 817     -0.210967
     17 F3          6.8750   -4.2190   -4.9580 f         1 817     -0.210967
     18 HN1         0.7590   -1.8860   -1.7100 hn        1 817      0.531400
     19 HN21        0.6480   -0.7350    1.5310 hn        1 817      0.510467
     20 HN22        2.2150   -0.0890    1.5020 hn        1 817      0.510467
     21 HN3         2.1980    1.3150   -1.1250 hn        1 817      0.492300
     22 H6          7.5880    1.8650   -3.4840 hc        1 817      0.105200
     23 H7          9.1860    1.1030   -5.5350 ha        1 817      0.201000
     24 H10         6.1380   -1.8480   -6.0690 hc        1 817      0.144700
     25 HN4         4.9580   -0.0760    0.9170 hn        1 817      0.523400
     26 H31         7.0440    0.3430   -1.0100 h1        1 817      0.110700
     27 H32         6.5930   -1.4090   -1.3270 h1        1 817      0.110700
     28 H5          8.9910    0.8730   -2.8660 hc        1 817      0.105200
     29 C9          7.7130   -3.2390   -5.4290 c3        1 817      0.654900
     30 H23         0.8730    0.8680    1.0870 hn        1 817      0.510467
     31 H321        2.3730    0.0340   -2.1850 hn        1 817      0.492300
@<TRIPOS>BOND
     1    1    9 2   
     2    1   18 1   
     3    2    4 1   
     4    2   10 2   
     5    2   11 1   
     6    3    9 1   
     7    3   19 1   
     8    3   20 1   
     9    3   30 1   
    10    4    9 1   
    11    4   21 1   
    12    4   31 1   
    13    5    8 2   
    14    5   12 1   
    15    5   13 1   
    16    6    7 2   
    17    6   13 1   
    18    6   23 1   
    19    7    8 1   
    20    7   14 1   
    21    8   14 1   
    22   10   25 1   
    23   11   12 1   
    24   12   26 1   
    25   12   27 1   
    26   13   22 1   
    27   13   28 1   
    28   14   24 1   
    29   14   29 1   
    30   15   29 1   
    31   16   29 1   
    32   17   29 1   
@<TRIPOS>SUBSTRUCTURE
     1 817         1 TEMP              0 ****  ****    0 ROOT
