@<TRIPOS>MOLECULE
819
   55    57     1     0     0
SMALL
bcc


@<TRIPOS>ATOM
      1 C1          1.2740    1.3160   -1.1520 c3        1 819     -0.117100
      2 C2          2.4620    0.4030   -1.0170 c3        1 819      0.157400
      3 O3          2.7440    0.3690    0.4260 os        1 819     -0.409900
      4 C4          3.7770   -0.4070    0.7970 c         1 819      0.609100
      5 O5          4.4860   -1.0680    0.0510 o         1 819     -0.422000
      6 N6          3.9690   -0.3740    2.2760 n4        1 819     -0.643800
      7 C8          5.2950    0.2550    2.6410 c3        1 819      0.192100
      8 C9          5.5320    0.1430    4.1010 ca        1 819     -0.219300
      9 C12         6.1960   -0.9760    4.6200 ca        1 819     -0.077000
     10 C13         6.4560   -1.0730    5.9810 ca        1 819     -0.136000
     11 C10         5.1410    1.1760    4.9620 ca        1 819     -0.077000
     12 C11         5.4000    1.0970    6.3240 ca        1 819     -0.136000
     13 C14         6.0550   -0.0380    6.8600 ca        1 819      0.089800
     14 N15         6.3190   -0.1310    8.2320 na        1 819     -0.271800
     15 C16         7.4730   -0.6980    8.8320 cc        1 819      0.456800
     16 S17         8.7590   -1.3770    7.9760 sh        1 819     -0.292100
     17 N18         7.3440   -0.5750   10.1880 nd        1 819     -0.336000
     18 N20         6.2020    0.0110   10.4800 nd        1 819     -0.295000
     19 C21         5.5260    0.3070    9.3340 cc        1 819      0.469000
     20 C22         4.2040    0.9140    9.2440 ca        1 819     -0.215500
     21 C23         3.0640    0.1020    9.2940 ca        1 819     -0.033000
     22 C24         1.7790    0.6430    9.3190 ca        1 819     -0.128300
     23 C25         0.5750   -0.2440    9.3830 c3        1 819     -0.018400
     24 C27         0.4890   -1.1340    8.1580 c3        1 819     -0.088100
     25 C26         0.5850   -1.0820   10.6480 c3        1 819     -0.088100
     26 C28         1.6470    2.0500    9.3120 ca        1 819      0.188100
     27 O29         0.3750    2.5620    9.3340 oh        1 819     -0.485100
     28 C31         2.7700    2.8870    9.2640 ca        1 819     -0.304000
     29 C32         4.0470    2.3130    9.2250 ca        1 819      0.186100
     30 O33         5.1820    3.0770    9.1100 oh        1 819     -0.496100
     31 H1          1.0080    1.3830   -2.2370 hc        1 819      0.074700
     32 H1A         0.3960    0.9200   -0.5880 hc        1 819      0.074700
     33 H1B         1.5100    2.3400   -0.7730 hc        1 819      0.074700
     34 H2          3.3780    0.7930   -1.5300 h1        1 819      0.081200
     35 H2A         2.2470   -0.6470   -1.3440 h1        1 819      0.081200
     36 HN6         3.2030    0.1530    2.7160 hn        1 819      0.472800
     37 H8          6.0920   -0.2860    2.0500 hx        1 819      0.116700
     38 H8A         5.2550    1.3330    2.3100 hx        1 819      0.116700
     39 H12         6.5310   -1.7840    3.9500 ha        1 819      0.145000
     40 H13         6.9860   -1.9640    6.3690 ha        1 819      0.183500
     41 H10         4.6450    2.0750    4.5620 ha        1 819      0.145000
     42 H11         5.1070    1.9300    6.9890 ha        1 819      0.183500
     43 HS17        9.6040   -1.5740    8.9900 hs        1 819      0.248800
     44 H23         3.1860   -0.9930    9.3370 ha        1 819      0.154000
     45 H25        -0.3490    0.4060    9.4060 hc        1 819      0.078700
     46 H27         0.4420   -0.5160    7.2290 hc        1 819      0.037533
     47 H27A        1.3770   -1.8080    8.0950 hc        1 819      0.037533
     48 H27B       -0.4310   -1.7650    8.2130 hc        1 819      0.037533
     49 H26        -0.3440   -1.7000   10.7000 hc        1 819      0.037533
     50 H26A        1.4670   -1.7660   10.6660 hc        1 819      0.037533
     51 H26B        0.6270   -0.4250   11.5500 hc        1 819      0.037533
     52 HO29        0.4330    3.5230    9.4550 ho        1 819      0.431000
     53 H31         2.6540    3.9800    9.2740 ha        1 819      0.148000
     54 HO33        4.9750    3.9770    9.4070 ho        1 819      0.436000
     55 H62         3.9500   -1.3400    2.6280 hn        1 819      0.472800
@<TRIPOS>BOND
     1    1    2 1   
     2    1   31 1   
     3    1   32 1   
     4    1   33 1   
     5    2    3 1   
     6    2   34 1   
     7    2   35 1   
     8    3    4 1   
     9    4    5 2   
    10    4    6 1   
    11    6    7 1   
    12    6   36 1   
    13    6   55 1   
    14    7    8 1   
    15    7   37 1   
    16    7   38 1   
    17    8    9 ar  
    18    8   11 ar  
    19    9   10 ar  
    20    9   39 1   
    21   10   13 ar  
    22   10   40 1   
    23   11   12 ar  
    24   11   41 1   
    25   12   13 ar  
    26   12   42 1   
    27   13   14 1   
    28   14   15 1   
    29   14   19 1   
    30   15   16 1   
    31   15   17 2   
    32   16   43 1   
    33   17   18 1   
    34   18   19 2   
    35   19   20 1   
    36   20   21 ar  
    37   20   29 ar  
    38   21   22 ar  
    39   21   44 1   
    40   22   23 1   
    41   22   26 ar  
    42   23   24 1   
    43   23   25 1   
    44   23   45 1   
    45   24   46 1   
    46   24   47 1   
    47   24   48 1   
    48   25   49 1   
    49   25   50 1   
    50   25   51 1   
    51   26   27 1   
    52   26   28 ar  
    53   27   52 1   
    54   28   29 ar  
    55   28   53 1   
    56   29   30 1   
    57   30   54 1   
@<TRIPOS>SUBSTRUCTURE
     1 819         1 TEMP              0 ****  ****    0 ROOT
