@<TRIPOS>MOLECULE
819
   54    56     1     0     0
SMALL
bcc


@<TRIPOS>ATOM
      1 C1          7.5460   -0.1250   -1.1060 c3        1 819     -0.103100
      2 C2          6.7350   -1.2720   -0.5560 c3        1 819      0.150400
      3 O3          5.8010   -0.6840    0.3720 os        1 819     -0.445900
      4 C4          4.9840   -1.5820    1.0250 c         1 819      0.723100
      5 O5          5.0320   -2.7820    0.7030 o         1 819     -0.589000
      6 N6          4.2350   -0.9950    2.0350 n         1 819     -0.511900
      7 C8          3.1110   -1.7140    2.5810 c3        1 819      0.126300
      8 C9          1.8390   -1.6250    1.7860 ca        1 819     -0.130300
      9 C12         1.7110   -2.3490    0.5970 ca        1 819     -0.102500
     10 C13         0.5330   -2.3020   -0.1400 ca        1 819     -0.127000
     11 C10         0.7680   -0.8500    2.2380 ca        1 819     -0.102500
     12 C11        -0.4220   -0.7950    1.5180 ca        1 819     -0.127000
     13 C14        -0.5490   -1.5170    0.3140 ca        1 819      0.000800
     14 N15        -1.7520   -1.4700   -0.4230 na        1 819     -0.231800
     15 C16        -2.3810   -2.5480   -1.0770 cc        1 819      0.445800
     16 S17        -1.7690   -4.1190   -1.1410 sh        1 819     -0.271100
     17 N18        -3.5490   -2.0820   -1.6340 nd        1 819     -0.363000
     18 N20        -3.6810   -0.8020   -1.3820 nd        1 819     -0.320000
     19 C21        -2.6100   -0.3630   -0.6480 cc        1 819      0.411000
     20 C22        -2.3430    1.0040   -0.2200 ca        1 819     -0.245500
     21 C23        -1.5170    1.8230   -0.9980 ca        1 819     -0.021000
     22 C24        -1.2520    3.1450   -0.6410 ca        1 819     -0.189300
     23 C25        -0.3540    4.0100   -1.4680 c3        1 819     -0.016400
     24 C27         0.6230    3.2170   -2.3140 c3        1 819     -0.093100
     25 C26        -1.1680    4.9390   -2.3510 c3        1 819     -0.093100
     26 C28        -1.8640    3.6520    0.5280 ca        1 819      0.175100
     27 O29        -1.6880    4.9340    0.9880 oh        1 819     -0.495100
     28 C31        -2.7030    2.8580    1.3220 ca        1 819     -0.198000
     29 C32        -2.9410    1.5320    0.9410 ca        1 819      0.186100
     30 O33        -3.7460    0.8000    1.7770 oh        1 819     -0.493100
     31 H1          8.2890   -0.5260   -1.8370 hc        1 819      0.049033
     32 H1A         6.8860    0.6120   -1.6230 hc        1 819      0.049033
     33 H1B         8.0880    0.4030   -0.2860 hc        1 819      0.049033
     34 H2          6.1560   -1.8030   -1.3560 h1        1 819      0.054700
     35 H2A         7.3700   -2.0140   -0.0060 h1        1 819      0.054700
     36 HN6         4.1570   -0.0030    1.9970 hn        1 819      0.315500
     37 H8          3.4020   -2.8020    2.6740 h1        1 819      0.078700
     38 H8A         2.9380   -1.3000    3.6170 h1        1 819      0.078700
     39 H12         2.5590   -2.9630    0.2430 ha        1 819      0.154500
     40 H13         0.4510   -2.8860   -1.0740 ha        1 819      0.158000
     41 H10         0.8540   -0.2810    3.1770 ha        1 819      0.154500
     42 H11        -1.2580   -0.1810    1.8920 ha        1 819      0.158000
     43 HS17       -2.8080   -4.7170   -1.7160 hs        1 819      0.222800
     44 H23        -1.0720    1.4010   -1.9150 ha        1 819      0.149000
     45 H25         0.2670    4.6390   -0.7620 hc        1 819      0.041700
     46 H27         0.1020    2.7120   -3.1630 hc        1 819      0.040367
     47 H27A        1.3920    3.9060   -2.7420 hc        1 819      0.040367
     48 H27B        1.1410    2.4440   -1.6980 hc        1 819      0.040367
     49 H26        -1.8730    5.5510   -1.7380 hc        1 819      0.040367
     50 H26A       -0.4890    5.6260   -2.9120 hc        1 819      0.040367
     51 H26B       -1.7660    4.3510   -3.0880 hc        1 819      0.040367
     52 HO29       -1.2120    5.4460    0.3170 ho        1 819      0.428000
     53 H31        -3.1710    3.2720    2.2270 ha        1 819      0.172000
     54 HO33       -4.0180   -0.0070    1.3120 ho        1 819      0.437000
@<TRIPOS>BOND
     1    1    2 1   
     2    1   31 1   
     3    1   32 1   
     4    1   33 1   
     5    2    3 1   
     6    2   34 1   
     7    2   35 1   
     8    3    4 1   
     9    4    5 2   
    10    4    6 1   
    11    6    7 1   
    12    6   36 1   
    13    7    8 1   
    14    7   37 1   
    15    7   38 1   
    16    8    9 ar  
    17    8   11 ar  
    18    9   10 ar  
    19    9   39 1   
    20   10   13 ar  
    21   10   40 1   
    22   11   12 ar  
    23   11   41 1   
    24   12   13 ar  
    25   12   42 1   
    26   13   14 1   
    27   14   15 1   
    28   14   19 1   
    29   15   16 1   
    30   15   17 2   
    31   16   43 1   
    32   17   18 1   
    33   18   19 2   
    34   19   20 1   
    35   20   21 ar  
    36   20   29 ar  
    37   21   22 ar  
    38   21   44 1   
    39   22   23 1   
    40   22   26 ar  
    41   23   24 1   
    42   23   25 1   
    43   23   45 1   
    44   24   46 1   
    45   24   47 1   
    46   24   48 1   
    47   25   49 1   
    48   25   50 1   
    49   25   51 1   
    50   26   27 1   
    51   26   28 ar  
    52   27   52 1   
    53   28   29 ar  
    54   28   53 1   
    55   29   30 1   
    56   30   54 1   
@<TRIPOS>SUBSTRUCTURE
     1 819         1 TEMP              0 ****  ****    0 ROOT
