@<TRIPOS>MOLECULE
819
   55    57     1     0     0
SMALL
bcc


@<TRIPOS>ATOM
      1 C1          1.2900    1.3380   -1.1560 c3        1 819     -0.117100
      2 C2          2.4870    0.4360   -1.0210 c3        1 819      0.157400
      3 O3          2.7630    0.3960    0.4230 os        1 819     -0.409900
      4 C4          3.8020   -0.3720    0.7930 c         1 819      0.609100
      5 O5          4.5210   -1.0210    0.0460 o         1 819     -0.422000
      6 N6          3.9880   -0.3470    2.2730 n4        1 819     -0.643800
      7 C8          5.3090    0.2860    2.6480 c3        1 819      0.191100
      8 C9          5.5410    0.1650    4.1080 ca        1 819     -0.219300
      9 C12         6.2060   -0.9550    4.6220 ca        1 819     -0.077000
     10 C13         6.4620   -1.0610    5.9830 ca        1 819     -0.136000
     11 C10         5.1430    1.1900    4.9750 ca        1 819     -0.077000
     12 C11         5.3970    1.1030    6.3360 ca        1 819     -0.136000
     13 C14         6.0540   -0.0330    6.8680 ca        1 819      0.089800
     14 N15         6.3120   -0.1350    8.2390 na        1 819     -0.271800
     15 C16         7.4660   -0.7030    8.8410 cc        1 819      0.456800
     16 S17         8.7580   -1.3710    7.9850 sh        1 819     -0.292100
     17 N18         7.3310   -0.5890   10.1970 nd        1 819     -0.336000
     18 N20         6.1860   -0.0090   10.4880 nd        1 819     -0.295000
     19 C21         5.5130    0.2930    9.3420 cc        1 819      0.469000
     20 C22         4.1900    0.8970    9.2510 ca        1 819     -0.215500
     21 C23         3.0520    0.0820    9.2910 ca        1 819     -0.033000
     22 C24         1.7650    0.6180    9.3140 ca        1 819     -0.128300
     23 C25         0.5640   -0.2720    9.3670 c3        1 819     -0.018400
     24 C27         0.4850   -1.1540    8.1340 c3        1 819     -0.088100
     25 C26         0.5710   -1.1200   10.6250 c3        1 819     -0.088100
     26 C28         1.6300    2.0250    9.3170 ca        1 819      0.188100
     27 O29         0.3560    2.5330    9.3380 oh        1 819     -0.485100
     28 C31         2.7500    2.8650    9.2790 ca        1 819     -0.304000
     29 C32         4.0290    2.2950    9.2410 ca        1 819      0.186100
     30 O33         5.1630    3.0630    9.1360 oh        1 819     -0.496100
     31 H1          0.4140    0.9290   -0.5970 hc        1 819      0.074700
     32 H1A         1.0280    1.4090   -2.2410 hc        1 819      0.074700
     33 H1B         1.5140    2.3610   -0.7690 hc        1 819      0.074700
     34 H2          3.4010    0.8400   -1.5280 h1        1 819      0.081200
     35 H2A         2.2840   -0.6140   -1.3560 h1        1 819      0.081200
     36 HN6         3.2170    0.1730    2.7130 hn        1 819      0.472800
     37 H8          5.2640    1.3660    2.3240 hx        1 819      0.116700
     38 H8A         6.1110   -0.2460    2.0560 hx        1 819      0.116700
     39 H12         6.5480   -1.7570    3.9480 ha        1 819      0.144500
     40 H13         6.9930   -1.9530    6.3670 ha        1 819      0.183500
     41 H10         4.6450    2.0900    4.5790 ha        1 819      0.144500
     42 H11         5.0980    1.9310    7.0060 ha        1 819      0.183500
     43 HS17        9.5990   -1.5730    9.0010 hs        1 819      0.248800
     44 H23         3.1780   -1.0140    9.3260 ha        1 819      0.154000
     45 H25        -0.3620    0.3750    9.3900 hc        1 819      0.078700
     46 H27         1.3760   -1.8250    8.0700 hc        1 819      0.037533
     47 H27A        0.4400   -0.5300    7.2100 hc        1 819      0.037533
     48 H27B       -0.4330   -1.7880    8.1810 hc        1 819      0.037533
     49 H26         1.4560   -1.8010   10.6420 hc        1 819      0.037533
     50 H26A        0.6080   -0.4700   11.5320 hc        1 819      0.037533
     51 H26B       -0.3560   -1.7410   10.6690 hc        1 819      0.037533
     52 HO29        0.4100    3.4930    9.4650 ho        1 819      0.431000
     53 H31         2.6310    3.9580    9.2960 ha        1 819      0.148000
     54 HO33        4.9510    3.9600    9.4390 ho        1 819      0.436000
     55 H62         3.9720   -1.3160    2.6190 hn        1 819      0.472800
@<TRIPOS>BOND
     1    1    2 1   
     2    1   31 1   
     3    1   32 1   
     4    1   33 1   
     5    2    3 1   
     6    2   34 1   
     7    2   35 1   
     8    3    4 1   
     9    4    5 2   
    10    4    6 1   
    11    6    7 1   
    12    6   36 1   
    13    6   55 1   
    14    7    8 1   
    15    7   37 1   
    16    7   38 1   
    17    8    9 ar  
    18    8   11 ar  
    19    9   10 ar  
    20    9   39 1   
    21   10   13 ar  
    22   10   40 1   
    23   11   12 ar  
    24   11   41 1   
    25   12   13 ar  
    26   12   42 1   
    27   13   14 1   
    28   14   15 1   
    29   14   19 1   
    30   15   16 1   
    31   15   17 2   
    32   16   43 1   
    33   17   18 1   
    34   18   19 2   
    35   19   20 1   
    36   20   21 ar  
    37   20   29 ar  
    38   21   22 ar  
    39   21   44 1   
    40   22   23 1   
    41   22   26 ar  
    42   23   24 1   
    43   23   25 1   
    44   23   45 1   
    45   24   46 1   
    46   24   47 1   
    47   24   48 1   
    48   25   49 1   
    49   25   50 1   
    50   25   51 1   
    51   26   27 1   
    52   26   28 ar  
    53   27   52 1   
    54   28   29 ar  
    55   28   53 1   
    56   29   30 1   
    57   30   54 1   
@<TRIPOS>SUBSTRUCTURE
     1 819         1 TEMP              0 ****  ****    0 ROOT
