@<TRIPOS>MOLECULE
819
   54    49     1     0     0
SMALL
bcc


@<TRIPOS>ATOM
      1 C1         -1.3030   -4.4780   -6.7970 c3        1 819     -0.221000
      2 C2         -1.4670   -3.0050   -6.2980 c3        1 819     -0.002000
      3 O3         -0.6480   -2.8000   -5.1270 os        1 819     -0.287000
      4 C4         -0.8130   -1.5060   -4.5210 c2        1 819      0.376000
      5 O5         -1.6220   -0.7250   -4.9750 o         1 819     -0.394000
      6 N6         -0.1050   -1.1840   -3.3080 n         1 819     -0.321000
      7 C8          1.0720   -1.9400   -2.9340 c3        1 819      0.002000
      8 C9          1.4770   -1.5830   -1.4610 c2        1 819     -0.112000
      9 C12         1.9620   -0.3110   -1.1610 c2        1 819     -0.115000
     10 C13         2.2790    0.0210    0.1560 c1        1 819     -0.114000
     11 C10         1.3100   -2.5190   -0.4480 c1        1 819     -0.115000
     12 C11         1.6270   -2.1870    0.8680 c1        1 819     -0.107000
     13 C14         2.1120   -0.9170    1.1690 c1        1 819      0.042000
     14 N15         2.4120   -0.5970    2.4360 n2        1 819     -0.108000
     15 C16         3.5310   -0.9510    3.0950 c1        1 819     -0.234000
     16 S17         4.8500   -1.9250    2.4450 s         1 819      0.214000
     17 N18         3.4250   -0.5160    4.3520 n2        1 819     -0.102000
     18 N20         2.2350    0.1110    4.4790 n2        1 819     -0.061000
     19 C21         1.6130    0.0590    3.2960 c2        1 819     -0.009000
     20 C22         0.3620    0.6940    2.9710 c1        1 819     -0.082000
     21 C23         0.2780    2.0790    2.9240 c1        1 819     -0.031000
     22 C24        -0.9490    2.6980    2.6810 c1        1 819     -0.124000
     23 C25        -1.0610    4.2020    2.7600 c2        1 819     -0.050000
     24 C27        -0.9020    4.8050    1.3560 c3        1 819     -0.209000
     25 C26        -2.4160    4.5840    3.3170 c3        1 819     -0.209000
     26 C28        -2.0910    1.9250    2.4860 c2        1 819      0.143000
     27 O29        -3.3550    2.5600    2.2410 oh        1 819     -0.241000
     28 C31        -2.0080    0.5370    2.5330 c1        1 819     -0.308000
     29 C32        -0.7810   -0.0800    2.7760 c1        1 819      0.145000
     30 O33        -0.6850   -1.4900    2.7710 oh        1 819     -0.245000
     31 H1         -1.8540   -5.0730   -6.2430 hc        1 819      0.088667
     32 H1A        -1.5950   -4.5430   -7.7430 hc        1 819      0.088667
     33 H1B        -0.3610   -4.7440   -6.7260 hc        1 819      0.088667
     34 H2         -2.4110   -2.8390   -6.0710 h1        1 819      0.095000
     35 H2A        -1.1890   -2.3880   -7.0030 h1        1 819      0.095000
     36 HN6        -0.4320   -0.5410   -2.7470 hn        1 819      0.234000
     37 H8          0.8750   -2.9060   -2.9970 h1        1 819      0.115500
     38 H8A         1.8130   -1.7160   -3.5420 h1        1 819      0.115500
     39 H12         2.0770    0.3400   -1.8630 ha        1 819      0.140000
     40 H13         2.6230    0.9220    0.3690 ha        1 819      0.153000
     41 H10         0.9720   -3.4030   -0.6560 ha        1 819      0.153000
     42 H11         1.5090   -2.8540    1.5880 ha        1 819      0.165000
     43 HS17        5.6360   -2.1300    3.2880 hs        1 819      0.054000
     44 H23         1.0830    2.6240    3.0620 ha        1 819      0.151000
     45 H25        -0.3670    4.5460    3.3380 ha        1 819      0.086000
     46 H27        -0.5510    5.7210    1.4300 hc        1 819      0.079000
     47 H27A       -0.2740    4.2530    0.8310 hc        1 819      0.079000
     48 H27B       -1.7680    4.8250    0.9100 hc        1 819      0.079000
     49 H26        -2.6040    4.0480    4.1260 hc        1 819      0.079000
     50 H26A       -3.1010    4.4140    2.6500 hc        1 819      0.079000
     51 H26B       -2.4160    5.5310    3.5480 hc        1 819      0.079000
     52 HO29       -3.7320    2.2050    1.5080 ho        1 819      0.220000
     53 H31        -2.8150   -0.0090    2.3960 ha        1 819      0.139000
     54 HO33       -1.4550   -1.8430    2.4660 ho        1 819      0.223000
@<TRIPOS>BOND
     1    1    2 1   
     2    1   31 1   
     3    1   32 1   
     4    1   33 1   
     5    2    3 1   
     6    2   34 1   
     7    2   35 1   
     8    3    4 1   
     9    4    5 1   
    10    4    6 1   
    11    6    7 1   
    12    6   36 1   
    13    7    8 1   
    14    7   37 1   
    15    7   38 1   
    16    8    9 1   
    17    8   11 1   
    18    9   10 1   
    19    9   39 1   
    20   10   40 1   
    21   11   41 1   
    22   12   13 1   
    23   12   42 1   
    24   14   15 1   
    25   14   19 1   
    26   15   17 1   
    27   16   43 1   
    28   17   18 1   
    29   18   19 1   
    30   19   20 1   
    31   20   29 1   
    32   21   22 1   
    33   21   44 1   
    34   22   26 1   
    35   23   24 1   
    36   23   25 1   
    37   23   45 1   
    38   24   46 1   
    39   24   47 1   
    40   24   48 1   
    41   25   49 1   
    42   25   50 1   
    43   25   51 1   
    44   26   27 1   
    45   26   28 1   
    46   27   52 1   
    47   28   53 1   
    48   29   30 1   
    49   30   54 1   
@<TRIPOS>SUBSTRUCTURE
     1 819         1 TEMP              0 ****  ****    0 ROOT
