@<TRIPOS>MOLECULE
819
   55    57     1     0     0
SMALL
bcc


@<TRIPOS>ATOM
      1 C1          1.2840    1.3260   -1.1540 c3        1 819     -0.117100
      2 C2          2.4880    0.4340   -1.0210 c3        1 819      0.157400
      3 O3          2.7640    0.3950    0.4230 os        1 819     -0.409900
      4 C4          3.8110   -0.3640    0.7920 c         1 819      0.609100
      5 O5          4.5350   -1.0060    0.0440 o         1 819     -0.422000
      6 N6          3.9960   -0.3400    2.2720 ny        1 819     -0.643800
      7 C8          5.3110    0.3080    2.6480 c3        1 819      0.192100
      8 C9          5.5430    0.1880    4.1080 ca        1 819     -0.219300
      9 C12         6.2210   -0.9240    4.6220 ca        1 819     -0.077000
     10 C13         6.4780   -1.0280    5.9820 ca        1 819     -0.136000
     11 C10         5.1320    1.2080    4.9750 ca        1 819     -0.077000
     12 C11         5.3870    1.1230    6.3370 ca        1 819     -0.136000
     13 C14         6.0570   -0.0050    6.8680 ca        1 819      0.089800
     14 N15         6.3170   -0.1060    8.2400 na        1 819     -0.271800
     15 C16         7.4770   -0.6590    8.8410 cc        1 819      0.456800
     16 S17         8.7770   -1.3120    7.9850 sh        1 819     -0.292100
     17 N18         7.3400   -0.5480   10.1970 nd        1 819     -0.336000
     18 N20         6.1880    0.0180   10.4880 nd        1 819     -0.295000
     19 C21         5.5120    0.3120    9.3420 cc        1 819      0.469000
     20 C22         4.1810    0.8990    9.2510 ca        1 819     -0.215500
     21 C23         3.0540    0.0700    9.2900 ca        1 819     -0.033000
     22 C24         1.7600    0.5910    9.3140 ca        1 819     -0.128300
     23 C25         0.5700   -0.3140    9.3660 c3        1 819     -0.018400
     24 C27         0.5030   -1.1970    8.1340 c3        1 819     -0.088100
     25 C26         0.5880   -1.1620   10.6250 c3        1 819     -0.088100
     26 C28         1.6070    1.9960    9.3170 ca        1 819      0.188100
     27 O29         0.3270    2.4890    9.3380 oh        1 819     -0.485100
     28 C31         2.7170    2.8500    9.2790 ca        1 819     -0.304000
     29 C32         4.0030    2.2960    9.2420 ca        1 819      0.186100
     30 O33         5.1270    3.0780    9.1370 oh        1 819     -0.496100
     31 H1          1.0210    1.3960   -2.2400 hc        1 819      0.074700
     32 H1A         0.4110    0.9080   -0.5970 hc        1 819      0.074700
     33 H1B         1.4980    2.3510   -0.7660 hc        1 819      0.074700
     34 H2          3.3980    0.8470   -1.5270 h1        1 819      0.081200
     35 H2A         2.2950   -0.6170   -1.3570 h1        1 819      0.081200
     36 HN6         3.2200    0.1710    2.7130 hn        1 819      0.472800
     37 H8          6.1180   -0.2150    2.0560 hx        1 819      0.116700
     38 H8A         5.2540    1.3870    2.3250 hx        1 819      0.116700
     39 H12         6.5720   -1.7220    3.9470 ha        1 819      0.145000
     40 H13         7.0200   -1.9130    6.3660 ha        1 819      0.183500
     41 H10         4.6240    2.1030    4.5800 ha        1 819      0.145000
     42 H11         5.0790    1.9470    7.0070 ha        1 819      0.183500
     43 HS17        9.6200   -1.5040    9.0010 hs        1 819      0.248800
     44 H23         3.1930   -1.0240    9.3250 ha        1 819      0.154000
     45 H25        -0.3640    0.3210    9.3890 hc        1 819      0.078700
     46 H27         0.4510   -0.5740    7.2100 hc        1 819      0.037533
     47 H27A        1.4010   -1.8570    8.0700 hc        1 819      0.037533
     48 H27B       -0.4070   -1.8420    8.1810 hc        1 819      0.037533
     49 H26        -0.3320   -1.7940   10.6690 hc        1 819      0.037533
     50 H26A        1.4800   -1.8320   10.6420 hc        1 819      0.037533
     51 H26B        0.6160   -0.5110   11.5310 hc        1 819      0.037533
     52 HO29        0.3700    3.4490    9.4650 ho        1 819      0.431000
     53 H31         2.5840    3.9410    9.2970 ha        1 819      0.148000
     54 HO33        4.9050    3.9720    9.4400 ho        1 819      0.436000
     55 H62         3.9910   -1.3090    2.6170 hn        1 819      0.472800
@<TRIPOS>BOND
     1    1    2 1   
     2    1   31 1   
     3    1   32 1   
     4    1   33 1   
     5    2    3 1   
     6    2   34 1   
     7    2   35 1   
     8    3    4 1   
     9    4    5 2   
    10    4    6 1   
    11    6    7 1   
    12    6   36 1   
    13    6   55 1   
    14    7    8 1   
    15    7   37 1   
    16    7   38 1   
    17    8    9 ar  
    18    8   11 ar  
    19    9   10 ar  
    20    9   39 1   
    21   10   13 ar  
    22   10   40 1   
    23   11   12 ar  
    24   11   41 1   
    25   12   13 ar  
    26   12   42 1   
    27   13   14 1   
    28   14   15 1   
    29   14   19 1   
    30   15   16 1   
    31   15   17 2   
    32   16   43 1   
    33   17   18 1   
    34   18   19 2   
    35   19   20 1   
    36   20   21 ar  
    37   20   29 ar  
    38   21   22 ar  
    39   21   44 1   
    40   22   23 1   
    41   22   26 ar  
    42   23   24 1   
    43   23   25 1   
    44   23   45 1   
    45   24   46 1   
    46   24   47 1   
    47   24   48 1   
    48   25   49 1   
    49   25   50 1   
    50   25   51 1   
    51   26   27 1   
    52   26   28 ar  
    53   27   52 1   
    54   28   29 ar  
    55   28   53 1   
    56   29   30 1   
    57   30   54 1   
@<TRIPOS>SUBSTRUCTURE
     1 819         1 TEMP              0 ****  ****    0 ROOT
