@<TRIPOS>MOLECULE
81A
   57    59     1     0     0
SMALL
bcc


@<TRIPOS>ATOM
      1 S          -1.4250    0.9070   -4.9340 sy        1 81A      1.392300
      2 O4         -1.8740    1.9110   -5.7910 o         1 81A     -0.660800
      3 O5         -1.9440    0.8360   -3.6070 o         1 81A     -0.660800
      4 C16        -1.5380   -0.5900   -5.6730 c3        1 81A     -0.386300
      5 C26         0.7250    0.7270   -3.3420 ca        1 81A     -0.241500
      6 C25         2.0710    0.9660   -3.0720 ca        1 81A     -0.026000
      7 C24         2.9350    1.4670   -4.0560 ca        1 81A     -0.093000
      8 C23         2.4520    1.7430   -5.3260 ca        1 81A     -0.098000
      9 C28         1.0970    1.5280   -5.6060 ca        1 81A     -0.040000
     10 C27         0.2360    1.0310   -4.6350 ca        1 81A     -0.282500
     11 C2          1.1700   -3.3040    1.2920 ca        1 81A     -0.028300
     12 C2A         1.6460   -4.7050    1.3900 c3        1 81A     -0.056800
     13 C6          0.8180   -1.3010   -0.0130 ca        1 81A      0.203100
     14 C1          1.2790   -2.6200    0.0750 ca        1 81A     -0.180000
     15 C3          0.6000   -2.6790    2.4010 ca        1 81A     -0.183000
     16 C5          0.2440   -0.6460    1.0900 ca        1 81A     -0.258000
     17 C4          0.1400   -1.3530    2.2910 ca        1 81A      0.148100
     18 O8          1.0100   -0.6270   -1.1850 os        1 81A     -0.520800
     19 O21        -0.8880   -1.0830   -2.5740 o         1 81A     -0.631300
     20 O22        -0.7530    0.9830   -1.2280 o         1 81A     -0.631300
     21 O7         -0.3900   -0.8300    3.4550 os        1 81A     -0.347900
     22 C10        -0.9980    0.4670    3.3350 c3        1 81A      0.157400
     23 C14        -1.6320    0.8000    4.6610 cx        1 81A     -0.170000
     24 CEA        -3.0730    0.3950    4.8900 cx        1 81A     -0.109400
     25 CEB        -1.9830   -0.2970    5.6410 cx        1 81A     -0.109400
     26 C15        -1.2190    2.1450    5.1940 c3        1 81A      0.166400
     27 O16         0.2140    2.2670    5.3410 os        1 81A     -0.251100
     28 N10         0.6890    1.8900    6.5480 nh        1 81A     -0.531700
     29 C17         1.7800    0.9020    6.3680 c2        1 81A      0.718100
     30 N11         2.9690    1.2180    6.8090 n2        1 81A     -0.865100
     31 N12         1.3800   -0.3630    5.8600 nh        1 81A     -0.918800
     32 H161       -2.5110   -0.7200   -6.2130 h1        1 81A      0.138700
     33 H162       -0.7390   -0.7980   -6.4260 h1        1 81A      0.138700
     34 H163       -1.4870   -1.4310   -4.9240 h1        1 81A      0.138700
     35 H25         2.4830    0.7490   -2.0670 ha        1 81A      0.178000
     36 H24         3.9950    1.6400   -3.8100 ha        1 81A      0.151000
     37 H23         3.1190    2.1360   -6.1090 ha        1 81A      0.149000
     38 H28         0.7030    1.7820   -6.6060 ha        1 81A      0.153000
     39 H21A        0.8890   -5.3950    0.9400 hc        1 81A      0.047367
     40 H22A        2.6090   -4.8330    0.8360 hc        1 81A      0.047367
     41 H23A        1.8060   -5.0040    2.4540 hc        1 81A      0.047367
     42 H1          1.7250   -3.1040   -0.8040 ha        1 81A      0.147000
     43 H3          0.5020   -3.2050    3.3600 ha        1 81A      0.148000
     44 H5         -0.1100    0.3910    0.9840 ha        1 81A      0.171000
     45 H101       -0.1990    1.2140    3.0790 h1        1 81A      0.058200
     46 H102       -1.7720    0.4410    2.5220 h1        1 81A      0.058200
     47 H141       -3.6000   -0.1470    4.0840 hc        1 81A      0.081700
     48 H142       -3.7400    1.0950    5.4250 hc        1 81A      0.081700
     49 H143       -1.7260   -1.3400    5.3770 hc        1 81A      0.081700
     50 H144       -1.8500   -0.0940    6.7200 hc        1 81A      0.081700
     51 H151       -1.4400    2.9460    4.4350 h1        1 81A      0.065200
     52 H152       -1.7490    2.3710    6.1550 h1        1 81A      0.065200
     53 HE          1.0810    2.7280    6.9810 hn        1 81A      0.393800
     54 HH12        3.6530    0.4940    6.7770 hn        1 81A      0.395400
     55 HH21        2.0630   -0.7950    5.2770 hn        1 81A      0.404800
     56 HH22        0.4650   -0.3910    5.4580 hn        1 81A      0.404800
     57 S20        -0.2670    0.0560   -2.1100 sy        1 81A      1.668800
@<TRIPOS>BOND
     1    1    2 2   
     2    1    3 2   
     3    1    4 1   
     4    1   10 1   
     5    4   32 1   
     6    4   33 1   
     7    4   34 1   
     8    5    6 ar  
     9    5   10 ar  
    10    5   57 1   
    11    6    7 ar  
    12    6   35 1   
    13    7    8 ar  
    14    7   36 1   
    15    8    9 ar  
    16    8   37 1   
    17    9   10 ar  
    18    9   38 1   
    19   11   12 1   
    20   11   14 ar  
    21   11   15 ar  
    22   12   39 1   
    23   12   40 1   
    24   12   41 1   
    25   13   14 ar  
    26   13   16 ar  
    27   13   18 1   
    28   14   42 1   
    29   15   17 ar  
    30   15   43 1   
    31   16   17 ar  
    32   16   44 1   
    33   17   21 1   
    34   18   57 1   
    35   19   57 2   
    36   20   57 2   
    37   21   22 1   
    38   22   23 1   
    39   22   45 1   
    40   22   46 1   
    41   23   24 1   
    42   23   25 1   
    43   23   26 1   
    44   24   25 1   
    45   24   47 1   
    46   24   48 1   
    47   25   49 1   
    48   25   50 1   
    49   26   27 1   
    50   26   51 1   
    51   26   52 1   
    52   27   28 1   
    53   28   29 1   
    54   28   53 1   
    55   29   30 2   
    56   29   31 1   
    57   30   54 1   
    58   31   55 1   
    59   31   56 1   
@<TRIPOS>SUBSTRUCTURE
     1 81A         1 TEMP              0 ****  ****    0 ROOT
