@<TRIPOS>MOLECULE
81A
   57    58     1     0     0
SMALL
bcc


@<TRIPOS>ATOM
      1 S           0.3470    0.0040   -0.5410 s6        1 81A      2.875000
      2 O4          1.0100   -1.1090   -1.0840 o         1 81A     -0.935500
      3 O5          1.0000    0.6790    0.4960 o         1 81A     -0.935500
      4 C16        -0.0140    1.1010   -1.7740 c3        1 81A     -0.943000
      5 C26        -1.8120   -1.7460   -0.5490 c3        1 81A     -0.670000
      6 C25        -2.4070   -2.4780    0.6300 c2        1 81A     -0.137000
      7 C24        -2.8040   -1.8700    1.7720 c2        1 81A     -0.116000
      8 C23        -2.8450   -0.3940    1.7590 c2        1 81A     -0.089000
      9 C28        -1.9210    0.0450    0.9170 c1        1 81A      0.045000
     10 C27        -1.1980   -0.4480   -0.0840 c2        1 81A     -0.795000
     11 C2         -4.1230   -0.8870   -7.7630 c1        1 81A     -0.104000
     12 C2A        -3.8690   -0.3570   -9.0620 c3        1 81A     -0.123000
     13 C6         -2.3210   -1.2570   -4.3080 c2        1 81A     -0.002000
     14 C1         -1.4730   -0.9690   -5.3180 c2        1 81A     -0.071000
     15 C3         -4.3320   -1.3350   -6.6730 c1        1 81A     -0.211000
     16 C5         -3.6990   -1.5660   -4.2910 c1        1 81A     -0.186000
     17 C4         -4.6210   -1.8830   -5.3680 c3        1 81A      0.164000
     18 O8         -1.8340   -1.2310   -3.0090 os        1 81A     -0.630000
     19 O21        -3.8810   -0.6560   -1.6290 o         1 81A     -0.916500
     20 O22        -3.3810   -3.0030   -2.0730 o         1 81A     -0.916500
     21 O7         -5.9710   -1.5040   -5.0540 os        1 81A     -0.261000
     22 C10        -6.4860   -2.1500   -3.8820 c3        1 81A      0.008000
     23 C14        -7.5600   -1.2690   -3.3030 cx        1 81A     -0.134000
     24 CEA        -7.9460   -1.5230   -1.8630 cx        1 81A     -0.195500
     25 CEB        -7.1920   -0.2800   -2.2200 cx        1 81A     -0.195500
     26 C15        -8.6200   -0.8420   -4.2790 c3        1 81A      0.018000
     27 O16        -9.2060   -2.0660   -4.8120 os        1 81A     -0.237000
     28 N10        -9.9660   -1.8630   -5.9040 n3        1 81A     -0.113000
     29 C17        -9.3410   -2.4720   -7.0990 c2        1 81A      0.122000
     30 N11        -8.0190   -2.0400   -7.3940 n3        1 81A     -0.369000
     31 N12       -10.0890   -3.2360   -7.8530 n2        1 81A     -0.340000
     32 H161       -0.5000    0.6100   -2.6560 h1        1 81A      0.158333
     33 H162        0.9130    1.5960   -2.1570 h1        1 81A      0.158333
     34 H163       -0.6970    1.9240   -1.4520 h1        1 81A      0.158333
     35 H25        -0.9250   -2.3660   -0.9050 h1        1 81A      0.216000
     36 H24        -2.5000   -3.5680    0.4920 ha        1 81A      0.167000
     37 H23        -3.1890   -2.4080    2.6460 ha        1 81A      0.160000
     38 H28        -3.6160    0.1640    2.2950 ha        1 81A      0.184000
     39 H21A       -3.4880   -1.1580   -9.7480 hc        1 81A      0.104333
     40 H22A       -3.1050    0.4630   -9.0120 hc        1 81A      0.104333
     41 H23A       -4.8120    0.0650   -9.4980 hc        1 81A      0.104333
     42 H1         -0.4190   -0.7110   -5.1370 ha        1 81A      0.148500
     43 H3         -1.8220   -0.9760   -6.3620 ha        1 81A      0.148500
     44 H5         -4.5720   -3.0300   -5.4210 h1        1 81A      0.146000
     45 H101       -5.6700   -2.3270   -3.1300 h1        1 81A      0.097000
     46 H102       -6.9280   -3.1310   -4.2080 h1        1 81A      0.097000
     47 H141       -7.4290   -2.3280   -1.3110 hc        1 81A      0.121750
     48 H142       -9.0130   -1.4500   -1.5870 hc        1 81A      0.121750
     49 H143       -6.1260   -0.1870   -1.9320 hc        1 81A      0.121750
     50 H144       -7.7160    0.6920   -2.1950 hc        1 81A      0.121750
     51 H151       -8.1630   -0.2290   -5.0990 h1        1 81A      0.095500
     52 H152       -9.4310   -0.2580   -3.7720 h1        1 81A      0.095500
     53 HE        -10.8560   -2.3310   -5.7250 hn        1 81A      0.199000
     54 HH12       -7.5130   -1.6380   -6.6320 hn        1 81A      0.199000
     55 HH21       -7.4820   -2.7010   -7.9090 hn        1 81A      0.199000
     56 HH22       -9.6840   -3.5300   -8.7140 hn        1 81A      0.148000
     57 S20        -3.0000   -1.6940   -1.8390 s6        1 81A      2.821000
@<TRIPOS>BOND
     1    1    2 1   
     2    1    3 1   
     3    1    4 1   
     4    1   10 1   
     5    4   32 1   
     6    4   33 1   
     7    4   34 1   
     8    5    6 1   
     9    5   10 1   
    10    5   35 1   
    11    5   57 1   
    12    6    7 1   
    13    6   36 1   
    14    7    8 1   
    15    7   37 1   
    16    8    9 1   
    17    8   38 1   
    18    9   10 1   
    19   11   12 1   
    20   11   15 1   
    21   12   39 1   
    22   12   40 1   
    23   12   41 1   
    24   13   14 1   
    25   13   16 1   
    26   13   18 1   
    27   14   42 1   
    28   14   43 1   
    29   15   17 1   
    30   16   17 1   
    31   17   21 1   
    32   17   44 1   
    33   18   57 1   
    34   19   57 1   
    35   20   57 1   
    36   21   22 1   
    37   22   23 1   
    38   22   45 1   
    39   22   46 1   
    40   23   24 1   
    41   23   25 1   
    42   23   26 1   
    43   24   25 1   
    44   24   47 1   
    45   24   48 1   
    46   25   49 1   
    47   25   50 1   
    48   26   27 1   
    49   26   51 1   
    50   26   52 1   
    51   27   28 1   
    52   28   29 1   
    53   28   53 1   
    54   29   30 1   
    55   29   31 1   
    56   30   54 1   
    57   30   55 1   
    58   31   56 1   
@<TRIPOS>SUBSTRUCTURE
     1 81A         1 TEMP              0 ****  ****    0 ROOT
