@<TRIPOS>MOLECULE
821
   74    77     1     0     0
SMALL
bcc


@<TRIPOS>ATOM
      1 C1          1.3280   -1.4040   -2.5710 ce        1 821     -0.022200
      2 C2          1.7390   -0.2730   -1.9420 cf        1 821     -0.091600
      3 N3          1.0810    0.9700   -2.0870 n         1 821     -0.460100
      4 C4          0.2760    1.5520   -1.1140 c         1 821      0.658100
      5 C5         -0.6680    2.6360   -1.5780 c3        1 821     -0.183100
      6 O9          0.3590    1.2520    0.0970 o         1 821     -0.640100
      7 C10         3.0280   -0.3500   -1.1630 c         1 821      0.683300
      8 O11         3.9220   -1.1480   -1.5130 o         1 821     -0.616100
      9 N12         3.1900    0.4800   -0.0710 n         1 821     -0.557900
     10 C14         4.3120    0.3700    0.8180 c3        1 821      0.046700
     11 C15         5.1580    1.6440    0.9420 c3        1 821     -0.087400
     12 C16         4.3950    2.9140    1.2320 c3        1 821     -0.080400
     13 C19         3.7680    2.9440    2.6060 c3        1 821     -0.099400
     14 C22         2.6270    1.9420    2.7700 c3        1 821      0.091000
     15 C25         3.9110   -0.1310    2.2260 c         1 821      0.682500
     16 N26         3.0250    0.5780    3.0210 n         1 821     -0.471800
     17 O29         4.4020   -1.2040    2.6310 o         1 821     -0.647500
     18 C30         2.5490   -0.0180    4.2510 c3        1 821      0.132300
     19 C31         1.0570   -0.0580    4.4320 ca        1 821     -0.098300
     20 C34         0.5670   -0.1720    5.7400 ca        1 821     -0.124000
     21 C35        -0.8000   -0.2640    5.9800 ca        1 821     -0.117500
     22 C36        -1.7100   -0.2380    4.9130 cp        1 821     -0.047000
     23 C37        -1.2180   -0.1200    3.6070 ca        1 821     -0.117500
     24 C38         0.1520   -0.0310    3.3670 ca        1 821     -0.124000
     25 C43        -3.1470   -0.3320    5.1620 cp        1 821     -0.030000
     26 C44        -4.0500    0.4350    4.4110 ca        1 821     -0.120000
     27 C45        -5.4200    0.3440    4.6490 ca        1 821     -0.132000
     28 C46        -5.9050   -0.5150    5.6350 ca        1 821     -0.132000
     29 C47        -5.0140   -1.2830    6.3840 ca        1 821     -0.132000
     30 C48        -3.6440   -1.1930    6.1510 ca        1 821     -0.120000
     31 C56         0.1120   -1.4990   -3.3600 ca        1 821     -0.159800
     32 C57        -1.1260   -1.0910   -2.8370 ca        1 821     -0.102000
     33 C58        -2.2740   -1.1640   -3.6100 ca        1 821     -0.160000
     34 C59        -2.2260   -1.6180   -4.9410 ca        1 821      0.057700
     35 C60        -0.9850   -2.0290   -5.4650 ca        1 821     -0.206600
     36 C61         0.1630   -1.9960   -4.6670 ca        1 821     -0.052000
     37 C65        -3.4670   -1.6380   -5.7410 c3        1 821     -0.205100
     38 C66        -3.5750   -0.3700   -6.6440 c         1 821      0.924600
     39 O69        -4.1700    0.6310   -6.1680 o         1 821     -0.822300
     40 O70        -3.0730   -0.4470   -7.7990 o         1 821     -0.822300
     41 C71        -0.8700   -2.4380   -6.8820 c         1 821      0.562500
     42 O72         0.0300   -3.1880   -7.2800 o         1 821     -0.580100
     43 H1          1.9660   -2.3050   -2.5290 ha        1 821      0.164000
     44 H3          0.8040    1.1510   -3.0330 hn        1 821      0.322500
     45 H51        -1.1510    3.1020   -0.6850 hc        1 821      0.074033
     46 H52        -0.1230    3.4240   -2.1520 hc        1 821      0.074033
     47 H53        -1.4610    2.1950   -2.2320 hc        1 821      0.074033
     48 H12         2.4250    1.0370    0.2330 hn        1 821      0.335500
     49 H14         5.0000   -0.4430    0.4110 h1        1 821      0.119700
     50 H151        5.7180    1.7790   -0.0220 hc        1 821      0.053700
     51 H152        5.9150    1.4650    1.7510 hc        1 821      0.053700
     52 H161        3.6050    3.0820    0.4530 hc        1 821      0.044700
     53 H162        5.1130    3.7770    1.1520 hc        1 821      0.044700
     54 H191        3.3380    3.9670    2.7810 hc        1 821      0.046200
     55 H192        4.5540    2.7740    3.3870 hc        1 821      0.046200
     56 H221        1.9510    1.9870    1.8660 h1        1 821      0.059200
     57 H222        2.0000    2.2790    3.6470 h1        1 821      0.059200
     58 H301        2.9260   -1.0840    4.3080 h1        1 821      0.065700
     59 H302        2.9980    0.5490    5.1200 h1        1 821      0.065700
     60 H34         1.2700   -0.1930    6.5870 ha        1 821      0.146500
     61 H35        -1.1710   -0.3490    7.0120 ha        1 821      0.135000
     62 H37        -1.9170   -0.1060    2.7560 ha        1 821      0.135000
     63 H38         0.5040    0.0660    2.3240 ha        1 821      0.146500
     64 H44        -3.6720    1.1150    3.6330 ha        1 821      0.136000
     65 H45        -6.1190    0.9490    4.0540 ha        1 821      0.129500
     66 H46        -6.9870   -0.5880    5.8190 ha        1 821      0.127000
     67 H47        -5.3930   -1.9650    7.1590 ha        1 821      0.129500
     68 H48        -2.9450   -1.8080    6.7380 ha        1 821      0.136000
     69 H57        -1.1830   -0.7240   -1.8000 ha        1 821      0.122000
     70 H58        -3.2400   -0.8390   -3.1950 ha        1 821      0.143000
     71 H61         1.1170   -2.3470   -5.0920 ha        1 821      0.145000
     72 H651       -3.5000   -2.5390   -6.4040 hc        1 821      0.048200
     73 H652       -4.3650   -1.6570   -5.0720 hc        1 821      0.048200
     74 H71        -1.6370   -1.9960   -7.5690 h4        1 821      0.090200
@<TRIPOS>BOND
     1    1    2 2   
     2    1   31 1   
     3    1   43 1   
     4    2    3 1   
     5    2    7 1   
     6    3    4 1   
     7    3   44 1   
     8    4    5 1   
     9    4    6 2   
    10    5   45 1   
    11    5   46 1   
    12    5   47 1   
    13    7    8 2   
    14    7    9 1   
    15    9   10 1   
    16    9   48 1   
    17   10   11 1   
    18   10   15 1   
    19   10   49 1   
    20   11   12 1   
    21   11   50 1   
    22   11   51 1   
    23   12   13 1   
    24   12   52 1   
    25   12   53 1   
    26   13   14 1   
    27   13   54 1   
    28   13   55 1   
    29   14   16 1   
    30   14   56 1   
    31   14   57 1   
    32   15   16 1   
    33   15   17 2   
    34   16   18 1   
    35   18   19 1   
    36   18   58 1   
    37   18   59 1   
    38   19   20 ar  
    39   19   24 ar  
    40   20   21 ar  
    41   20   60 1   
    42   21   22 ar  
    43   21   61 1   
    44   22   23 ar  
    45   22   25 1   
    46   23   24 ar  
    47   23   62 1   
    48   24   63 1   
    49   25   26 ar  
    50   25   30 ar  
    51   26   27 ar  
    52   26   64 1   
    53   27   28 ar  
    54   27   65 1   
    55   28   29 ar  
    56   28   66 1   
    57   29   30 ar  
    58   29   67 1   
    59   30   68 1   
    60   31   32 ar  
    61   31   36 ar  
    62   32   33 ar  
    63   32   69 1   
    64   33   34 ar  
    65   33   70 1   
    66   34   35 ar  
    67   34   37 1   
    68   35   36 ar  
    69   35   41 1   
    70   36   71 1   
    71   37   38 1   
    72   37   72 1   
    73   37   73 1   
    74   38   39 1   
    75   38   40 1   
    76   41   42 2   
    77   41   74 1   
@<TRIPOS>SUBSTRUCTURE
     1 821         1 TEMP              0 ****  ****    0 ROOT
