@<TRIPOS>MOLECULE
821
   74    67     1     0     0
SMALL
bcc


@<TRIPOS>ATOM
      1 C1         -4.4170   -0.8110    0.7470 c1        1 821     -0.037000
      2 C2         -3.0920   -1.1700    0.9070 c1        1 821     -0.065000
      3 N3         -2.6400   -1.6540    2.1440 n2        1 821     -0.310000
      4 C4         -1.9120   -0.7880    3.0310 c2        1 821      0.302000
      5 C5         -1.5410   -1.2740    4.4620 c3        1 821     -0.248000
      6 O9         -1.5490    0.3190    2.6460 o         1 821     -0.385000
      7 C10        -2.0940   -1.0420   -0.3000 c2        1 821      0.360000
      8 O11        -2.5040   -1.1730   -1.4460 o         1 821     -0.398000
      9 N12        -0.7010   -0.6150   -0.0620 n         1 821     -0.361000
     10 C14         0.2760   -0.3230   -1.3140 c3        1 821     -0.008000
     11 C15        -0.5660   -0.2240   -2.6160 c3        1 821     -0.171000
     12 C16        -1.1130    1.4140   -2.8780 c3        1 821     -0.170000
     13 C19         0.2530    2.5090   -3.2500 c3        1 821     -0.195000
     14 C22         1.5240    2.1070   -2.4560 c3        1 821     -0.053000
     15 C25         0.7760    0.7230   -1.1870 c2        1 821      0.283000
     16 N26         1.5100    0.9680   -2.2230 n         1 821     -0.309000
     17 O29         0.2150    1.6340   -0.5510 o         1 821     -0.279000
     18 C30         2.3590   -0.0040   -2.8710 c3        1 821     -0.017000
     19 C31         3.8620    0.3170   -2.5540 c2        1 821     -0.075000
     20 C34         4.6860   -0.6760   -2.0600 c2        1 821     -0.105000
     21 C35         6.0390   -0.4400   -1.9080 c1        1 821     -0.123000
     22 C36         6.5760    0.8070   -2.2540 c1        1 821     -0.037000
     23 C37         5.7660    1.7850   -2.7400 c1        1 821     -0.121000
     24 C38         4.3890    1.5440   -2.8950 c1        1 821     -0.128000
     25 C43         7.9530    1.0220   -2.1690 c1        1 821     -0.037000
     26 C44         8.6220    0.7990   -0.9600 c1        1 821     -0.128500
     27 C45         9.9780    1.0760   -0.8570 c1        1 821     -0.128500
     28 C46        10.6630    1.5690   -1.9380 c1        1 821     -0.128500
     29 C47         9.9950    1.7910   -3.1430 c1        1 821     -0.128500
     30 C48         8.6350    1.5130   -3.2470 c1        1 821     -0.121000
     31 C56        -5.4230   -0.9410    1.9550 c1        1 821     -0.144000
     32 C57        -5.4830    0.0660    2.9130 c2        1 821     -0.098000
     33 C58        -6.5060    0.0760    3.8420 c1        1 821     -0.161000
     34 C59        -7.4740   -0.9180    3.8230 c1        1 821      0.066000
     35 C60        -7.4160   -1.9220    2.8690 c1        1 821     -0.187000
     36 C61        -6.3880   -1.9320    1.9350 c1        1 821     -0.052000
     37 C65        -8.6660   -0.8400    4.7820 c3        1 821     -0.241000
     38 C66        -8.3490   -1.5870    6.0220 c2        1 821      0.345000
     39 O69        -8.9080   -2.6700    6.2510 o         1 821     -0.557000
     40 O70        -7.5760   -1.0840    6.8790 o         1 821     -0.557000
     41 C71        -8.5740   -3.0000    2.7810 c2        1 821      0.210000
     42 O72        -8.5220   -3.8860    1.9380 o         1 821     -0.344000
     43 H1         -4.7260   -0.4790   -0.1050 ha        1 821      0.158000
     44 H3         -2.7640   -2.5260    2.3630 hn        1 821      0.236000
     45 H51        -0.7820   -1.9230    4.4080 hc        1 821      0.111333
     46 H52        -2.3170   -1.7120    4.8680 hc        1 821      0.111333
     47 H53        -1.2740   -0.5020    5.0130 hc        1 821      0.111333
     48 H12        -0.3850   -0.5290    0.8020 hn        1 821      0.264000
     49 H14         0.8670   -1.0700   -1.2620 h1        1 821      0.143000
     50 H151       -1.3340   -0.8070   -2.5430 hc        1 821      0.096500
     51 H152       -0.0230   -0.5050   -3.3680 hc        1 821      0.096500
     52 H161       -1.5740    1.7350   -2.0660 hc        1 821      0.093000
     53 H162       -1.7370    1.4240   -3.6210 hc        1 821      0.093000
     54 H191        0.4470    2.4660   -4.2110 hc        1 821      0.083000
     55 H192        0.0040    3.4290   -3.0140 hc        1 821      0.083000
     56 H221        2.3240    2.3200   -2.9930 h1        1 821      0.103000
     57 H222        1.5530    2.6050   -1.6240 h1        1 821      0.103000
     58 H301        2.1440   -0.8920   -2.5440 h1        1 821      0.088500
     59 H302        2.2140    0.0320   -3.8440 h1        1 821      0.088500
     60 H34         4.3220   -1.5740   -1.8880 ha        1 821      0.153000
     61 H35         6.6340   -1.1600   -1.5500 ha        1 821      0.135000
     62 H37         6.1420    2.6590   -2.9840 ha        1 821      0.134000
     63 H38         3.7990    2.2550   -3.2490 ha        1 821      0.132000
     64 H44         8.1240    0.4460   -0.1730 ha        1 821      0.130750
     65 H45        10.4580    0.8780   -0.0210 ha        1 821      0.130750
     66 H46        11.6130    1.8220   -1.8470 ha        1 821      0.130750
     67 H47        10.5060    2.0970   -3.9510 ha        1 821      0.130750
     68 H48         8.3670    1.6600   -4.1900 ha        1 821      0.134000
     69 H57        -4.7670    0.7550    2.9550 ha        1 821      0.123000
     70 H58        -6.5180    0.7670    4.5580 ha        1 821      0.143000
     71 H61        -6.3470   -2.6460    1.2560 ha        1 821      0.143000
     72 H651       -9.4410   -1.2260    4.3640 hc        1 821      0.087000
     73 H652       -8.8470    0.0990    5.0030 hc        1 821      0.087000
     74 H71        -9.3390   -2.9620    3.4140 h4        1 821      0.185000
@<TRIPOS>BOND
     1    1    2 1   
     2    1   43 1   
     3    2    7 1   
     4    3    4 1   
     5    3   44 1   
     6    4    5 1   
     7    4    6 1   
     8    5   45 1   
     9    5   46 1   
    10    5   47 1   
    11    7    8 1   
    12    7    9 1   
    13    9   10 1   
    14    9   48 1   
    15   10   11 1   
    16   10   15 1   
    17   10   49 1   
    18   11   12 1   
    19   11   50 1   
    20   11   51 1   
    21   12   13 1   
    22   12   52 1   
    23   12   53 1   
    24   13   14 1   
    25   13   54 1   
    26   13   55 1   
    27   14   16 1   
    28   14   56 1   
    29   14   57 1   
    30   15   16 1   
    31   15   17 1   
    32   16   18 1   
    33   18   19 1   
    34   18   58 1   
    35   18   59 1   
    36   19   20 1   
    37   19   24 1   
    38   20   21 1   
    39   20   60 1   
    40   21   61 1   
    41   22   23 1   
    42   23   62 1   
    43   24   63 1   
    44   25   30 1   
    45   26   27 1   
    46   26   64 1   
    47   27   65 1   
    48   28   29 1   
    49   28   66 1   
    50   29   67 1   
    51   30   68 1   
    52   31   32 1   
    53   31   36 1   
    54   32   33 1   
    55   32   69 1   
    56   33   70 1   
    57   34   35 1   
    58   34   37 1   
    59   35   41 1   
    60   36   71 1   
    61   37   38 1   
    62   37   72 1   
    63   37   73 1   
    64   38   39 1   
    65   38   40 1   
    66   41   42 1   
    67   41   74 1   
@<TRIPOS>SUBSTRUCTURE
     1 821         1 TEMP              0 ****  ****    0 ROOT
