@<TRIPOS>MOLECULE
821
   76    78     1     0     0
SMALL
bcc


@<TRIPOS>ATOM
      1 C1         -0.5010   -0.4430    0.3540 ce        1 821     -0.041000
      2 C2          0.9380   -0.3930    0.4860 ce        1 821     -0.377000
      3 N3          1.5440   -0.3900    1.7960 n4        1 821     -0.484600
      4 C4          2.5260   -1.5210    1.9830 c         1 821      0.564100
      5 C5          1.9950   -2.8560    2.3630 c3        1 821     -0.185100
      6 O9          3.7010   -1.2180    1.7840 o         1 821     -0.496100
      7 C10         1.6500   -0.1890   -0.7240 c2        1 821      0.569300
      8 O11         1.2030   -0.2490   -1.8720 o         1 821     -0.532300
      9 N12         3.1480    0.1530   -0.6520 n4        1 821     -0.674800
     10 C14         3.7280    0.5670   -1.9690 c3        1 821      0.057500
     11 C15         3.2770    1.9350   -2.4660 c3        1 821     -0.101400
     12 C16         3.4370    3.0990   -1.5200 c3        1 821     -0.088400
     13 C19         4.8750    3.4690   -1.2500 c3        1 821     -0.112400
     14 C22         5.6410    2.3760   -0.5130 c3        1 821      0.096000
     15 C25         5.2650    0.3820   -1.9530 c         1 821      0.663500
     16 N26         6.0960    1.2700   -1.3180 n         1 821     -0.453800
     17 O29         5.6970   -0.6230   -2.5510 o         1 821     -0.600500
     18 C30         7.5400    1.0890   -1.4360 c3        1 821      0.133300
     19 C31         8.1730    0.4550   -0.2340 ca        1 821     -0.134300
     20 C34         8.7840    1.2420    0.7470 ca        1 821     -0.115000
     21 C35         9.4060    0.6440    1.8390 ca        1 821     -0.123500
     22 C36         9.4260   -0.7530    1.9690 cp        1 821     -0.009000
     23 C37         8.8110   -1.5370    0.9820 ca        1 821     -0.123500
     24 C38         8.1890   -0.9380   -0.1100 ca        1 821     -0.115000
     25 C43        10.0860   -1.3810    3.1110 cp        1 821     -0.057000
     26 C44         9.5200   -2.5060    3.7280 ca        1 821     -0.115500
     27 C45        10.1520   -3.1040    4.8160 ca        1 821     -0.127500
     28 C46        11.3560   -2.5890    5.2980 ca        1 821     -0.115000
     29 C47        11.9260   -1.4720    4.6880 ca        1 821     -0.127500
     30 C48        11.2960   -0.8690    3.6010 ca        1 821     -0.115500
     31 C56        -1.4700   -0.8470    1.2120 cd        1 821     -0.098000
     32 C57        -1.3110   -1.5220    2.4870 cd        1 821     -0.184000
     33 C58        -2.3210   -1.6160    3.3740 cc        1 821     -0.071000
     34 C59        -3.6360   -1.0380    3.1160 cc        1 821     -0.064000
     35 C60        -3.8770   -0.6540    1.7270 cc        1 821     -0.179200
     36 C61        -2.8560   -0.5740    0.8410 cd        1 821     -0.041000
     37 C65        -4.5270   -0.8780    4.1100 c2        1 821     -0.162000
     38 C66         0.9330    2.0100    4.9540 c1        1 821      0.916000
     39 O69         0.5990    2.7290    5.8300 o         1 821     -0.457000
     40 O70         1.2750    1.2800    4.0680 o         1 821     -0.457000
     41 C71        -5.2600   -0.3850    1.2830 c         1 821      0.568100
     42 O72        -5.5190    0.2280    0.2450 o         1 821     -0.513100
     43 H1         -0.8340   -0.0460   -0.6320 ha        1 821      0.167000
     44 H3          2.0260    0.5040    1.9700 hn        1 821      0.460800
     45 H51         1.5670   -2.8250    3.3980 hc        1 821      0.117367
     46 H52         1.2010   -3.1880    1.6440 hc        1 821      0.117367
     47 H53         2.8370   -3.5980    2.3450 hc        1 821      0.117367
     48 H12         3.2950    0.9030    0.0260 hn        1 821      0.442300
     49 H14         3.3500   -0.1950   -2.7320 hx        1 821      0.154700
     50 H151        3.8610    2.1370   -3.4070 hc        1 821      0.094700
     51 H152        2.1920    1.8520   -2.7590 hc        1 821      0.094700
     52 H161        2.9030    2.9080   -0.5510 hc        1 821      0.050700
     53 H162        2.9250    3.9880   -1.9870 hc        1 821      0.050700
     54 H191        5.3900    3.7250   -2.2140 hc        1 821      0.074700
     55 H192        4.8980    4.3910   -0.6080 hc        1 821      0.074700
     56 H221        6.5530    2.8460   -0.0350 h1        1 821      0.046700
     57 H222        5.0060    1.9880    0.3370 h1        1 821      0.046700
     58 H301        7.7460    0.4460   -2.3430 h1        1 821      0.082200
     59 H302        8.0000    2.1040   -1.6180 h1        1 821      0.082200
     60 H34         8.7890    2.3390    0.6510 ha        1 821      0.138000
     61 H35         9.8880    1.2700    2.6060 ha        1 821      0.144500
     62 H37         8.8370   -2.6350    1.0630 ha        1 821      0.144500
     63 H38         7.7200   -1.5580   -0.8910 ha        1 821      0.138000
     64 H44         8.5720   -2.9170    3.3520 ha        1 821      0.132000
     65 H45         9.7020   -3.9870    5.2940 ha        1 821      0.138500
     66 H46        11.8560   -3.0650    6.1550 ha        1 821      0.141000
     67 H47        12.8790   -1.0670    5.0620 ha        1 821      0.138500
     68 H48        11.7570    0.0060    3.1170 ha        1 821      0.132000
     69 H57        -0.3720   -2.0590    2.6860 ha        1 821      0.093000
     70 H58        -2.1960   -2.1520    4.3280 ha        1 821      0.136000
     71 H61        -3.0580   -0.2780   -0.2050 ha        1 821      0.160000
     72 H651       -5.5190   -0.4320    3.9590 ha        1 821      0.129000
     73 H652       -4.3060   -1.1830    5.1420 ha        1 821      0.129000
     74 H71        -6.0640   -0.7860    1.9390 h4        1 821      0.014200
     75 H32         0.7880   -0.4640    2.4990 hn        1 821      0.460800
     76 H122        3.6620   -0.6780   -0.3350 hn        1 821      0.442300
@<TRIPOS>BOND
     1    1    2 1   
     2    1   31 2   
     3    1   43 1   
     4    2    3 1   
     5    2    7 2   
     6    3    4 1   
     7    3   44 1   
     8    3   75 1   
     9    4    5 1   
    10    4    6 2   
    11    5   45 1   
    12    5   46 1   
    13    5   47 1   
    14    7    8 1   
    15    7    9 1   
    16    9   10 1   
    17    9   48 1   
    18    9   76 1   
    19   10   11 1   
    20   10   15 1   
    21   10   49 1   
    22   11   12 1   
    23   11   50 1   
    24   11   51 1   
    25   12   13 1   
    26   12   52 1   
    27   12   53 1   
    28   13   14 1   
    29   13   54 1   
    30   13   55 1   
    31   14   16 1   
    32   14   56 1   
    33   14   57 1   
    34   15   16 1   
    35   15   17 2   
    36   16   18 1   
    37   18   19 1   
    38   18   58 1   
    39   18   59 1   
    40   19   20 ar  
    41   19   24 ar  
    42   20   21 ar  
    43   20   60 1   
    44   21   22 ar  
    45   21   61 1   
    46   22   23 ar  
    47   22   25 1   
    48   23   24 ar  
    49   23   62 1   
    50   24   63 1   
    51   25   26 ar  
    52   25   30 ar  
    53   26   27 ar  
    54   26   64 1   
    55   27   28 ar  
    56   27   65 1   
    57   28   29 ar  
    58   28   66 1   
    59   29   30 ar  
    60   29   67 1   
    61   30   68 1   
    62   31   32 1   
    63   31   36 1   
    64   32   33 2   
    65   32   69 1   
    66   33   34 1   
    67   33   70 1   
    68   34   35 1   
    69   34   37 2   
    70   35   36 2   
    71   35   41 1   
    72   36   71 1   
    73   37   72 1   
    74   37   73 1   
    75   38   39 2   
    76   38   40 2   
    77   41   42 2   
    78   41   74 1   
@<TRIPOS>SUBSTRUCTURE
     1 821         1 TEMP              0 ****  ****    0 ROOT
