@<TRIPOS>MOLECULE
821
   76    78     1     0     0
SMALL
bcc


@<TRIPOS>ATOM
      1 C1         -0.4900   -0.4510    0.3350 ce        1 821     -0.041000
      2 C2          0.9480   -0.3870    0.4750 ce        1 821     -0.377000
      3 N3          1.5460   -0.3840    1.7880 n4        1 821     -0.484600
      4 C4          2.5390   -1.5040    1.9760 c         1 821      0.564100
      5 C5          2.0220   -2.8460    2.3490 c3        1 821     -0.185100
      6 O9          3.7120   -1.1880    1.7850 o         1 821     -0.496100
      7 C10         1.6640   -0.1700   -0.7300 c2        1 821      0.569300
      8 O11         1.2220   -0.2250   -1.8810 o         1 821     -0.532300
      9 N12         3.1600    0.1800   -0.6490 n4        1 821     -0.674800
     10 C14         3.7410    0.6130   -1.9590 c3        1 821      0.056500
     11 C15         3.2850    1.9840   -2.4420 c3        1 821     -0.101400
     12 C16         3.4360    3.1380   -1.4810 c3        1 821     -0.088400
     13 C19         4.8720    3.5110   -1.2030 c3        1 821     -0.112400
     14 C22         5.6410    2.4130   -0.4760 c3        1 821      0.096000
     15 C25         5.2790    0.4350   -1.9410 c         1 821      0.663500
     16 N26         6.1040    1.3190   -1.2920 n         1 821     -0.453800
     17 O29         5.7180   -0.5600   -2.5500 o         1 821     -0.600500
     18 C30         7.5490    1.1450   -1.4070 c3        1 821      0.133300
     19 C31         8.1780    0.4910   -0.2130 ca        1 821     -0.134300
     20 C34         8.7800    1.2620    0.7850 ca        1 821     -0.115000
     21 C35         9.3990    0.6450    1.8690 ca        1 821     -0.123500
     22 C36         9.4250   -0.7540    1.9720 cp        1 821     -0.009000
     23 C37         8.8190   -1.5220    0.9670 ca        1 821     -0.123500
     24 C38         8.2000   -0.9040   -0.1170 ca        1 821     -0.115000
     25 C43        10.0820   -1.4010    3.1060 cp        1 821     -0.057000
     26 C44         9.5190   -2.5410    3.6970 ca        1 821     -0.115500
     27 C45        10.1480   -3.1570    4.7770 ca        1 821     -0.127500
     28 C46        11.3460   -2.6460    5.2760 ca        1 821     -0.115000
     29 C47        11.9140   -1.5140    4.6910 ca        1 821     -0.127500
     30 C48        11.2870   -0.8920    3.6130 ca        1 821     -0.115500
     31 C56        -1.4590   -0.8690    1.1850 cd        1 821     -0.098000
     32 C57        -1.3000   -1.5510    2.4570 cd        1 821     -0.184000
     33 C58        -2.3140   -1.6600    3.3370 cc        1 821     -0.071000
     34 C59        -3.6340   -1.0950    3.0760 cc        1 821     -0.064000
     35 C60        -3.8710   -0.7050    1.6880 cc        1 821     -0.179200
     36 C61        -2.8470   -0.6090    0.8080 cd        1 821     -0.041000
     37 C65        -4.5320   -0.9500    4.0660 c2        1 821     -0.162000
     38 C66         0.8800    2.0010    4.9470 c1        1 821      0.916000
     39 O69         0.5290    2.7140    5.8210 o         1 821     -0.457000
     40 O70         1.2400    1.2770    4.0620 o         1 821     -0.457000
     41 C71        -5.2540   -0.4480    1.2380 c         1 821      0.568100
     42 O72        -5.5140    0.1690    0.2030 o         1 821     -0.513100
     43 H1         -0.8220   -0.0510   -0.6500 ha        1 821      0.167000
     44 H3          0.7870   -0.4690    2.4860 hn        1 821      0.460800
     45 H51         1.2360   -3.1850    1.6230 hc        1 821      0.117367
     46 H52         2.8720   -3.5780    2.3350 hc        1 821      0.117367
     47 H53         1.5860   -2.8230    3.3810 hc        1 821      0.117367
     48 H12         3.3010    0.9230    0.0370 hn        1 821      0.442300
     49 H14         3.3700   -0.1430   -2.7330 hx        1 821      0.154700
     50 H151        2.2010    1.8990   -2.7390 hc        1 821      0.094700
     51 H152        3.8700    2.2000   -3.3790 hc        1 821      0.094700
     52 H161        2.9010    2.9330   -0.5170 hc        1 821      0.050700
     53 H162        2.9220    4.0290   -1.9400 hc        1 821      0.050700
     54 H191        4.8890    4.4250   -0.5500 hc        1 821      0.074700
     55 H192        5.3890    3.7810   -2.1620 hc        1 821      0.074700
     56 H221        5.0050    2.0120    0.3670 h1        1 821      0.046700
     57 H222        6.5480    2.8820    0.0100 h1        1 821      0.046700
     58 H301        8.0060    2.1650   -1.5680 h1        1 821      0.081700
     59 H302        7.7620    0.5190   -2.3240 h1        1 821      0.081700
     60 H34         8.7800    2.3600    0.7110 ha        1 821      0.138000
     61 H35         9.8740    1.2580    2.6510 ha        1 821      0.144500
     62 H37         8.8500   -2.6210    1.0260 ha        1 821      0.144500
     63 H38         7.7380   -1.5110   -0.9120 ha        1 821      0.138000
     64 H44         8.5740   -2.9490    3.3080 ha        1 821      0.132000
     65 H45         9.6990   -4.0510    5.2350 ha        1 821      0.138500
     66 H46        11.8430   -3.1360    6.1260 ha        1 821      0.141000
     67 H47        12.8620   -1.1120    5.0780 ha        1 821      0.138500
     68 H48        11.7450   -0.0060    3.1480 ha        1 821      0.132000
     69 H57        -0.3560   -2.0790    2.6570 ha        1 821      0.093000
     70 H58        -2.1880   -2.2020    4.2900 ha        1 821      0.136000
     71 H61        -3.0450   -0.3080   -0.2370 ha        1 821      0.160000
     72 H651       -4.3120   -1.2590    5.0980 ha        1 821      0.129000
     73 H652       -5.5270   -0.5140    3.9130 ha        1 821      0.129000
     74 H71        -6.0570   -0.8620    1.8880 h4        1 821      0.014200
     75 H32         2.0170    0.5150    1.9690 hn        1 821      0.460800
     76 H122        3.6770   -0.6510   -0.3390 hn        1 821      0.442300
@<TRIPOS>BOND
     1    1    2 1   
     2    1   31 2   
     3    1   43 1   
     4    2    3 1   
     5    2    7 2   
     6    3    4 1   
     7    3   44 1   
     8    3   75 1   
     9    4    5 1   
    10    4    6 2   
    11    5   45 1   
    12    5   46 1   
    13    5   47 1   
    14    7    8 1   
    15    7    9 1   
    16    9   10 1   
    17    9   48 1   
    18    9   76 1   
    19   10   11 1   
    20   10   15 1   
    21   10   49 1   
    22   11   12 1   
    23   11   50 1   
    24   11   51 1   
    25   12   13 1   
    26   12   52 1   
    27   12   53 1   
    28   13   14 1   
    29   13   54 1   
    30   13   55 1   
    31   14   16 1   
    32   14   56 1   
    33   14   57 1   
    34   15   16 1   
    35   15   17 2   
    36   16   18 1   
    37   18   19 1   
    38   18   58 1   
    39   18   59 1   
    40   19   20 ar  
    41   19   24 ar  
    42   20   21 ar  
    43   20   60 1   
    44   21   22 ar  
    45   21   61 1   
    46   22   23 ar  
    47   22   25 1   
    48   23   24 ar  
    49   23   62 1   
    50   24   63 1   
    51   25   26 ar  
    52   25   30 ar  
    53   26   27 ar  
    54   26   64 1   
    55   27   28 ar  
    56   27   65 1   
    57   28   29 ar  
    58   28   66 1   
    59   29   30 ar  
    60   29   67 1   
    61   30   68 1   
    62   31   32 1   
    63   31   36 1   
    64   32   33 2   
    65   32   69 1   
    66   33   34 1   
    67   33   70 1   
    68   34   35 1   
    69   34   37 2   
    70   35   36 2   
    71   35   41 1   
    72   36   71 1   
    73   37   72 1   
    74   37   73 1   
    75   38   39 2   
    76   38   40 2   
    77   41   42 2   
    78   41   74 1   
@<TRIPOS>SUBSTRUCTURE
     1 821         1 TEMP              0 ****  ****    0 ROOT
