@<TRIPOS>MOLECULE
821
   76    78     1     0     0
SMALL
bcc


@<TRIPOS>ATOM
      1 C1         -0.4930   -0.4430    0.3220 ce        1 821     -0.041000
      2 C2          0.9450   -0.3880    0.4640 ce        1 821     -0.377000
      3 N3          1.5430   -0.3990    1.7780 ny        1 821     -0.484600
      4 C4          2.5270   -1.5280    1.9580 c         1 821      0.564100
      5 C5          2.0000   -2.8690    2.3190 c3        1 821     -0.185100
      6 O9          3.7030   -1.2180    1.7710 o         1 821     -0.496100
      7 C10         1.6650   -0.1670   -0.7390 c2        1 821      0.569300
      8 O11         1.2250   -0.2150   -1.8910 o         1 821     -0.532300
      9 N12         3.1610    0.1780   -0.6530 ny        1 821     -0.674800
     10 C14         3.7480    0.6110   -1.9610 c3        1 821      0.057500
     11 C15         3.2960    1.9830   -2.4440 c3        1 821     -0.101400
     12 C16         3.4470    3.1360   -1.4820 c3        1 821     -0.088400
     13 C19         4.8820    3.5060   -1.1990 c3        1 821     -0.112400
     14 C22         5.6460    2.4060   -0.4700 c3        1 821      0.096000
     15 C25         5.2850    0.4290   -1.9380 c         1 821      0.663500
     16 N26         6.1100    1.3120   -1.2860 n         1 821     -0.453800
     17 O29         5.7240   -0.5670   -2.5460 o         1 821     -0.600500
     18 C30         7.5550    1.1360   -1.3970 c3        1 821      0.133300
     19 C31         8.1810    0.4870   -0.2000 ca        1 821     -0.134300
     20 C34         8.7830    1.2610    0.7960 ca        1 821     -0.115000
     21 C35         9.4000    0.6490    1.8840 ca        1 821     -0.123500
     22 C36         9.4230   -0.7490    1.9940 cp        1 821     -0.009000
     23 C37         8.8170   -1.5210    0.9920 ca        1 821     -0.123500
     24 C38         8.2000   -0.9080   -0.0950 ca        1 821     -0.115000
     25 C43        10.0780   -1.3920    3.1320 cp        1 821     -0.057000
     26 C44         9.5110   -2.5270    3.7290 ca        1 821     -0.115500
     27 C45        10.1380   -3.1390    4.8130 ca        1 821     -0.127500
     28 C46        11.3370   -2.6280    5.3090 ca        1 821     -0.115000
     29 C47        11.9080   -1.5010    4.7190 ca        1 821     -0.127500
     30 C48        11.2830   -0.8830    3.6370 ca        1 821     -0.115500
     31 C56        -1.4650   -0.8600    1.1680 cd        1 821     -0.098000
     32 C57        -1.3120   -1.5500    2.4370 cd        1 821     -0.184000
     33 C58        -2.3290   -1.6570    3.3150 cc        1 821     -0.071000
     34 C59        -3.6440   -1.0820    3.0550 cc        1 821     -0.064000
     35 C60        -3.8770   -0.6820    1.6700 cc        1 821     -0.179200
     36 C61        -2.8510   -0.5880    0.7910 cd        1 821     -0.041000
     37 C65        -4.5420   -0.9370    4.0450 c2        1 821     -0.162000
     38 C66         0.9010    1.9630    4.9590 c1        1 821      0.916000
     39 O69         0.5580    2.6710    5.8400 o         1 821     -0.457000
     40 O70         1.2520    1.2440    4.0660 o         1 821     -0.457000
     41 C71        -5.2580   -0.4130    1.2190 c         1 821      0.568100
     42 O72        -5.5120    0.2110    0.1870 o         1 821     -0.513100
     43 H1         -0.8200   -0.0350   -0.6610 ha        1 821      0.167000
     44 H3          0.7830   -0.4840    2.4740 hn        1 821      0.460800
     45 H51         1.2110   -3.1960    1.5910 hc        1 821      0.117367
     46 H52         1.5640   -2.8510    3.3520 hc        1 821      0.117367
     47 H53         2.8440   -3.6080    2.2990 hc        1 821      0.117367
     48 H12         3.3020    0.9200    0.0350 hn        1 821      0.442300
     49 H14         3.3770   -0.1440   -2.7360 hx        1 821      0.154700
     50 H151        3.8850    2.1980   -3.3790 hc        1 821      0.094700
     51 H152        2.2130    1.9010   -2.7440 hc        1 821      0.094700
     52 H161        2.9360    4.0290   -1.9410 hc        1 821      0.050700
     53 H162        2.9080    2.9310   -0.5190 hc        1 821      0.050700
     54 H191        4.8990    4.4200   -0.5450 hc        1 821      0.074700
     55 H192        5.4020    3.7760   -2.1560 hc        1 821      0.074700
     56 H221        6.5540    2.8720    0.0190 h1        1 821      0.046700
     57 H222        5.0070    2.0050    0.3700 h1        1 821      0.046700
     58 H301        8.0130    2.1540   -1.5620 h1        1 821      0.082200
     59 H302        7.7690    0.5060   -2.3110 h1        1 821      0.082200
     60 H34         8.7860    2.3590    0.7160 ha        1 821      0.138000
     61 H35         9.8760    1.2660    2.6620 ha        1 821      0.144500
     62 H37         8.8450   -2.6200    1.0580 ha        1 821      0.144500
     63 H38         7.7380   -1.5190   -0.8880 ha        1 821      0.138000
     64 H44         8.5660   -2.9350    3.3410 ha        1 821      0.132000
     65 H45         9.6870   -4.0290    5.2750 ha        1 821      0.138500
     66 H46        11.8320   -3.1140    6.1630 ha        1 821      0.141000
     67 H47        12.8570   -1.0990    5.1040 ha        1 821      0.138500
     68 H48        11.7440   -0.0010    3.1680 ha        1 821      0.132000
     69 H57        -0.3720   -2.0860    2.6350 ha        1 821      0.093000
     70 H58        -2.2070   -2.2050    4.2640 ha        1 821      0.136000
     71 H61        -3.0460   -0.2800   -0.2530 ha        1 821      0.160000
     72 H651       -5.5350   -0.4930    3.8930 ha        1 821      0.129000
     73 H652       -4.3260   -1.2530    5.0750 ha        1 821      0.129000
     74 H71        -6.0640   -0.8250    1.8650 h4        1 821      0.014200
     75 H32         2.0200    0.4950    1.9660 hn        1 821      0.460800
     76 H122        3.6760   -0.6550   -0.3430 hn        1 821      0.442300
@<TRIPOS>BOND
     1    1    2 1   
     2    1   31 2   
     3    1   43 1   
     4    2    3 1   
     5    2    7 2   
     6    3    4 1   
     7    3   44 1   
     8    3   75 1   
     9    4    5 1   
    10    4    6 2   
    11    5   45 1   
    12    5   46 1   
    13    5   47 1   
    14    7    8 1   
    15    7    9 1   
    16    9   10 1   
    17    9   48 1   
    18    9   76 1   
    19   10   11 1   
    20   10   15 1   
    21   10   49 1   
    22   11   12 1   
    23   11   50 1   
    24   11   51 1   
    25   12   13 1   
    26   12   52 1   
    27   12   53 1   
    28   13   14 1   
    29   13   54 1   
    30   13   55 1   
    31   14   16 1   
    32   14   56 1   
    33   14   57 1   
    34   15   16 1   
    35   15   17 2   
    36   16   18 1   
    37   18   19 1   
    38   18   58 1   
    39   18   59 1   
    40   19   20 ar  
    41   19   24 ar  
    42   20   21 ar  
    43   20   60 1   
    44   21   22 ar  
    45   21   61 1   
    46   22   23 ar  
    47   22   25 1   
    48   23   24 ar  
    49   23   62 1   
    50   24   63 1   
    51   25   26 ar  
    52   25   30 ar  
    53   26   27 ar  
    54   26   64 1   
    55   27   28 ar  
    56   27   65 1   
    57   28   29 ar  
    58   28   66 1   
    59   29   30 ar  
    60   29   67 1   
    61   30   68 1   
    62   31   32 1   
    63   31   36 1   
    64   32   33 2   
    65   32   69 1   
    66   33   34 1   
    67   33   70 1   
    68   34   35 1   
    69   34   37 2   
    70   35   36 2   
    71   35   41 1   
    72   36   71 1   
    73   37   72 1   
    74   37   73 1   
    75   38   39 2   
    76   38   40 2   
    77   41   42 2   
    78   41   74 1   
@<TRIPOS>SUBSTRUCTURE
     1 821         1 TEMP              0 ****  ****    0 ROOT
