@<TRIPOS>MOLECULE
822
   75    77     1     0     0
SMALL
bcc


@<TRIPOS>ATOM
      1 C1         -1.5810    0.2950   -0.6480 ca        1 822     -0.369000
      2 C2         -0.4820    1.1610   -0.8250 ca        1 822     -0.052000
      3 C3          0.1910    1.2470   -2.0130 ca        1 822     -0.267500
      4 C4         -0.1850    0.4190   -3.1310 ca        1 822      0.045000
      5 C5         -1.3570   -0.3990   -2.9650 ca        1 822     -0.267500
      6 C6         -2.0090   -0.4580   -1.7610 ca        1 822     -0.052000
      7 C11         0.5610    0.4180   -4.2760 c2        1 822     -0.067000
      8 F12         0.4380   -0.3490   -5.3880 f         1 822     -0.139000
      9 F13         1.7120    1.0930   -4.5240 f         1 822     -0.139000
     10 P14         2.7620   -0.1100   -6.6150 p3        1 822      2.410000
     11 O15         2.7640    1.2600   -7.1650 o         1 822     -1.138667
     12 O16         3.6170   -0.4530   -5.4580 o         1 822     -1.138667
     13 O17         2.1650   -1.1960   -7.4180 o         1 822     -1.138667
     14 C18        -2.1420    0.0900    0.6960 c3        1 822     -0.076000
     15 C19        -3.3170    1.0380    1.0270 c3        1 822     -0.012000
     16 C22        -3.8130    0.7430    2.4660 c2        1 822      0.309000
     17 N23        -2.8930    0.8550    3.4780 n         1 822     -0.378000
     18 O24        -4.9930    0.3740    2.6550 o         1 822     -0.412000
     19 N25        -3.0790    2.4420    0.7690 n         1 822     -0.319000
     20 C26        -1.9300    3.1240    1.1670 c2        1 822      0.307000
     21 O27        -1.2520    2.8100    2.1690 o         1 822     -0.400000
     22 C28        -1.5590    4.3530    0.3660 c3        1 822     -0.253000
     23 C32        -3.0180    0.3790    4.8290 c3        1 822      0.041000
     24 C33        -1.6050    0.1570    5.4350 c2        1 822      0.292000
     25 N34        -0.7180   -0.7240    4.8470 n         1 822     -0.328000
     26 O37        -1.2810    0.8220    6.4410 o         1 822     -0.389000
     27 C38        -1.1260   -1.7630    3.9300 c3        1 822     -0.026000
     28 C39        -2.2580   -2.6590    4.4310 c3        1 822     -0.173000
     29 C42         0.7080   -0.5590    5.0610 c3        1 822      0.025000
     30 C43         1.5230   -0.5710    3.7980 ca        1 822     -0.131000
     31 C46        -3.6220   -2.0510    4.2070 c3        1 822     -0.158000
     32 C49        -3.9050   -0.8440    5.0690 c3        1 822     -0.163000
     33 C58         2.5700   -1.4870    3.6570 ca        1 822     -0.124500
     34 C59         3.3300   -1.5170    2.4920 ca        1 822     -0.126500
     35 C60         3.0550   -0.6380    1.4330 cp        1 822      0.003000
     36 C61         2.0080    0.2840    1.5840 ca        1 822     -0.126500
     37 C62         1.2540    0.3210    2.7550 ca        1 822     -0.124500
     38 C67         3.8360   -0.6890    0.1980 cq        1 822     -0.076000
     39 C68         3.2280   -0.4660   -1.0480 ca        1 822     -0.130000
     40 C69         3.9780   -0.5370   -2.2250 ca        1 822     -0.131000
     41 C70         5.3430   -0.8230   -2.1600 ca        1 822     -0.117000
     42 C71         5.9560   -1.0350   -0.9260 ca        1 822     -0.131000
     43 C72         5.2100   -0.9710    0.2480 ca        1 822     -0.130000
     44 H2         -0.1510    1.7710    0.0330 ha        1 822      0.077000
     45 H3          1.0470    1.9210   -2.1410 ha        1 822      0.112500
     46 H5         -1.6900   -0.9940   -3.8250 ha        1 822      0.112500
     47 H6         -2.8830   -1.1180   -1.6450 ha        1 822      0.077000
     48 H181       -1.3210    0.2410    1.4520 hc        1 822      0.070500
     49 H182       -2.5340   -0.9560    0.8140 hc        1 822      0.070500
     50 H19        -4.1870    0.7460    0.3600 h1        1 822      0.122000
     51 H23        -2.0040    1.2520    3.2420 hn        1 822      0.266000
     52 H25        -3.3670    2.6840   -0.1590 hn        1 822      0.215000
     53 H281       -0.8280    4.9610    0.9490 hc        1 822      0.106667
     54 H282       -1.0760    4.0190   -0.5880 hc        1 822      0.106667
     55 H283       -2.4510    4.9790    0.1280 hc        1 822      0.106667
     56 H32        -3.4650    1.2210    5.4520 h1        1 822      0.104000
     57 H381       -0.2240   -2.4160    3.7380 h1        1 822      0.104000
     58 H382       -1.4220   -1.3120    2.9370 h1        1 822      0.104000
     59 H391       -2.1200   -2.9070    5.5150 hc        1 822      0.080500
     60 H392       -2.1950   -3.6220    3.8560 hc        1 822      0.080500
     61 H421        1.0620   -1.3880    5.7420 h1        1 822      0.091500
     62 H422        0.8780    0.4200    5.5970 h1        1 822      0.091500
     63 H461       -4.4020   -2.8290    4.4310 hc        1 822      0.089000
     64 H462       -3.7410   -1.7740    3.1240 hc        1 822      0.089000
     65 H491       -3.8020   -1.1190    6.1520 hc        1 822      0.094500
     66 H492       -4.9700   -0.5310    4.8850 hc        1 822      0.094500
     67 H58         2.7910   -2.1960    4.4690 ha        1 822      0.131500
     68 H59         4.1430   -2.2520    2.3890 ha        1 822      0.145000
     69 H61         1.7630    0.9700    0.7550 ha        1 822      0.145000
     70 H62         0.4330    1.0540    2.8430 ha        1 822      0.131500
     71 H68         2.1490   -0.2370   -1.1130 ha        1 822      0.136000
     72 H69         3.5050   -0.3710   -3.2210 ha        1 822      0.168500
     73 H70         5.9200   -0.8780   -3.0960 ha        1 822      0.146000
     74 H71         7.0320   -1.2530   -0.8750 ha        1 822      0.168500
     75 H72         5.7000   -1.1320    1.2180 ha        1 822      0.136000
@<TRIPOS>BOND
     1    1    2 1   
     2    1    6 1   
     3    1   14 1   
     4    2    3 1   
     5    2   44 1   
     6    3    4 1   
     7    3   45 1   
     8    4    5 1   
     9    4    7 1   
    10    5    6 1   
    11    5   46 1   
    12    6   47 1   
    13    7    8 1   
    14    7    9 1   
    15   10   11 1   
    16   10   12 1   
    17   10   13 1   
    18   14   15 1   
    19   14   48 1   
    20   14   49 1   
    21   15   16 1   
    22   15   19 1   
    23   15   50 1   
    24   16   17 1   
    25   16   18 1   
    26   17   23 1   
    27   17   51 1   
    28   19   20 1   
    29   19   52 1   
    30   20   21 1   
    31   20   22 1   
    32   22   53 1   
    33   22   54 1   
    34   22   55 1   
    35   23   24 1   
    36   23   32 1   
    37   23   56 1   
    38   24   25 1   
    39   24   26 1   
    40   25   27 1   
    41   25   29 1   
    42   27   28 1   
    43   27   57 1   
    44   27   58 1   
    45   28   31 1   
    46   28   59 1   
    47   28   60 1   
    48   29   30 1   
    49   29   61 1   
    50   29   62 1   
    51   30   33 1   
    52   30   37 1   
    53   31   32 1   
    54   31   63 1   
    55   31   64 1   
    56   32   65 1   
    57   32   66 1   
    58   33   34 1   
    59   33   67 1   
    60   34   35 1   
    61   34   68 1   
    62   35   36 1   
    63   35   38 1   
    64   36   37 1   
    65   36   69 1   
    66   37   70 1   
    67   38   39 1   
    68   38   43 1   
    69   39   40 1   
    70   39   71 1   
    71   40   41 1   
    72   40   72 1   
    73   41   42 1   
    74   41   73 1   
    75   42   43 1   
    76   42   74 1   
    77   43   75 1   
@<TRIPOS>SUBSTRUCTURE
     1 822         1 TEMP              0 ****  ****    0 ROOT
