@<TRIPOS>MOLECULE
822
   75    69     1     0     0
SMALL
bcc


@<TRIPOS>ATOM
      1 C1         -1.1480   -2.7480    2.5770 c1        1 822     -0.385000
      2 C2         -2.5320   -2.8950    2.4960 c1        1 822     -0.141333
      3 C3         -3.3530   -2.5450    3.6030 c1        1 822     -0.141333
      4 C4         -2.7720   -2.0530    4.7770 c1        1 822      0.035000
      5 C5         -1.3780   -1.9040    4.8620 c1        1 822     -0.261000
      6 C6         -0.5620   -2.2510    3.7630 c1        1 822     -0.046000
      7 C11        -3.6520   -1.6480    5.9510 c3        1 822     -0.052000
      8 F12        -3.0650   -0.5870    6.6200 f         1 822     -0.135500
      9 F13        -4.8880   -1.2720    5.4930 f         1 822     -0.135500
     10 P14        -3.8260   -3.0240    7.0620 p5        1 822      1.442500
     11 O15        -4.3230   -4.2180    6.3070 o         1 822     -0.817833
     12 O16        -2.4450   -3.3520    7.7000 o         1 822     -0.817833
     13 O17        -4.8090   -2.6700    8.1460 o         1 822     -0.817833
     14 C18        -0.2270   -3.2910    1.3990 c3        1 822     -0.050000
     15 C19        -0.3770   -2.3770    0.1690 c3        1 822     -0.006000
     16 C22         0.7660   -2.6160   -0.7770 c2        1 822      0.297000
     17 N23         1.9760   -1.7710   -0.6910 n         1 822     -0.379000
     18 O24         0.7440   -3.6040   -1.5530 o         1 822     -0.369000
     19 N25        -1.6280   -2.6700   -0.4990 n         1 822     -0.332000
     20 C26        -2.6920   -1.6350   -0.5820 c2        1 822      0.302000
     21 O27        -2.6740   -0.6900    0.1650 o         1 822     -0.448000
     22 C28        -3.6760   -1.6810   -1.6990 c3        1 822     -0.247000
     23 C32         3.1950   -2.0980   -1.5410 c3        1 822     -0.013000
     24 C33         4.0500   -1.1650   -1.4320 c2        1 822      0.304000
     25 N34         3.5430   -0.0830   -1.9040 n         1 822     -0.324000
     26 O37         5.2460   -1.3990   -1.5130 o         1 822     -0.294000
     27 C38         4.3490    0.5600   -2.4110 c3        1 822     -0.046000
     28 C39         4.5780    0.0790   -3.8710 c3        1 822     -0.195000
     29 C42         2.1650    0.3560   -1.6700 c3        1 822     -0.019000
     30 C43         2.0640    1.8820   -1.9290 c2        1 822     -0.064000
     31 C46         4.1770   -1.6580   -4.0470 c3        1 822     -0.162000
     32 C49         2.8030   -2.1140   -3.0280 c3        1 822     -0.188000
     33 C58         2.2560    2.7020   -0.7880 c2        1 822     -0.120000
     34 C59         1.3660    3.7440   -0.5190 c1        1 822     -0.127000
     35 C60         0.2890    3.9770   -1.3740 c1        1 822     -0.038500
     36 C61         0.0980    3.1500   -2.5220 c1        1 822     -0.121500
     37 C62         0.9840    2.1140   -2.7870 c1        1 822     -0.122000
     38 C67        -0.6890    4.9670   -1.0400 c1        1 822     -0.038500
     39 C68        -1.9420    4.5770   -0.6030 c1        1 822     -0.141333
     40 C69        -2.8550    5.5250   -0.1970 c1        1 822     -0.141333
     41 C70        -2.5250    6.8630   -0.2240 c1        1 822     -0.141333
     42 C71        -1.2820    7.2560   -0.6580 c1        1 822     -0.141333
     43 C72        -0.3570    6.3060   -1.0680 c1        1 822     -0.121500
     44 H2         -2.9490   -3.2480    1.6530 ha        1 822      0.117833
     45 H3         -4.3350   -2.6490    3.5430 ha        1 822      0.117833
     46 H5         -0.9570   -1.6210    5.7280 ha        1 822      0.113000
     47 H6          0.4750   -2.1410    3.8250 ha        1 822      0.075000
     48 H181       -0.5140   -4.2400    1.1520 hc        1 822      0.075500
     49 H182        0.7260   -3.2980    1.6950 hc        1 822      0.075500
     50 H19        -0.3710   -1.4400    0.4550 h1        1 822      0.106000
     51 H23         2.0350   -1.0830   -0.0080 hn        1 822      0.246000
     52 H25        -1.7310   -3.4520   -0.9330 hn        1 822      0.259000
     53 H281       -3.7600   -2.6320   -2.0320 hc        1 822      0.111667
     54 H282       -3.3880   -1.1420   -2.3810 hc        1 822      0.111667
     55 H283       -4.5370   -1.3720   -1.3850 hc        1 822      0.111667
     56 H32         3.4570   -2.9490   -1.1720 h1        1 822      0.148000
     57 H381        5.2090    0.4840   -1.8970 h1        1 822      0.095000
     58 H382        4.0430    1.5360   -2.4230 h1        1 822      0.095000
     59 H391        4.0050    0.6060   -4.4790 hc        1 822      0.082000
     60 H392        5.4800    0.2110   -4.1040 hc        1 822      0.082000
     61 H421        1.9020    0.1570   -0.7030 h1        1 822      0.106500
     62 H422        1.5420   -0.1380   -2.3000 h1        1 822      0.106500
     63 H461        3.9670   -1.8330   -4.9340 hc        1 822      0.082500
     64 H462        4.9640   -2.1950   -3.7890 hc        1 822      0.082500
     65 H491        2.5110   -3.0090   -3.2710 hc        1 822      0.098000
     66 H492        2.0910   -1.5030   -3.1700 hc        1 822      0.098000
     67 H58         3.0110    2.5390   -0.1890 ha        1 822      0.148000
     68 H59         1.5040    4.3320    0.2990 ha        1 822      0.126000
     69 H61        -0.6610    3.3130   -3.1250 ha        1 822      0.133000
     70 H62         0.8480    1.5180   -3.6170 ha        1 822      0.156000
     71 H68        -2.1810    3.6230   -0.5830 ha        1 822      0.117833
     72 H69        -3.6730    5.2690    0.0890 ha        1 822      0.117833
     73 H70        -3.2010    7.5290   -0.0380 ha        1 822      0.117833
     74 H71        -1.0530    8.1900   -0.6770 ha        1 822      0.117833
     75 H72         0.5680    6.5990   -1.3910 ha        1 822      0.133000
@<TRIPOS>BOND
     1    1    6 1   
     2    1   14 1   
     3    2    3 1   
     4    2   44 1   
     5    3   45 1   
     6    4    5 1   
     7    4    7 1   
     8    5   46 1   
     9    6   47 1   
    10    7    8 1   
    11    7    9 1   
    12    7   10 1   
    13   10   11 1   
    14   10   12 1   
    15   10   13 1   
    16   14   15 1   
    17   14   48 1   
    18   14   49 1   
    19   15   16 1   
    20   15   19 1   
    21   15   50 1   
    22   16   17 1   
    23   16   18 1   
    24   17   23 1   
    25   17   51 1   
    26   19   20 1   
    27   19   52 1   
    28   20   21 1   
    29   20   22 1   
    30   22   53 1   
    31   22   54 1   
    32   22   55 1   
    33   23   24 1   
    34   23   32 1   
    35   23   56 1   
    36   24   25 1   
    37   24   26 1   
    38   25   27 1   
    39   25   29 1   
    40   27   28 1   
    41   27   57 1   
    42   27   58 1   
    43   28   31 1   
    44   28   59 1   
    45   28   60 1   
    46   29   30 1   
    47   29   61 1   
    48   29   62 1   
    49   30   33 1   
    50   30   37 1   
    51   31   32 1   
    52   31   63 1   
    53   31   64 1   
    54   32   65 1   
    55   32   66 1   
    56   33   34 1   
    57   33   67 1   
    58   34   68 1   
    59   35   36 1   
    60   36   69 1   
    61   37   70 1   
    62   38   43 1   
    63   39   40 1   
    64   39   71 1   
    65   40   72 1   
    66   41   42 1   
    67   41   73 1   
    68   42   74 1   
    69   43   75 1   
@<TRIPOS>SUBSTRUCTURE
     1 822         1 TEMP              0 ****  ****    0 ROOT
