@<TRIPOS>MOLECULE
822
   75    77     1     0     0
SMALL
bcc


@<TRIPOS>ATOM
      1 C1         -0.5370   -0.4190   -0.4710 ca        1 822     -0.369000
      2 C2          0.6910   -0.0530   -1.0620 ca        1 822     -0.052000
      3 C3          1.7340    0.4350   -0.3230 ca        1 822     -0.267500
      4 C4          1.6010    0.6260    1.0980 ca        1 822      0.045000
      5 C5          0.3740    0.1740    1.7010 ca        1 822     -0.267500
      6 C6         -0.6490   -0.3140    0.9300 ca        1 822     -0.052000
      7 C11         2.5990    1.2260    1.8150 c2        1 822     -0.067000
      8 F12         2.6290    1.5840    3.1230 f         1 822     -0.139000
      9 F13         3.7630    1.7460    1.3510 f         1 822     -0.139000
     10 P14         4.6220    3.3060    3.2880 p3        1 822      2.410000
     11 O15         5.8440    2.4900    3.1470 o         1 822     -1.138667
     12 O16         4.1860    4.1970    2.1910 o         1 822     -1.138667
     13 O17         4.0330    3.4750    4.6310 o         1 822     -1.138667
     14 C18        -1.6900   -0.7470   -1.3250 c3        1 822     -0.076000
     15 C19        -1.8210   -2.2550   -1.6350 c3        1 822     -0.012000
     16 C22        -3.0540   -2.4770   -2.5490 c2        1 822      0.309000
     17 N23        -3.0710   -1.8050   -3.7450 n         1 822     -0.378000
     18 O24        -3.9940   -3.2030   -2.1610 o         1 822     -0.412000
     19 N25        -0.6170   -2.9010   -2.1130 n         1 822     -0.319000
     20 C26         0.1980   -2.3860   -3.1190 c2        1 822      0.307000
     21 O27        -0.2210   -1.6540   -4.0420 o         1 822     -0.400000
     22 C28         1.6470   -2.8220   -3.1080 c3        1 822     -0.253000
     23 C32        -4.1920   -1.6210   -4.6280 c3        1 822      0.041000
     24 C33        -3.9660   -0.3540   -5.4970 c2        1 822      0.292000
     25 N34        -3.7930    0.8830   -4.9080 n         1 822     -0.328000
     26 O37        -3.9070   -0.4900   -6.7380 o         1 822     -0.389000
     27 C38        -4.1940    1.1760   -3.5520 c3        1 822     -0.026000
     28 C39        -5.6350    0.8020   -3.2090 c3        1 822     -0.173000
     29 C42        -3.0870    1.9290   -5.6240 c3        1 822      0.025000
     30 C43        -1.9980    2.5900   -4.8270 ca        1 822     -0.131000
     31 C46        -5.7860   -0.6550   -2.8440 c3        1 822     -0.158000
     32 C49        -5.5880   -1.6030   -4.0020 c3        1 822     -0.163000
     33 C58        -2.0130    3.9770   -4.6480 ca        1 822     -0.124500
     34 C59        -1.0160    4.6050   -3.9070 ca        1 822     -0.126500
     35 C60         0.0160    3.8590   -3.3160 cp        1 822      0.003000
     36 C61         0.0300    2.4690   -3.5060 ca        1 822     -0.126500
     37 C62        -0.9620    1.8420   -4.2570 ca        1 822     -0.124500
     38 C67         1.0470    4.5160   -2.5130 cq        1 822     -0.076000
     39 C68         1.5740    3.8950   -1.3690 ca        1 822     -0.130000
     40 C69         2.5440    4.5380   -0.5980 ca        1 822     -0.131000
     41 C70         2.9980    5.8040   -0.9710 ca        1 822     -0.117000
     42 C71         2.4880    6.4240   -2.1120 ca        1 822     -0.131000
     43 C72         1.5170    5.7870   -2.8790 ca        1 822     -0.130000
     44 H2          0.7980   -0.1520   -2.1560 ha        1 822      0.077000
     45 H3          2.6850    0.7200   -0.7910 ha        1 822      0.112500
     46 H5          0.2790    0.2620    2.7900 ha        1 822      0.112500
     47 H6         -1.5930   -0.6210    1.4070 ha        1 822      0.077000
     48 H181       -2.6530   -0.4370   -0.8370 hc        1 822      0.070500
     49 H182       -1.5910   -0.1780   -2.2920 hc        1 822      0.070500
     50 H19        -2.0870   -2.7790   -0.6640 h1        1 822      0.122000
     51 H23        -2.2310   -1.3280   -4.0120 hn        1 822      0.266000
     52 H25        -0.0910   -3.2780   -1.3480 hn        1 822      0.215000
     53 H281        1.7520   -3.9110   -2.8930 hc        1 822      0.106667
     54 H282        2.1850   -2.2350   -2.3200 hc        1 822      0.106667
     55 H283        2.1020   -2.5980   -4.1020 hc        1 822      0.106667
     56 H32        -4.1900   -2.4810   -5.3730 h1        1 822      0.104000
     57 H381       -4.0770    2.2890   -3.3980 h1        1 822      0.104000
     58 H382       -3.4970    0.6690   -2.8210 h1        1 822      0.104000
     59 H391       -6.3260    1.0610   -4.0530 hc        1 822      0.080500
     60 H392       -5.9370    1.4260   -2.3250 hc        1 822      0.080500
     61 H421       -3.8390    2.7080   -5.9460 h1        1 822      0.091500
     62 H422       -2.6360    1.4810   -6.5580 h1        1 822      0.091500
     63 H461       -6.8210   -0.8170   -2.4360 hc        1 822      0.089000
     64 H462       -5.0680   -0.9160   -2.0190 hc        1 822      0.089000
     65 H491       -6.3130   -1.3560   -4.8230 hc        1 822      0.094500
     66 H492       -5.8100   -2.6440   -3.6380 hc        1 822      0.094500
     67 H58        -2.8220    4.5780   -5.0890 ha        1 822      0.131500
     68 H59        -1.0480    5.6950   -3.7630 ha        1 822      0.145000
     69 H61         0.8220    1.8630   -3.0330 ha        1 822      0.145000
     70 H62        -0.9280    0.7460   -4.3840 ha        1 822      0.131500
     71 H68         1.2230    2.8920   -1.0640 ha        1 822      0.136000
     72 H69         2.9630    4.0590    0.3180 ha        1 822      0.168500
     73 H70         3.7610    6.3010   -0.3510 ha        1 822      0.146000
     74 H71         2.8510    7.4170   -2.4080 ha        1 822      0.168500
     75 H72         1.1230    6.2760   -3.7810 ha        1 822      0.136000
@<TRIPOS>BOND
     1    1    2 1   
     2    1    6 1   
     3    1   14 1   
     4    2    3 1   
     5    2   44 1   
     6    3    4 1   
     7    3   45 1   
     8    4    5 1   
     9    4    7 1   
    10    5    6 1   
    11    5   46 1   
    12    6   47 1   
    13    7    8 1   
    14    7    9 1   
    15   10   11 1   
    16   10   12 1   
    17   10   13 1   
    18   14   15 1   
    19   14   48 1   
    20   14   49 1   
    21   15   16 1   
    22   15   19 1   
    23   15   50 1   
    24   16   17 1   
    25   16   18 1   
    26   17   23 1   
    27   17   51 1   
    28   19   20 1   
    29   19   52 1   
    30   20   21 1   
    31   20   22 1   
    32   22   53 1   
    33   22   54 1   
    34   22   55 1   
    35   23   24 1   
    36   23   32 1   
    37   23   56 1   
    38   24   25 1   
    39   24   26 1   
    40   25   27 1   
    41   25   29 1   
    42   27   28 1   
    43   27   57 1   
    44   27   58 1   
    45   28   31 1   
    46   28   59 1   
    47   28   60 1   
    48   29   30 1   
    49   29   61 1   
    50   29   62 1   
    51   30   33 1   
    52   30   37 1   
    53   31   32 1   
    54   31   63 1   
    55   31   64 1   
    56   32   65 1   
    57   32   66 1   
    58   33   34 1   
    59   33   67 1   
    60   34   35 1   
    61   34   68 1   
    62   35   36 1   
    63   35   38 1   
    64   36   37 1   
    65   36   69 1   
    66   37   70 1   
    67   38   39 1   
    68   38   43 1   
    69   39   40 1   
    70   39   71 1   
    71   40   41 1   
    72   40   72 1   
    73   41   42 1   
    74   41   73 1   
    75   42   43 1   
    76   42   74 1   
    77   43   75 1   
@<TRIPOS>SUBSTRUCTURE
     1 822         1 TEMP              0 ****  ****    0 ROOT
