@<TRIPOS>MOLECULE
824
   37    41     1     0     0
SMALL
bcc


@<TRIPOS>ATOM
      1 O3          0.0430   -0.1030    0.2380 oh        1 824     -0.498100
      2 C19         1.4130   -0.0650    0.0980 ca        1 824      0.099100
      3 C20         2.1520   -0.0340    1.2970 ca        1 824     -0.120000
      4 C18         3.5420    0.0080    1.2710 ca        1 824     -0.123000
      5 C16         4.1830    0.0150    0.0290 ca        1 824     -0.045200
      6 C15         3.4200   -0.0240   -1.1950 cp        1 824     -0.050000
      7 C17         2.0350   -0.0590   -1.1590 ca        1 824     -0.145000
      8 C13         4.3820   -0.0190   -2.2830 cp        1 824     -0.010000
      9 C14         5.7050    0.0220   -1.6610 ca        1 824      0.007800
     10 N2          5.5640    0.1190   -0.2650 na        1 824     -0.177300
     11 C4          4.3270   -0.0450   -3.6490 ca        1 824     -0.089600
     12 C5          3.1580   -0.0650   -4.5890 c         1 824      0.729100
     13 O1          1.9500   -0.0710   -4.3350 o         1 824     -0.589500
     14 C3          5.5270   -0.0460   -4.4280 ca        1 824     -0.166600
     15 C6          5.1150   -0.0740   -5.8700 c         1 824      0.728100
     16 O2          5.8000   -0.1020   -6.8950 o         1 824     -0.572500
     17 N1          3.6960   -0.0770   -5.8930 n         1 824     -0.623500
     18 C2          6.7830   -0.0070   -3.8370 cp        1 824      0.073000
     19 C1          6.8660    0.0270   -2.4240 ca        1 824     -0.157000
     20 C7          8.0400    0.0090   -4.5880 cp        1 824     -0.066000
     21 C8          9.0370    0.9340   -4.2420 ca        1 824     -0.096500
     22 C9         10.2510    0.9440   -4.9250 ca        1 824     -0.133500
     23 C10        10.4860    0.0290   -5.9520 ca        1 824     -0.115000
     24 C11         9.4980   -0.8910   -6.3000 ca        1 824     -0.133500
     25 C12         8.2780   -0.9010   -5.6250 ca        1 824     -0.096500
     26 HO3        -0.3460   -0.1130   -0.6480 ho        1 824      0.425000
     27 H20         1.6120   -0.0420    2.2550 ha        1 824      0.155000
     28 H18         4.1150    0.0380    2.2080 ha        1 824      0.143000
     29 H17         1.4490   -0.0810   -2.0930 ha        1 824      0.174000
     30 HN2         6.2560   -0.2170    0.3570 hn        1 824      0.290700
     31 HN1         3.1550   -0.0840   -6.7200 hn        1 824      0.347500
     32 H1          7.8570    0.0560   -1.9470 ha        1 824      0.152000
     33 H8          8.8540    1.6600   -3.4360 ha        1 824      0.139500
     34 H9         11.0250    1.6780   -4.6540 ha        1 824      0.135500
     35 H10        11.4460    0.0380   -6.4890 ha        1 824      0.133000
     36 H11         9.6750   -1.6090   -7.1150 ha        1 824      0.135500
     37 H12         7.4900   -1.6110   -5.9220 ha        1 824      0.139500
@<TRIPOS>BOND
     1    1    2 1   
     2    1   26 1   
     3    2    3 ar  
     4    2    7 ar  
     5    3    4 ar  
     6    3   27 1   
     7    4    5 ar  
     8    4   28 1   
     9    5    6 ar  
    10    5   10 1   
    11    6    7 ar  
    12    6    8 1   
    13    7   29 1   
    14    8    9 ar  
    15    8   11 ar  
    16    9   10 1   
    17    9   19 ar  
    18   10   30 1   
    19   11   12 1   
    20   11   14 ar  
    21   12   13 2   
    22   12   17 1   
    23   14   15 1   
    24   14   18 ar  
    25   15   16 2   
    26   15   17 1   
    27   17   31 1   
    28   18   19 ar  
    29   18   20 1   
    30   19   32 1   
    31   20   21 ar  
    32   20   25 ar  
    33   21   22 ar  
    34   21   33 1   
    35   22   23 ar  
    36   22   34 1   
    37   23   24 ar  
    38   23   35 1   
    39   24   25 ar  
    40   24   36 1   
    41   25   37 1   
@<TRIPOS>SUBSTRUCTURE
     1 824         1 TEMP              0 ****  ****    0 ROOT
