@<TRIPOS>MOLECULE
824
   37    41     1     0     0
SMALL
bcc


@<TRIPOS>ATOM
      1 O3          0.0400    0.0690    0.2340 oh        1 824     -0.498100
      2 C19         1.4110    0.0680    0.0950 ca        1 824      0.099100
      3 C20         2.1490    0.0640    1.2940 ca        1 824     -0.120000
      4 C18         3.5400    0.0650    1.2700 ca        1 824     -0.123000
      5 C16         4.1820    0.0660    0.0290 ca        1 824     -0.045200
      6 C15         3.4190    0.0620   -1.1960 cp        1 824     -0.050000
      7 C17         2.0330    0.0680   -1.1620 ca        1 824     -0.145000
      8 C13         4.3820    0.0500   -2.2830 cp        1 824     -0.010000
      9 C14         5.7050    0.0450   -1.6610 ca        1 824      0.007800
     10 N2          5.5650    0.1310   -0.2640 na        1 824     -0.177300
     11 C4          4.3270    0.0400   -3.6500 ca        1 824     -0.089600
     12 C5          3.1600    0.0650   -4.5910 c         1 824      0.729100
     13 O1          1.9510    0.0920   -4.3380 o         1 824     -0.589500
     14 C3          5.5270    0.0110   -4.4280 ca        1 824     -0.166600
     15 C6          5.1170    0.0110   -5.8710 c         1 824      0.728100
     16 O2          5.8010   -0.0270   -6.8960 o         1 824     -0.572500
     17 N1          3.6970    0.0500   -5.8950 ns        1 824     -0.623500
     18 C2          6.7840    0.0060   -3.8360 cp        1 824      0.073000
     19 C1          6.8670    0.0230   -2.4230 ca        1 824     -0.157000
     20 C7          8.0410   -0.0070   -4.5860 cp        1 824     -0.066000
     21 C8          9.0660    0.8840   -4.2300 ca        1 824     -0.096500
     22 C9         10.2800    0.8660   -4.9120 ca        1 824     -0.133500
     23 C10        10.4880   -0.0450   -5.9480 ca        1 824     -0.115000
     24 C11         9.4740   -0.9320   -6.3060 ca        1 824     -0.133500
     25 C12         8.2530   -0.9130   -5.6320 ca        1 824     -0.096500
     26 HO3        -0.3490    0.0810   -0.6540 ho        1 824      0.425000
     27 H20         1.6080    0.0630    2.2520 ha        1 824      0.155000
     28 H18         4.1120    0.0680    2.2080 ha        1 824      0.143000
     29 H17         1.4480    0.0740   -2.0960 ha        1 824      0.174000
     30 HN2         6.2470   -0.2310    0.3550 hn        1 824      0.290700
     31 HN1         3.1570    0.0680   -6.7220 hn        1 824      0.347500
     32 H1          7.8580    0.0180   -1.9450 ha        1 824      0.152000
     33 H8          8.9030    1.6070   -3.4170 ha        1 824      0.139500
     34 H9         11.0740    1.5730   -4.6330 ha        1 824      0.135500
     35 H10        11.4480   -0.0600   -6.4840 ha        1 824      0.133000
     36 H11         9.6300   -1.6460   -7.1280 ha        1 824      0.135500
     37 H12         7.4450   -1.5960   -5.9370 ha        1 824      0.139500
@<TRIPOS>BOND
     1    1    2 1   
     2    1   26 1   
     3    2    3 ar  
     4    2    7 ar  
     5    3    4 ar  
     6    3   27 1   
     7    4    5 ar  
     8    4   28 1   
     9    5    6 ar  
    10    5   10 1   
    11    6    7 ar  
    12    6    8 1   
    13    7   29 1   
    14    8    9 ar  
    15    8   11 ar  
    16    9   10 1   
    17    9   19 ar  
    18   10   30 1   
    19   11   12 1   
    20   11   14 ar  
    21   12   13 2   
    22   12   17 1   
    23   14   15 1   
    24   14   18 ar  
    25   15   16 2   
    26   15   17 1   
    27   17   31 1   
    28   18   19 ar  
    29   18   20 1   
    30   19   32 1   
    31   20   21 ar  
    32   20   25 ar  
    33   21   22 ar  
    34   21   33 1   
    35   22   23 ar  
    36   22   34 1   
    37   23   24 ar  
    38   23   35 1   
    39   24   25 ar  
    40   24   36 1   
    41   25   37 1   
@<TRIPOS>SUBSTRUCTURE
     1 824         1 TEMP              0 ****  ****    0 ROOT
