@<TRIPOS>MOLECULE
825
   46    41     1     0     0
SMALL
bcc


@<TRIPOS>ATOM
      1 O57        -2.5130    1.7970   -1.3900 o         1 825     -0.330000
      2 C56        -1.4260    1.2560   -1.3360 c1        1 825      0.300000
      3 C55        -0.8460    0.5980   -2.5700 c1        1 825     -0.151000
      4 C62        -1.5710    0.5790   -3.7510 c2        1 825     -0.103000
      5 C61        -1.0550   -0.0530   -4.8710 c1        1 825     -0.166000
      6 C60         0.1870   -0.6660   -4.8110 c1        1 825     -0.136000
      7 C59         0.9120   -0.6470   -3.6300 c1        1 825     -0.136000
      8 C58         0.3960   -0.0150   -2.5090 c1        1 825     -0.075000
      9 C20        -0.6340    1.2760   -0.0460 c3        1 825     -0.132000
     10 C4         -0.3750    2.7090    0.3640 c2        1 825     -0.042000
     11 C3          0.9260    3.1660    0.5000 c2        1 825     -0.125000
     12 C2          1.1640    4.4860    0.8520 c1        1 825     -0.142000
     13 C5         -1.4390    3.5710    0.5790 c1        1 825     -0.115000
     14 C6         -1.2010    4.8910    0.9320 c1        1 825     -0.136000
     15 C1          0.1000    5.3480    1.0680 c1        1 825     -0.136000
     16 C44        -1.4210    0.5760    1.0400 c3        1 825     -0.038000
     17 C36        -0.7450   -0.7330    1.3880 c2        1 825     -0.360000
     18 C37        -0.1430   -0.8940    2.6260 c2        1 825     -0.014000
     19 C38         0.4300   -2.1100    2.9650 c1        1 825     -0.306000
     20 BR1         1.2270   -2.3430    4.6870 br        1 825     -0.039000
     21 C39         0.4020   -3.1640    2.0660 c2        1 825      0.043000
     22 C40        -0.2000   -3.0030    0.8280 c1        1 825     -0.234000
     23 C35        -0.7730   -1.7870    0.4890 c1        1 825     -0.061000
     24 C45         1.0160   -4.4950    2.4410 c3        1 825     -0.018000
     25 F46         0.9500   -4.6580    3.7690 f         1 825     -0.128000
     26 F47         0.3440   -5.4830    1.8370 f         1 825     -0.128000
     27 P48         2.7530   -4.5320    1.9120 p5        1 825      1.439500
     28 O49         3.5370   -3.5010    2.6880 o         1 825     -0.816833
     29 O50         3.3290   -5.9030    2.1710 o         1 825     -0.816833
     30 O51         2.8350   -4.2220    0.4360 o         1 825     -0.816833
     31 H62        -2.4350    1.0300   -3.8000 ha        1 825      0.126000
     32 H61        -1.5660   -0.0670   -5.7030 ha        1 825      0.111000
     33 H60         0.5590   -1.0950   -5.6050 ha        1 825      0.127500
     34 H59         1.7860   -1.0790   -3.5870 ha        1 825      0.127500
     35 H58         0.9060   -0.0020   -1.6780 ha        1 825      0.205000
     36 H20         0.2160    0.8170   -0.1790 hc        1 825      0.127000
     37 H3          1.6760    2.5590    0.3480 ha        1 825      0.138000
     38 H2          2.0800    4.8010    0.9730 ha        1 825      0.116000
     39 H5         -2.3550    3.2490    0.4830 ha        1 825      0.157000
     40 H6         -1.9500    5.5020    1.0660 ha        1 825      0.127500
     41 H1          0.2680    6.2770    1.3160 ha        1 825      0.127500
     42 H44        -2.3290    0.4000    0.7230 hc        1 825      0.066000
     43 H44A       -1.4580    1.1450    1.8350 hc        1 825      0.066000
     44 H37        -0.1470   -0.1600    3.2700 ha        1 825      0.089000
     45 H40        -0.2190   -3.7450    0.1940 ha        1 825      0.122000
     46 H35        -1.1970   -1.6740   -0.3830 ha        1 825      0.087000
@<TRIPOS>BOND
     1    1    2 1   
     2    2    9 1   
     3    3    4 1   
     4    3    8 1   
     5    4    5 1   
     6    4   31 1   
     7    5   32 1   
     8    6    7 1   
     9    6   33 1   
    10    7   34 1   
    11    8   35 1   
    12    9   10 1   
    13    9   16 1   
    14    9   36 1   
    15   10   11 1   
    16   10   13 1   
    17   11   12 1   
    18   11   37 1   
    19   12   38 1   
    20   13   39 1   
    21   14   15 1   
    22   14   40 1   
    23   15   41 1   
    24   16   17 1   
    25   16   42 1   
    26   16   43 1   
    27   17   18 1   
    28   17   23 1   
    29   18   19 1   
    30   18   44 1   
    31   19   21 1   
    32   21   22 1   
    33   21   24 1   
    34   22   45 1   
    35   23   46 1   
    36   24   25 1   
    37   24   26 1   
    38   24   27 1   
    39   27   28 1   
    40   27   29 1   
    41   27   30 1   
@<TRIPOS>SUBSTRUCTURE
     1 825         1 TEMP              0 ****  ****    0 ROOT
