@<TRIPOS>MOLECULE
825
   46    47     1     0     0
SMALL
bcc


@<TRIPOS>ATOM
      1 O57        -0.2060    0.0090   -0.3420 o         1 825     -0.314000
      2 C56         1.0080    0.1220   -0.1230 c2        1 825      0.278000
      3 C55         1.9850   -0.1410   -1.2150 ca        1 825     -0.139000
      4 C62         1.6560   -1.0620   -2.2180 ca        1 825     -0.084000
      5 C61         2.5560   -1.3310   -3.2470 ca        1 825     -0.149000
      6 C60         3.7870   -0.6760   -3.2870 ca        1 825     -0.121000
      7 C59         4.1150    0.2490   -2.2970 ca        1 825     -0.149000
      8 C58         3.2200    0.5150   -1.2610 ca        1 825     -0.084000
      9 C20         1.5830    0.4750    1.2290 c3        1 825     -0.124000
     10 C4          1.5890    1.9510    1.4680 ca        1 825     -0.050000
     11 C3          2.3680    2.4500    2.5250 ca        1 825     -0.124500
     12 C2          2.4210    3.8190    2.7730 ca        1 825     -0.140500
     13 C5          0.8510    2.8460    0.6850 ca        1 825     -0.124500
     14 C6          0.9090    4.2170    0.9360 ca        1 825     -0.140500
     15 C1          1.6970    4.7070    1.9750 ca        1 825     -0.150000
     16 C44         0.8400   -0.2820    2.3490 c3        1 825     -0.034000
     17 C36         1.7130   -0.5390    3.5100 ca        1 825     -0.351000
     18 C37         2.7430   -1.4840    3.4440 ca        1 825     -0.013000
     19 C38         3.6000   -1.7250    4.5010 ca        1 825     -0.302000
     20 BR1         4.8970   -3.0620    4.2320 br        1 825     -0.042000
     21 C39         3.4790   -0.9930    5.7350 ca        1 825      0.049000
     22 C40         2.3620   -0.0660    5.7950 ca        1 825     -0.234000
     23 C35         1.5340    0.1490    4.7350 ca        1 825     -0.059000
     24 C45         4.3000   -1.0640    6.8270 c2        1 825     -0.024000
     25 F46         4.1660   -0.3590    7.9830 f         1 825     -0.130000
     26 F47         5.4050   -1.7930    7.1060 f         1 825     -0.130000
     27 P48         6.1780   -1.0840    9.5340 p3        1 825      2.399000
     28 O49         5.0330   -1.4300   10.4010 o         1 825     -1.136667
     29 O50         7.1560   -2.1380    9.1930 o         1 825     -1.136667
     30 O51         6.5480    0.3310    9.3200 o         1 825     -1.136667
     31 H62         0.6790   -1.5680   -2.1800 ha        1 825      0.150000
     32 H61         2.2970   -2.0630   -4.0250 ha        1 825      0.125500
     33 H60         4.5000   -0.8920   -4.0960 ha        1 825      0.119000
     34 H59         5.0860    0.7640   -2.3240 ha        1 825      0.125500
     35 H58         3.4850    1.2440   -0.4770 ha        1 825      0.150000
     36 H20         2.6550    0.1140    1.2570 hc        1 825      0.129000
     37 H3          2.9050    1.7350    3.1780 ha        1 825      0.159500
     38 H2          3.0300    4.1950    3.6080 ha        1 825      0.122500
     39 H5          0.2070    2.4700   -0.1250 ha        1 825      0.159500
     40 H6          0.3260    4.9090    0.3140 ha        1 825      0.122500
     41 H1          1.7430    5.7870    2.1720 ha        1 825      0.112000
     42 H44        -0.0640    0.3090    2.6470 hc        1 825      0.065500
     43 H44A        0.4760   -1.2530    1.9150 hc        1 825      0.065500
     44 H37         2.8630   -2.0520    2.5060 ha        1 825      0.087000
     45 H40         2.2130    0.4660    6.7450 ha        1 825      0.120000
     46 H35         0.7030    0.8660    4.8190 ha        1 825      0.084000
@<TRIPOS>BOND
     1    1    2 1   
     2    2    3 1   
     3    2    9 1   
     4    3    4 1   
     5    3    8 1   
     6    4    5 1   
     7    4   31 1   
     8    5    6 1   
     9    5   32 1   
    10    6    7 1   
    11    6   33 1   
    12    7    8 1   
    13    7   34 1   
    14    8   35 1   
    15    9   10 1   
    16    9   16 1   
    17    9   36 1   
    18   10   11 1   
    19   10   13 1   
    20   11   12 1   
    21   11   37 1   
    22   12   15 1   
    23   12   38 1   
    24   13   14 1   
    25   13   39 1   
    26   14   15 1   
    27   14   40 1   
    28   15   41 1   
    29   16   17 1   
    30   16   42 1   
    31   16   43 1   
    32   17   18 1   
    33   17   23 1   
    34   18   19 1   
    35   18   44 1   
    36   19   20 1   
    37   19   21 1   
    38   21   22 1   
    39   21   24 1   
    40   22   23 1   
    41   22   45 1   
    42   23   46 1   
    43   24   25 1   
    44   24   26 1   
    45   27   28 1   
    46   27   29 1   
    47   27   30 1   
@<TRIPOS>SUBSTRUCTURE
     1 825         1 TEMP              0 ****  ****    0 ROOT
