@<TRIPOS>MOLECULE
825
   46    47     1     0     0
SMALL
bcc


@<TRIPOS>ATOM
      1 O57        -4.7250    0.1100    2.3860 o         1 825     -0.314000
      2 C56        -4.2690    0.0020    1.2400 c2        1 825      0.279000
      3 C55        -5.0490   -0.7170    0.1960 ca        1 825     -0.139000
      4 C62        -5.9100   -1.7530    0.5810 ca        1 825     -0.084000
      5 C61        -6.6460   -2.4470   -0.3780 ca        1 825     -0.149000
      6 C60        -6.5340   -2.1060   -1.7250 ca        1 825     -0.121000
      7 C59        -5.6860   -1.0690   -2.1130 ca        1 825     -0.149000
      8 C58        -4.9420   -0.3770   -1.1570 ca        1 825     -0.084000
      9 C20        -2.9130    0.5280    0.8290 c3        1 825     -0.124000
     10 C4         -2.9580    1.9810    0.4780 ca        1 825     -0.050000
     11 C3         -1.8660    2.5300   -0.2140 ca        1 825     -0.124500
     12 C2         -1.8720    3.8740   -0.5810 ca        1 825     -0.140500
     13 C5         -4.0370    2.8060    0.8130 ca        1 825     -0.124500
     14 C6         -4.0390    4.1500    0.4420 ca        1 825     -0.140500
     15 C1         -2.9610    4.6860   -0.2600 ca        1 825     -0.150000
     16 C44        -1.8630    0.2360    1.9220 c3        1 825     -0.034000
     17 C36        -0.5120    0.0740    1.3550 ca        1 825     -0.351000
     18 C37        -0.1710   -1.0610    0.6130 ca        1 825     -0.013000
     19 C38         1.0750   -1.2290    0.0390 ca        1 825     -0.302000
     20 BR1         1.3530   -2.8430   -0.8890 br        1 825     -0.042000
     21 C39         2.0930   -0.2200    0.1710 ca        1 825      0.049000
     22 C40         1.7310    0.9160    1.0000 ca        1 825     -0.234000
     23 C35         0.4930    1.0520    1.5520 ca        1 825     -0.059000
     24 C45         3.3330   -0.2110   -0.4070 c2        1 825     -0.024000
     25 F46         4.2790    0.7570   -0.2690 f         1 825     -0.130000
     26 F47         3.9800   -1.0780   -1.2190 f         1 825     -0.130000
     27 P48         6.3440   -0.0060   -1.7310 p3        1 825      2.399000
     28 O49         6.9850    0.1190   -0.4060 o         1 825     -1.136667
     29 O50         6.4280   -1.2970   -2.4430 o         1 825     -1.136667
     30 O51         5.9580    1.2030   -2.4870 o         1 825     -1.136667
     31 H62        -5.9960   -2.0090    1.6490 ha        1 825      0.150000
     32 H61        -7.3110   -3.2660   -0.0700 ha        1 825      0.125500
     33 H60        -7.1100   -2.6570   -2.4820 ha        1 825      0.119000
     34 H59        -5.5930   -0.8000   -3.1750 ha        1 825      0.125500
     35 H58        -4.2690    0.4390   -1.4670 ha        1 825      0.150000
     36 H20        -2.5820   -0.0420   -0.0900 hc        1 825      0.129000
     37 H3         -0.9890    1.8900   -0.4270 ha        1 825      0.159500
     38 H2         -1.0080    4.2930   -1.1170 ha        1 825      0.122500
     39 H5         -4.8850    2.4010    1.3860 ha        1 825      0.159500
     40 H6         -4.8930    4.7880    0.7100 ha        1 825      0.122500
     41 H1         -2.9640    5.7450   -0.5530 ha        1 825      0.112000
     42 H44        -1.8880    1.0650    2.6770 hc        1 825      0.065500
     43 H44A       -2.1790   -0.7050    2.4490 hc        1 825      0.065500
     44 H37        -0.9380   -1.8450    0.4890 ha        1 825      0.087000
     45 H40         2.5100    1.6750    1.1630 ha        1 825      0.120000
     46 H35         0.2580    1.9340    2.1680 ha        1 825      0.084000
@<TRIPOS>BOND
     1    1    2 1   
     2    2    3 1   
     3    2    9 1   
     4    3    4 1   
     5    3    8 1   
     6    4    5 1   
     7    4   31 1   
     8    5    6 1   
     9    5   32 1   
    10    6    7 1   
    11    6   33 1   
    12    7    8 1   
    13    7   34 1   
    14    8   35 1   
    15    9   10 1   
    16    9   16 1   
    17    9   36 1   
    18   10   11 1   
    19   10   13 1   
    20   11   12 1   
    21   11   37 1   
    22   12   15 1   
    23   12   38 1   
    24   13   14 1   
    25   13   39 1   
    26   14   15 1   
    27   14   40 1   
    28   15   41 1   
    29   16   17 1   
    30   16   42 1   
    31   16   43 1   
    32   17   18 1   
    33   17   23 1   
    34   18   19 1   
    35   18   44 1   
    36   19   20 1   
    37   19   21 1   
    38   21   22 1   
    39   21   24 1   
    40   22   23 1   
    41   22   45 1   
    42   23   46 1   
    43   24   25 1   
    44   24   26 1   
    45   27   28 1   
    46   27   29 1   
    47   27   30 1   
@<TRIPOS>SUBSTRUCTURE
     1 825         1 TEMP              0 ****  ****    0 ROOT
