@<TRIPOS>MOLECULE
825
   46    47     1     0     0
SMALL
bcc


@<TRIPOS>ATOM
      1 O57        -0.2260    0.0420   -0.3250 o         1 825     -0.314000
      2 C56         0.9910    0.1350   -0.1130 c2        1 825      0.278000
      3 C55         1.9580   -0.1510   -1.2080 ca        1 825     -0.139000
      4 C62         1.6080   -1.0730   -2.2030 ca        1 825     -0.084000
      5 C61         2.4980   -1.3650   -3.2350 ca        1 825     -0.149000
      6 C60         3.7390   -0.7320   -3.2850 ca        1 825     -0.121000
      7 C59         4.0890    0.1940   -2.3030 ca        1 825     -0.149000
      8 C58         3.2040    0.4830   -1.2640 ca        1 825     -0.084000
      9 C20         1.5790    0.4870    1.2340 c3        1 825     -0.124000
     10 C4          1.6110    1.9640    1.4630 ca        1 825     -0.050000
     11 C3          2.4040    2.4560    2.5130 ca        1 825     -0.124500
     12 C2          2.4820    3.8260    2.7520 ca        1 825     -0.140500
     13 C5          0.8850    2.8670    0.6790 ca        1 825     -0.124500
     14 C6          0.9680    4.2380    0.9210 ca        1 825     -0.140500
     15 C1          1.7700    4.7210    1.9530 ca        1 825     -0.150000
     16 C44         0.8290   -0.2500    2.3630 c3        1 825     -0.034000
     17 C36         1.7030   -0.5150    3.5200 ca        1 825     -0.351000
     18 C37         2.7160   -1.4780    3.4550 ca        1 825     -0.013000
     19 C38         3.5750   -1.7270    4.5090 ca        1 825     -0.302000
     20 Br1         4.8480   -3.0880    4.2420 br        1 825     -0.042000
     21 C39         3.4730   -0.9850    5.7390 ca        1 825      0.049000
     22 C40         2.3720   -0.0390    5.7990 ca        1 825     -0.234000
     23 C35         1.5420    0.1830    4.7420 ca        1 825     -0.059000
     24 C45         4.2980   -1.0640    6.8280 c2        1 825     -0.024000
     25 F46         4.1830   -0.3500    7.9800 f         1 825     -0.130000
     26 F47         5.3920   -1.8100    7.1050 f         1 825     -0.130000
     27 P48         6.1900   -1.1000    9.5250 p3        1 825      2.399000
     28 O49         5.0430   -1.4150   10.4020 o         1 825     -1.136667
     29 O50         7.1440   -2.1770    9.1880 o         1 825     -1.136667
     30 O51         6.5880    0.3040    9.2960 o         1 825     -1.136667
     31 H62         0.6220   -1.5620   -2.1570 ha        1 825      0.150000
     32 H61         2.2220   -2.0980   -4.0060 ha        1 825      0.125500
     33 H60         4.4440   -0.9650   -4.0960 ha        1 825      0.119000
     34 H59         5.0680    0.6930   -2.3380 ha        1 825      0.125500
     35 H58         3.4850    1.2120   -0.4870 ha        1 825      0.150000
     36 H20         2.6440    0.1080    1.2590 hc        1 825      0.129000
     37 H3          2.9320    1.7360    3.1690 ha        1 825      0.159500
     38 H2          3.1010    4.1970    3.5820 ha        1 825      0.122500
     39 H5          0.2310    2.4970   -0.1260 ha        1 825      0.159500
     40 H6          0.3930    4.9360    0.2960 ha        1 825      0.122500
     41 H1          1.8350    5.8010    2.1420 ha        1 825      0.112000
     42 H44        -0.0630    0.3580    2.6620 hc        1 825      0.065500
     43 H44A        0.4450   -1.2180    1.9360 hc        1 825      0.065500
     44 H37         2.8220   -2.0530    2.5200 ha        1 825      0.087000
     45 H40         2.2370    0.5010    6.7470 ha        1 825      0.120000
     46 H35         0.7250    0.9160    4.8270 ha        1 825      0.084000
@<TRIPOS>BOND
     1    1    2 1   
     2    2    3 1   
     3    2    9 1   
     4    3    4 1   
     5    3    8 1   
     6    4    5 1   
     7    4   31 1   
     8    5    6 1   
     9    5   32 1   
    10    6    7 1   
    11    6   33 1   
    12    7    8 1   
    13    7   34 1   
    14    8   35 1   
    15    9   10 1   
    16    9   16 1   
    17    9   36 1   
    18   10   11 1   
    19   10   13 1   
    20   11   12 1   
    21   11   37 1   
    22   12   15 1   
    23   12   38 1   
    24   13   14 1   
    25   13   39 1   
    26   14   15 1   
    27   14   40 1   
    28   15   41 1   
    29   16   17 1   
    30   16   42 1   
    31   16   43 1   
    32   17   18 1   
    33   17   23 1   
    34   18   19 1   
    35   18   44 1   
    36   19   20 1   
    37   19   21 1   
    38   21   22 1   
    39   21   24 1   
    40   22   23 1   
    41   22   45 1   
    42   23   46 1   
    43   24   25 1   
    44   24   26 1   
    45   27   28 1   
    46   27   29 1   
    47   27   30 1   
@<TRIPOS>SUBSTRUCTURE
     1 825         1 TEMP              0 ****  ****    0 ROOT
