@<TRIPOS>MOLECULE
826
   52    56     1     0     0
SMALL
bcc


@<TRIPOS>ATOM
      1 O01         0.0980    0.2760   -0.1050 oh        1 826     -0.494100
      2 C02         1.4670    0.1860   -0.1780 ca        1 826      0.143100
      3 C03         2.1280   -0.2440    0.9860 ca        1 826     -0.196000
      4 C04         3.5130   -0.3660    0.9700 ca        1 826     -0.056000
      5 C05         4.2370   -0.0640   -0.1900 ca        1 826     -0.175600
      6 C06         3.5720    0.3800   -1.3380 ca        1 826     -0.056000
      7 C07         2.1850    0.4990   -1.3420 ca        1 826     -0.196000
      8 C08         5.7260   -0.1260   -0.2110 c         1 826      0.667700
      9 O09         6.3920    0.8550   -0.5970 o         1 826     -0.586100
     10 N10         6.3670   -1.2660    0.2940 n         1 826     -0.444800
     11 C11         7.8180   -1.3320    0.2240 c3        1 826      0.074000
     12 C12         8.3840   -2.0970   -0.9830 c3        1 826     -0.033200
     13 C13         7.6010   -3.3140   -1.2320 cc        1 826     -0.126400
     14 C14         6.3430   -3.5210   -0.6590 cd        1 826     -0.092300
     15 C15         5.6980   -2.5540    0.2840 c3        1 826      0.144200
     16 N16         5.7910   -4.7320   -1.1090 na        1 826     -0.060400
     17 C17         6.7510   -5.3470   -1.9350 ca        1 826     -0.041200
     18 C18         7.8920   -4.4620   -2.0560 ca        1 826     -0.077800
     19 C19         8.9650   -4.8300   -2.8680 ca        1 826     -0.083000
     20 C20         8.9160   -6.0440   -3.5380 ca        1 826     -0.156000
     21 C21         7.8080   -6.9000   -3.4140 ca        1 826     -0.114000
     22 C22         6.7190   -6.5710   -2.6200 ca        1 826     -0.149000
     23 C23         4.6200   -5.3690   -0.5790 c3        1 826      0.095600
     24 C24         4.8010   -6.1300    0.7040 ca        1 826     -0.160300
     25 C25         3.9610   -5.8700    1.7890 ca        1 826     -0.079000
     26 C26         4.0840   -6.5980    2.9700 ca        1 826     -0.185500
     27 C27         5.0670   -7.5940    3.0610 ca        1 826      0.133100
     28 O28         5.2510   -8.3550    4.1910 oh        1 826     -0.494100
     29 C29         5.9210   -7.8640    1.9770 ca        1 826     -0.185500
     30 C30         5.7790   -7.1290    0.8070 ca        1 826     -0.079000
     31 HO1        -0.2270    0.6140   -0.9530 ho        1 826      0.424000
     32 HC3         1.5450   -0.4700    1.8890 ha        1 826      0.147500
     33 HC4         4.0420   -0.6950    1.8780 ha        1 826      0.150000
     34 HC6         4.1540    0.6450   -2.2350 ha        1 826      0.150000
     35 HC7         1.6600    0.8430   -2.2440 ha        1 826      0.147500
     36 H111        8.2290   -0.2840    0.2170 h1        1 826      0.068700
     37 H112        8.1590   -1.8460    1.1680 h1        1 826      0.068700
     38 H121        9.4570   -2.3510   -0.7730 hc        1 826      0.060200
     39 H122        8.3650   -1.4390   -1.8940 hc        1 826      0.060200
     40 H151        5.7630   -2.9780    1.3300 h1        1 826      0.067200
     41 H152        4.6070   -2.4310    0.0250 h1        1 826      0.067200
     42 H19         9.8310   -4.1610   -2.9700 ha        1 826      0.135000
     43 H20         9.7550   -6.3480   -4.1800 ha        1 826      0.130000
     44 H21         7.8070   -7.8550   -3.9610 ha        1 826      0.130000
     45 H22         5.8580   -7.2470   -2.5340 ha        1 826      0.132000
     46 H231        4.2400   -6.0880   -1.3640 h1        1 826      0.065700
     47 H232        3.8380   -4.5670   -0.4290 h1        1 826      0.065700
     48 H25         3.1910   -5.0860    1.7170 ha        1 826      0.140500
     49 H26         3.4200   -6.3940    3.8210 ha        1 826      0.145500
     50 H28         4.6090   -8.0660    4.8550 ho        1 826      0.421000
     51 H29         6.6870   -8.6470    2.0710 ha        1 826      0.145500
     52 H30         6.4440   -7.3290   -0.0500 ha        1 826      0.140500
@<TRIPOS>BOND
     1    1    2 1   
     2    1   31 1   
     3    2    3 ar  
     4    2    7 ar  
     5    3    4 ar  
     6    3   32 1   
     7    4    5 ar  
     8    4   33 1   
     9    5    6 ar  
    10    5    8 1   
    11    6    7 ar  
    12    6   34 1   
    13    7   35 1   
    14    8    9 2   
    15    8   10 1   
    16   10   11 1   
    17   10   15 1   
    18   11   12 1   
    19   11   36 1   
    20   11   37 1   
    21   12   13 1   
    22   12   38 1   
    23   12   39 1   
    24   13   14 2   
    25   13   18 1   
    26   14   15 1   
    27   14   16 1   
    28   15   40 1   
    29   15   41 1   
    30   16   17 1   
    31   16   23 1   
    32   17   18 ar  
    33   17   22 ar  
    34   18   19 ar  
    35   19   20 ar  
    36   19   42 1   
    37   20   21 ar  
    38   20   43 1   
    39   21   22 ar  
    40   21   44 1   
    41   22   45 1   
    42   23   24 1   
    43   23   46 1   
    44   23   47 1   
    45   24   25 ar  
    46   24   30 ar  
    47   25   26 ar  
    48   25   48 1   
    49   26   27 ar  
    50   26   49 1   
    51   27   28 1   
    52   27   29 ar  
    53   28   50 1   
    54   29   30 ar  
    55   29   51 1   
    56   30   52 1   
@<TRIPOS>SUBSTRUCTURE
     1 826         1 TEMP              0 ****  ****    0 ROOT
