@<TRIPOS>MOLECULE
826
   52    47     1     0     0
SMALL
bcc


@<TRIPOS>ATOM
      1 O01        -5.6840    0.2370   -3.9810 oh        1 826     -0.246000
      2 C02        -4.2980    0.3550   -3.9850 c2        1 826      0.098000
      3 C03        -3.5940    0.4150   -2.7690 c2        1 826     -0.225000
      4 C04        -2.1900    0.4860   -2.7720 c1        1 826     -0.062000
      5 C05        -1.4940    0.4970   -3.9810 c1        1 826     -0.155000
      6 C06        -2.2040    0.4370   -5.2090 c1        1 826     -0.050000
      7 C07        -3.5990    0.3660   -5.2050 c1        1 826     -0.164000
      8 C08         0.0260    0.5400   -3.9840 c2        1 826      0.341000
      9 O09         0.6430    0.5480   -5.0600 o         1 826     -0.345000
     10 N10         0.7690    0.6220   -2.7010 n         1 826     -0.305000
     11 C11         2.1510    0.7100   -2.6860 c3        1 826     -0.042000
     12 C12         2.8540   -0.2410   -1.8650 c3        1 826     -0.117000
     13 C13         2.1460   -0.6590   -0.5170 c2        1 826     -0.130000
     14 C14         0.8210   -0.1710   -0.2910 c1        1 826     -0.075000
     15 C15         0.1070    0.6180   -1.4970 c2        1 826      0.026000
     16 N16         0.3960   -0.6430    0.9370 n2        1 826     -0.153000
     17 C17         1.4300   -1.4210    1.4890 c1        1 826      0.011000
     18 C18         2.5090   -1.4240    0.5790 c1        1 826     -0.070000
     19 C19         3.6460   -2.1980    0.8440 c1        1 826     -0.084000
     20 C20         3.7130   -2.9740    2.0210 c1        1 826     -0.134500
     21 C21         2.6330   -2.9710    2.9340 c1        1 826     -0.134500
     22 C22         1.4980   -2.2000    2.6700 c1        1 826     -0.138000
     23 C23        -0.8330   -0.3900    1.6400 c2        1 826      0.030000
     24 C24        -0.5390    0.3900    2.9390 c2        1 826     -0.147000
     25 C25         0.2450    1.5380    2.9000 c2        1 826     -0.073000
     26 C26         0.4050    2.3190    4.0580 c1        1 826     -0.212000
     27 C27        -0.2200    1.9430    5.2400 c1        1 826      0.086000
     28 O28        -0.0640    2.7590    6.4400 oh        1 826     -0.249000
     29 C29        -1.0090    0.7860    5.2780 c1        1 826     -0.156000
     30 C30        -1.1670    0.0130    4.1320 c1        1 826     -0.088000
     31 HO1        -5.9090   -0.6210   -3.9010 ho        1 826      0.221000
     32 HC3        -4.0810    0.4070   -1.9230 ha        1 826      0.139000
     33 HC4        -1.6990    0.5280   -1.9220 ha        1 826      0.144000
     34 HC6        -1.7050    0.4440   -6.0760 ha        1 826      0.155000
     35 HC7        -4.0820    0.3250   -6.0390 ha        1 826      0.158000
     36 H111        2.3910    1.5980   -2.3840 h1        1 826      0.106500
     37 H112        2.4690    0.6060   -3.6040 h1        1 826      0.106500
     38 H121        3.7230    0.1370   -1.6440 hc        1 826      0.100500
     39 H122        3.0050   -1.0780   -2.4140 hc        1 826      0.100500
     40 H151       -0.7860    0.2160   -1.6410 h4        1 826      0.103500
     41 H152       -0.0170    1.5480   -1.2180 h4        1 826      0.103500
     42 H19         4.4000   -2.2000    0.2100 ha        1 826      0.134000
     43 H20         4.5150   -3.5190    2.2090 ha        1 826      0.130000
     44 H21         2.6790   -3.5160    3.7600 ha        1 826      0.130000
     45 H22         0.7600   -2.1990    3.2920 ha        1 826      0.133000
     46 H231       -1.2720   -1.2610    1.8680 ha        1 826      0.104500
     47 H232       -1.4110    0.1200    1.0900 ha        1 826      0.104500
     48 H25         0.6790    1.8000    2.0760 ha        1 826      0.142000
     49 H26         0.9590    3.1330    4.0310 ha        1 826      0.137000
     50 H28        -0.5270    3.5380    6.3400 ho        1 826      0.220000
     51 H29        -1.4630    0.5120    6.1370 ha        1 826      0.153000
     52 H30        -1.7260   -0.8050    4.1590 ha        1 826      0.135000
@<TRIPOS>BOND
     1    1    2 1   
     2    1   31 1   
     3    2    3 1   
     4    2    7 1   
     5    3    4 1   
     6    3   32 1   
     7    4   33 1   
     8    5    6 1   
     9    5    8 1   
    10    6   34 1   
    11    7   35 1   
    12    8    9 1   
    13    8   10 1   
    14   10   11 1   
    15   10   15 1   
    16   11   12 1   
    17   11   36 1   
    18   11   37 1   
    19   12   13 1   
    20   12   38 1   
    21   12   39 1   
    22   13   14 1   
    23   13   18 1   
    24   14   16 1   
    25   15   40 1   
    26   15   41 1   
    27   16   17 1   
    28   17   22 1   
    29   18   19 1   
    30   19   42 1   
    31   20   21 1   
    32   20   43 1   
    33   21   44 1   
    34   22   45 1   
    35   23   24 1   
    36   23   46 1   
    37   23   47 1   
    38   24   25 1   
    39   24   30 1   
    40   25   26 1   
    41   25   48 1   
    42   26   49 1   
    43   27   28 1   
    44   27   29 1   
    45   28   50 1   
    46   29   51 1   
    47   30   52 1   
@<TRIPOS>SUBSTRUCTURE
     1 826         1 TEMP              0 ****  ****    0 ROOT
