@<TRIPOS>MOLECULE
826
   52    56     1     0     0
SMALL
bcc


@<TRIPOS>ATOM
      1 O01         8.2660    2.4550   -8.4720 oh        1 826     -0.492100
      2 C02         8.2380    1.7370   -7.3000 ca        1 826      0.142100
      3 C03         8.7610    2.2330   -6.0970 ca        1 826     -0.195000
      4 C04         8.6860    1.4500   -4.9480 ca        1 826     -0.056500
      5 C05         8.0990    0.1820   -4.9980 ca        1 826     -0.174600
      6 C06         7.5930   -0.3110   -6.2080 ca        1 826     -0.056500
      7 C07         7.6500    0.4610   -7.3620 ca        1 826     -0.195000
      8 C08         8.0670   -0.7030   -3.8000 c         1 826      0.667700
      9 O09         8.5280   -1.8600   -3.8570 o         1 826     -0.584100
     10 N10         7.5980   -0.1840   -2.5840 n         1 826     -0.445800
     11 C11         7.5290   -1.0710   -1.4350 c3        1 826      0.074000
     12 C12         6.1560   -1.7150   -1.1820 c3        1 826     -0.033200
     13 C13         5.0830   -0.7350   -1.3960 cc        1 826     -0.126400
     14 C14         5.3000    0.4760   -2.0590 cd        1 826     -0.092300
     15 C15         6.6390    0.9050   -2.5700 c3        1 826      0.144200
     16 N16         4.0970    1.1920   -2.1790 na        1 826     -0.060400
     17 C17         3.1020    0.4520   -1.5150 ca        1 826     -0.042200
     18 C18         3.6870   -0.7840   -1.0360 ca        1 826     -0.077800
     19 C19         2.8830   -1.7160   -0.3800 ca        1 826     -0.083000
     20 C20         1.5370   -1.4330   -0.1960 ca        1 826     -0.156000
     21 C21         0.9760   -0.2310   -0.6600 ca        1 826     -0.114000
     22 C22         1.7380    0.7210   -1.3210 ca        1 826     -0.149000
     23 C23         3.9700    2.5520   -2.6170 c3        1 826      0.095600
     24 C24         4.2850    3.6100   -1.5970 ca        1 826     -0.160300
     25 C25         5.1790    4.6370   -1.9190 ca        1 826     -0.078500
     26 C26         5.4530    5.6520   -1.0090 ca        1 826     -0.186000
     27 C27         4.8230    5.6300    0.2470 ca        1 826      0.133100
     28 O28         5.1340    6.6570    1.1060 oh        1 826     -0.495100
     29 C29         3.9270    4.6050    0.5830 ca        1 826     -0.186000
     30 C30         3.6620    3.6010   -0.3450 ca        1 826     -0.078500
     31 HO1         8.7280    3.2890   -8.3030 ho        1 826      0.422000
     32 HC3         9.2300    3.2260   -6.0620 ha        1 826      0.147500
     33 HC4         9.1000    1.8290   -4.0000 ha        1 826      0.150000
     34 HC6         7.1580   -1.3240   -6.2420 ha        1 826      0.150000
     35 HC7         7.2540    0.0910   -8.3180 ha        1 826      0.147500
     36 H111        7.8060   -0.4500   -0.5350 h1        1 826      0.068200
     37 H112        8.2960   -1.8860   -1.5580 h1        1 826      0.068200
     38 H121        6.1330   -2.1060   -0.1310 hc        1 826      0.060700
     39 H122        6.0140   -2.5910   -1.8710 hc        1 826      0.060700
     40 H151        6.5360    1.3540   -3.6000 h1        1 826      0.067700
     41 H152        7.0450    1.7050   -1.8800 h1        1 826      0.067700
     42 H19         3.3180   -2.6590   -0.0190 ha        1 826      0.135000
     43 H20         0.8920   -2.1590    0.3210 ha        1 826      0.130000
     44 H21        -0.0960   -0.0430   -0.4950 ha        1 826      0.129000
     45 H22         1.2870    1.6550   -1.6820 ha        1 826      0.132000
     46 H231        2.9030    2.7000   -2.9590 h1        1 826      0.065700
     47 H232        4.6480    2.6840   -3.5110 h1        1 826      0.065700
     48 H25         5.6720    4.6490   -2.9030 ha        1 826      0.140000
     49 H26         6.1510    6.4650   -1.2520 ha        1 826      0.145000
     50 H28         4.6440    6.5170    1.9300 ho        1 826      0.422000
     51 H29         3.4400    4.5930    1.5680 ha        1 826      0.145000
     52 H30         2.9600    2.7910   -0.0890 ha        1 826      0.140000
@<TRIPOS>BOND
     1    1    2 1   
     2    1   31 1   
     3    2    3 ar  
     4    2    7 ar  
     5    3    4 ar  
     6    3   32 1   
     7    4    5 ar  
     8    4   33 1   
     9    5    6 ar  
    10    5    8 1   
    11    6    7 ar  
    12    6   34 1   
    13    7   35 1   
    14    8    9 2   
    15    8   10 1   
    16   10   11 1   
    17   10   15 1   
    18   11   12 1   
    19   11   36 1   
    20   11   37 1   
    21   12   13 1   
    22   12   38 1   
    23   12   39 1   
    24   13   14 2   
    25   13   18 1   
    26   14   15 1   
    27   14   16 1   
    28   15   40 1   
    29   15   41 1   
    30   16   17 1   
    31   16   23 1   
    32   17   18 ar  
    33   17   22 ar  
    34   18   19 ar  
    35   19   20 ar  
    36   19   42 1   
    37   20   21 ar  
    38   20   43 1   
    39   21   22 ar  
    40   21   44 1   
    41   22   45 1   
    42   23   24 1   
    43   23   46 1   
    44   23   47 1   
    45   24   25 ar  
    46   24   30 ar  
    47   25   26 ar  
    48   25   48 1   
    49   26   27 ar  
    50   26   49 1   
    51   27   28 1   
    52   27   29 ar  
    53   28   50 1   
    54   29   30 ar  
    55   29   51 1   
    56   30   52 1   
@<TRIPOS>SUBSTRUCTURE
     1 826         1 TEMP              0 ****  ****    0 ROOT
