@<TRIPOS>MOLECULE
829
   42    39     1     0     0
SMALL
bcc


@<TRIPOS>ATOM
      1 N1          3.0750   -1.0520    1.0810 n         1 829     -0.285000
      2 C2          2.4930   -1.2800    2.4080 c2        1 829      0.358000
      3 O2          1.3480   -0.9320    2.6330 o         1 829     -0.352000
      4 N3          3.3360   -1.7690    3.5090 n2        1 829     -0.296000
      5 C4          4.7240   -1.9290    3.3190 c1        1 829      0.228000
      6 N4          5.5460   -2.3630    4.3970 n3        1 829     -0.355000
      7 C5          5.3220   -1.7000    1.9730 c1        1 829     -0.336000
      8 C6          4.4790   -1.2170    0.8760 c2        1 829      0.067000
      9 C07        -3.2920    1.6720   -0.1980 c1        1 829      0.341000
     10 C08        -5.5570    2.0970   -0.9420 c1        1 829     -0.131000
     11 C09        -6.5430    2.4150   -1.7840 c1        1 829     -0.077000
     12 C1'         2.2340   -0.6510   -0.0060 c3        1 829      0.126000
     13 N10        -6.2460    2.7980   -3.0930 n1        1 829     -0.125000
     14 C11        -4.9600    2.8460   -3.5100 c1        1 829     -0.119000
     15 C12        -3.9640    2.5260   -2.6660 c1        1 829     -0.119000
     16 C13        -4.2530    2.1450   -1.3650 c1        1 829     -0.080000
     17 O15        -3.7420    1.3450    0.8390 o         1 829     -0.357000
     18 C2'         1.5320   -1.6180   -0.3850 c3        1 829     -0.034000
     19 O2'         2.1940   -2.3230   -1.5510 oh        1 829     -0.324000
     20 C3'         0.2070   -0.9960   -0.8310 c3        1 829      0.007000
     21 O3'         0.1120   -1.0090   -2.2000 oh        1 829     -0.323000
     22 C4'         0.2340    0.4650   -0.3190 c3        1 829      0.008000
     23 O4'         1.2080    0.4960    0.4830 os        1 829     -0.276000
     24 C5'        -1.0790    0.8010    0.4130 c3        1 829     -0.051000
     25 N5'        -1.8820    1.6290   -0.4060 n3        1 829     -0.368000
     26 HN4         5.1670   -2.7670    5.1300 hn        1 829      0.233000
     27 HN4A        6.4970   -2.3260    4.3140 hn        1 829      0.233000
     28 H5          6.3050   -1.8160    1.8360 ha        1 829      0.156000
     29 H6          4.8940   -1.0550   -0.0730 h4        1 829      0.158000
     30 H08        -5.7640    1.8310   -0.0360 ha        1 829      0.166000
     31 H09        -7.4610    2.3810   -1.4880 ha        1 829      0.165000
     32 H1'         2.7700   -0.3260   -0.7390 h2        1 829      0.123000
     33 H11        -4.7630    3.1040   -4.3950 ha        1 829      0.154500
     34 H12        -2.9940    2.5640   -2.9840 ha        1 829      0.154500
     35 H2'         1.3870   -2.2310    0.3370 h1        1 829      0.144000
     36 HO2'        2.1280   -3.2180   -1.4370 ho        1 829      0.215000
     37 H3'        -0.5620   -1.4910   -0.4260 h1        1 829      0.138000
     38 HO3'       -0.6070   -1.5810   -2.4670 ho        1 829      0.223000
     39 H4'         0.3820    1.0780   -1.0570 h1        1 829      0.125000
     40 H5'        -1.5650   -0.0340    0.6110 h1        1 829      0.129500
     41 H5'A       -0.8710    1.2770    1.2680 h1        1 829      0.129500
     42 HN5'       -1.4680    2.2120   -1.0670 hn        1 829      0.224000
@<TRIPOS>BOND
     1    1    2 1   
     2    1    8 1   
     3    1   12 1   
     4    2    3 1   
     5    2    4 1   
     6    4    5 1   
     7    5    6 1   
     8    6   26 1   
     9    6   27 1   
    10    7    8 1   
    11    7   28 1   
    12    8   29 1   
    13    9   17 1   
    14    9   25 1   
    15   10   16 1   
    16   10   30 1   
    17   11   13 1   
    18   11   31 1   
    19   12   18 1   
    20   12   23 1   
    21   12   32 1   
    22   14   15 1   
    23   14   33 1   
    24   15   34 1   
    25   18   19 1   
    26   18   20 1   
    27   18   35 1   
    28   19   36 1   
    29   20   21 1   
    30   20   22 1   
    31   20   37 1   
    32   21   38 1   
    33   22   23 1   
    34   22   24 1   
    35   22   39 1   
    36   24   25 1   
    37   24   40 1   
    38   24   41 1   
    39   25   42 1   
@<TRIPOS>SUBSTRUCTURE
     1 829         1 TEMP              0 ****  ****    0 ROOT
