@<TRIPOS>MOLECULE
829
   44    46     1     0     0
SMALL
bcc


@<TRIPOS>ATOM
      1 N1         -0.1840    0.0070   -0.2590 n         1 829     -0.358000
      2 C2          0.6990   -1.1230   -0.3080 c         1 829      0.859900
      3 O2          0.7750   -1.8160   -1.3370 o         1 829     -0.605500
      4 N3          1.4920   -1.4360    0.8310 nc        1 829     -0.615100
      5 C4          1.3940   -0.6560    1.8930 cd        1 829      0.619500
      6 N4          2.2300   -0.9920    3.0750 n4        1 829     -0.802600
      7 C5          0.5360    0.4920    1.9900 cd        1 829     -0.406600
      8 C6         -0.2400    0.7720    0.8770 cc        1 829      0.122600
      9 C07         0.7970   -3.7490   -4.4830 c         1 829      0.577700
     10 C08        -0.7050   -5.7380   -4.0640 ca        1 829     -0.196800
     11 C09        -1.0230   -7.0660   -4.3990 ca        1 829      0.423200
     12 C1'        -1.0820    0.3600   -1.3730 c3        1 829      0.295500
     13 N10        -0.3670   -7.7750   -5.3400 nb        1 829     -0.586000
     14 C11         0.6480   -7.1750   -5.9830 ca        1 829      0.423200
     15 C12         1.0550   -5.8470   -5.7240 ca        1 829     -0.196800
     16 C13         0.3540   -5.1210   -4.7490 ca        1 829     -0.163600
     17 O15         1.8890   -3.2470   -4.6980 o         1 829     -0.406100
     18 C2'        -0.5470    1.5270   -2.2620 c3        1 829      0.075100
     19 O2'        -1.4290    2.5990   -2.0230 oh        1 829     -0.591800
     20 C3'        -0.6440    1.0160   -3.7170 c3        1 829      0.101100
     21 O3'        -1.5520    1.7620   -4.4790 oh        1 829     -0.551800
     22 C4'        -1.0660   -0.4640   -3.5960 c3        1 829      0.078100
     23 O4'        -1.3290   -0.7660   -2.2180 os        1 829     -0.408600
     24 C5'         0.0350   -1.3860   -4.1320 c3        1 829      0.099800
     25 N5'        -0.2540   -2.8250   -3.8820 n4        1 829     -0.670800
     26 HN4         2.8400   -0.1900    3.2850 hn        1 829      0.489467
     27 HN4A        1.6100   -1.1710    3.8770 hn        1 829      0.489467
     28 H5          0.4780    1.1260    2.8850 ha        1 829      0.203000
     29 H6         -0.9360    1.6430    0.8730 h4        1 829      0.221000
     30 H1'        -2.0880    0.6330   -0.9200 h2        1 829      0.134700
     31 H11         1.1720   -7.7850   -6.7470 h4        1 829      0.065600
     32 H12         1.9010   -5.4030   -6.2720 ha        1 829      0.161000
     33 H2'         0.5070    1.8230   -2.0150 h1        1 829      0.084700
     34 HO2'       -1.2020    3.3140   -2.6410 ho        1 829      0.459000
     35 H3'         0.3370    1.1280   -4.2590 h1        1 829      0.122700
     36 HO3'       -2.3990    1.8040   -4.0070 ho        1 829      0.432000
     37 H4'        -2.0410   -0.6460   -4.1340 h1        1 829      0.111700
     38 H5'         1.0210   -1.1530   -3.6330 hx        1 829      0.127700
     39 H5'A        0.1390   -1.2250   -5.2440 hx        1 829      0.127700
     40 HN5'       -0.2770   -2.9720   -2.8590 hn        1 829      0.470800
     41 H08        -1.2720   -5.2400   -3.2670 ha        1 829      0.161000
     42 H43         2.8130   -1.8270    2.9040 hn        1 829      0.489467
     43 H5'2       -1.1730   -3.0700   -4.2640 hn        1 829      0.470800
     44 H09        -1.8490   -7.5980   -3.8860 h4        1 829      0.065600
@<TRIPOS>BOND
     1    1    2 1   
     2    1    8 1   
     3    1   12 1   
     4    2    3 2   
     5    2    4 1   
     6    4    5 2   
     7    5    6 1   
     8    5    7 1   
     9    6   26 1   
    10    6   27 1   
    11    6   42 1   
    12    7    8 2   
    13    7   28 1   
    14    8   29 1   
    15    9   16 1   
    16    9   17 2   
    17    9   25 1   
    18   10   11 ar  
    19   10   16 ar  
    20   10   41 1   
    21   11   13 ar  
    22   11   44 1   
    23   12   18 1   
    24   12   23 1   
    25   12   30 1   
    26   13   14 ar  
    27   14   15 ar  
    28   14   31 1   
    29   15   16 ar  
    30   15   32 1   
    31   18   19 1   
    32   18   20 1   
    33   18   33 1   
    34   19   34 1   
    35   20   21 1   
    36   20   22 1   
    37   20   35 1   
    38   21   36 1   
    39   22   23 1   
    40   22   24 1   
    41   22   37 1   
    42   24   25 1   
    43   24   38 1   
    44   24   39 1   
    45   25   40 1   
    46   25   43 1   
@<TRIPOS>SUBSTRUCTURE
     1 829         1 TEMP              0 ****  ****    0 ROOT
