@<TRIPOS>MOLECULE
829
   44    46     1     0     0
SMALL
bcc


@<TRIPOS>ATOM
      1 N1         -0.1980   -0.0150   -0.2580 n         1 829     -0.355000
      2 C2          0.6590   -1.1650   -0.3050 c         1 829      0.859900
      3 O2          0.7220   -1.8600   -1.3340 o         1 829     -0.610500
      4 N3          1.4460   -1.4940    0.8340 nc        1 829     -0.617100
      5 C4          1.3740   -0.7030    1.8910 cd        1 829      0.618500
      6 N4          2.2030   -1.0550    3.0730 nz        1 829     -0.802600
      7 C5          0.5530    0.4710    1.9800 cd        1 829     -0.407600
      8 C6         -0.2220    0.7640    0.8690 cc        1 829      0.122600
      9 C07         0.7770   -3.7200   -4.5210 c         1 829      0.577700
     10 C08        -0.7140   -5.7070   -4.0530 ca        1 829     -0.196300
     11 C09        -1.0220   -7.0460   -4.3540 ca        1 829      0.422700
     12 C1'        -1.0960    0.3530   -1.3690 c3        1 829      0.261500
     13 N10        -0.3560   -7.7760   -5.2730 nb        1 829     -0.586000
     14 C11         0.6580   -7.1860   -5.9270 ca        1 829      0.422700
     15 C12         1.0550   -5.8490   -5.7020 ca        1 829     -0.196300
     16 C13         0.3450   -5.1020   -4.7490 ca        1 829     -0.163600
     17 O15         1.8590   -3.2110   -4.7700 o         1 829     -0.409100
     18 C2'        -0.5620    1.5420   -2.2370 c3        1 829      0.089100
     19 O2'        -1.3250    2.6850   -1.9760 oh        1 829     -0.566800
     20 C3'        -0.6510    1.0430   -3.6970 c3        1 829      0.101100
     21 O3'        -1.6920    1.7140   -4.3730 oh        1 829     -0.581800
     22 C4'        -1.0700   -0.4380   -3.6010 c3        1 829      0.109100
     23 O4'        -1.3400   -0.7600   -2.2290 os        1 829     -0.406600
     24 C5'         0.0350   -1.3550   -4.1400 c3        1 829      0.097800
     25 N5'        -0.2700   -2.7940   -3.9160 ny        1 829     -0.670800
     26 HN4         1.5800   -1.2100    3.8770 hn        1 829      0.489133
     27 HN4A        2.8370   -0.2700    3.2760 hn        1 829      0.489133
     28 H5          0.5210    1.1180    2.8680 ha        1 829      0.202000
     29 H6         -0.8880    1.6570    0.8580 h4        1 829      0.221000
     30 H1'        -2.1010    0.6130   -0.9070 h2        1 829      0.122700
     31 H11         1.1890   -7.8130   -6.6730 h4        1 829      0.065600
     32 H12         1.9000   -5.4140   -6.2590 ha        1 829      0.161000
     33 H2'         0.4930    1.8280   -1.9730 h1        1 829      0.111700
     34 HO2'       -2.1590    2.6340   -2.4750 ho        1 829      0.446000
     35 H3'         0.3320    1.1690   -4.2240 h1        1 829      0.090700
     36 HO3'       -1.3250    2.5270   -4.7550 ho        1 829      0.451000
     37 H4'        -2.0450   -0.6050   -4.1460 h1        1 829      0.125700
     38 H5'         1.0150   -1.1370   -3.6230 hx        1 829      0.125200
     39 H5'A        0.1550   -1.1780   -5.2470 hx        1 829      0.125200
     40 HN5'       -1.1870   -3.0250   -4.3120 hn        1 829      0.472300
     41 H08        -1.2890   -5.1930   -3.2730 ha        1 829      0.161000
     42 H43         2.7600   -1.9080    2.9060 hn        1 829      0.489133
     43 H5'2       -0.3060   -2.9590   -2.8960 hn        1 829      0.472300
     44 H09        -1.8460   -7.5710   -3.8310 h4        1 829      0.065600
@<TRIPOS>BOND
     1    1    2 1   
     2    1    8 1   
     3    1   12 1   
     4    2    3 2   
     5    2    4 1   
     6    4    5 2   
     7    5    6 1   
     8    5    7 1   
     9    6   26 1   
    10    6   27 1   
    11    6   42 1   
    12    7    8 2   
    13    7   28 1   
    14    8   29 1   
    15    9   16 1   
    16    9   17 2   
    17    9   25 1   
    18   10   11 ar  
    19   10   16 ar  
    20   10   41 1   
    21   11   13 ar  
    22   11   44 1   
    23   12   18 1   
    24   12   23 1   
    25   12   30 1   
    26   13   14 ar  
    27   14   15 ar  
    28   14   31 1   
    29   15   16 ar  
    30   15   32 1   
    31   18   19 1   
    32   18   20 1   
    33   18   33 1   
    34   19   34 1   
    35   20   21 1   
    36   20   22 1   
    37   20   35 1   
    38   21   36 1   
    39   22   23 1   
    40   22   24 1   
    41   22   37 1   
    42   24   25 1   
    43   24   38 1   
    44   24   39 1   
    45   25   40 1   
    46   25   43 1   
@<TRIPOS>SUBSTRUCTURE
     1 829         1 TEMP              0 ****  ****    0 ROOT
