@<TRIPOS>MOLECULE
829
   42    44     1     0     0
SMALL
bcc


@<TRIPOS>ATOM
      1 N1         -2.6600    0.0900    0.5640 n         1 829     -0.393000
      2 C2         -2.8130    0.3430   -0.8540 c         1 829      0.842900
      3 O2         -2.4860   -0.5670   -1.6470 o         1 829     -0.643500
      4 N3         -3.3210    1.5620   -1.3100 nc        1 829     -0.726100
      5 C4         -3.6440    2.5140   -0.4140 cd        1 829      0.763500
      6 N4         -4.1820    3.7020   -0.8450 nh        1 829     -0.923800
      7 C5         -3.4550    2.3130    1.0230 cd        1 829     -0.423600
      8 C6         -2.9560    1.1100    1.4420 cc        1 829      0.071600
      9 C07         2.9380   -0.4690   -0.6830 c         1 829      0.660700
     10 C08         3.6340    1.0520    1.2190 ca        1 829     -0.211300
     11 C09         4.5640    1.9740    1.7340 ca        1 829      0.388200
     12 C1'        -2.0820   -1.1360    1.0980 c3        1 829      0.269500
     13 N10         5.6560    2.3860    1.0620 nb        1 829     -0.652000
     14 C11         5.8570    1.8710   -0.1660 ca        1 829      0.388200
     15 C12         4.9920    0.9400   -0.7700 ca        1 829     -0.211300
     16 C13         3.8570    0.5320   -0.0600 ca        1 829     -0.098600
     17 O15         3.3830   -1.4280   -1.3440 o         1 829     -0.594100
     18 C2'        -2.4710   -2.4460    0.3480 c3        1 829      0.095100
     19 O2'        -2.9390   -3.4030    1.2680 oh        1 829     -0.589800
     20 C3'        -1.1710   -2.9000   -0.3520 c3        1 829      0.091100
     21 O3'        -0.8370   -4.2200    0.0400 oh        1 829     -0.596800
     22 C4'        -0.0600   -1.9720    0.1720 c3        1 829      0.111100
     23 O4'        -0.6480   -1.0630    1.1150 os        1 829     -0.437600
     24 C5'         0.5980   -1.1930   -0.9800 c3        1 829      0.064000
     25 N5'         1.5820   -0.2400   -0.5520 n         1 829     -0.546900
     26 HN4        -4.2700    3.8960   -1.8130 hn        1 829      0.444300
     27 HN4A       -4.3080    4.4320   -0.1920 hn        1 829      0.444300
     28 H5         -3.7050    3.1010    1.7410 ha        1 829      0.156000
     29 H6         -2.7820    0.9100    2.5180 h4        1 829      0.158000
     30 H09         4.4280    2.4060    2.7420 h4        1 829      0.026600
     31 H1'        -2.3800   -1.2170    2.1890 h2        1 829      0.087700
     32 H11         6.7630    2.2210   -0.6930 h4        1 829      0.026600
     33 H12         5.2030    0.5290   -1.7680 ha        1 829      0.156000
     34 H2'        -3.3150   -2.3000   -0.3790 h1        1 829      0.126700
     35 HO2'       -2.1800   -3.7270    1.7750 ho        1 829      0.418000
     36 H3'        -1.2800   -2.8250   -1.4670 h1        1 829      0.092700
     37 HO3'       -1.5230   -4.7980   -0.3200 ho        1 829      0.419000
     38 H4'         0.7050   -2.5540    0.7590 h1        1 829      0.094700
     39 H5'         1.0780   -1.9410   -1.6740 h1        1 829      0.089700
     40 H5'A       -0.2080   -0.6350   -1.5420 h1        1 829      0.089700
     41 HN5'        1.2730    0.4510    0.0910 hn        1 829      0.314500
     42 H08         2.7710    0.7460    1.8260 ha        1 829      0.156000
@<TRIPOS>BOND
     1    1    2 1   
     2    1    8 1   
     3    1   12 1   
     4    2    3 2   
     5    2    4 1   
     6    4    5 2   
     7    5    6 1   
     8    5    7 1   
     9    6   26 1   
    10    6   27 1   
    11    7    8 2   
    12    7   28 1   
    13    8   29 1   
    14    9   16 1   
    15    9   17 2   
    16    9   25 1   
    17   10   11 ar  
    18   10   16 ar  
    19   10   42 1   
    20   11   13 ar  
    21   11   30 1   
    22   12   18 1   
    23   12   23 1   
    24   12   31 1   
    25   13   14 ar  
    26   14   15 ar  
    27   14   32 1   
    28   15   16 ar  
    29   15   33 1   
    30   18   19 1   
    31   18   20 1   
    32   18   34 1   
    33   19   35 1   
    34   20   21 1   
    35   20   22 1   
    36   20   36 1   
    37   21   37 1   
    38   22   23 1   
    39   22   24 1   
    40   22   38 1   
    41   24   25 1   
    42   24   39 1   
    43   24   40 1   
    44   25   41 1   
@<TRIPOS>SUBSTRUCTURE
     1 829         1 TEMP              0 ****  ****    0 ROOT
