@<TRIPOS>MOLECULE
829
   44    46     1     0     0
SMALL
bcc


@<TRIPOS>ATOM
      1 N1         -0.2460   -0.0650   -0.2420 n         1 829     -0.355000
      2 C2          0.6820   -1.1570   -0.3280 c         1 829      0.859900
      3 O2          0.7480   -1.8450   -1.3610 o         1 829     -0.610500
      4 N3          1.5340   -1.4340    0.7770 nc        1 829     -0.617100
      5 C4          1.4530   -0.6500    1.8390 cd        1 829      0.618500
      6 N4          2.3510   -0.9490    2.9850 n4        1 829     -0.802600
      7 C5          0.5620    0.4670    1.9660 cd        1 829     -0.407600
      8 C6         -0.2750    0.7100    0.8880 cc        1 829      0.122600
      9 C07         0.7970   -3.6930   -4.5540 c         1 829      0.577700
     10 C08        -0.5400   -5.7750   -4.0360 ca        1 829     -0.196300
     11 C09        -0.7720   -7.1300   -4.3300 ca        1 829      0.422700
     12 C1'        -1.2110    0.2440   -1.3140 c3        1 829      0.261500
     13 N10        -0.0970   -7.8130   -5.2790 nb        1 829     -0.586000
     14 C11         0.8480   -7.1560   -5.9700 ca        1 829      0.422700
     15 C12         1.1650   -5.7960   -5.7550 ca        1 829     -0.196300
     16 C13         0.4470   -5.1000   -4.7720 ca        1 829     -0.163600
     17 O15         1.8320   -3.1140   -4.8440 o         1 829     -0.409100
     18 C2'        -0.7920    1.4670   -2.1980 c3        1 829      0.089100
     19 O2'        -1.6170    2.5570   -1.9030 oh        1 829     -0.566800
     20 C3'        -0.9070    0.9650   -3.6560 c3        1 829      0.101100
     21 O3'        -2.0170    1.5670   -4.2870 oh        1 829     -0.581800
     22 C4'        -1.2240   -0.5400   -3.5490 c3        1 829      0.109100
     23 O4'        -1.4170   -0.8810   -2.1680 os        1 829     -0.406600
     24 C5'        -0.0840   -1.3820   -4.1350 c3        1 829      0.097800
     25 N5'        -0.2840   -2.8390   -3.9050 n4        1 829     -0.670800
     26 HN4         1.7730   -1.1440    3.8130 hn        1 829      0.489133
     27 HN4A        2.9400   -0.1250    3.1650 hn        1 829      0.489133
     28 H5          0.5240    1.1090    2.8560 ha        1 829      0.202000
     29 H6         -0.9990    1.5570    0.9080 h4        1 829      0.221000
     30 H1'        -2.2110    0.4370   -0.8110 h2        1 829      0.122700
     31 H11         1.3890   -7.7460   -6.7390 h4        1 829      0.065600
     32 H12         1.9570   -5.3060   -6.3440 ha        1 829      0.161000
     33 H2'         0.2520    1.8210   -1.9760 h1        1 829      0.111700
     34 HO2'       -2.4660    2.4520   -2.3670 ho        1 829      0.446000
     35 H3'         0.0420    1.1560   -4.2220 h1        1 829      0.090700
     36 HO3'       -1.7200    2.4020   -4.6800 ho        1 829      0.451000
     37 H4'        -2.2070   -0.7700   -4.0540 h1        1 829      0.125700
     38 H5'        -0.0210   -1.1960   -5.2460 hx        1 829      0.125200
     39 H5'A        0.9000   -1.1010   -3.6570 hx        1 829      0.125200
     40 HN5'       -1.2000   -3.1290   -4.2640 hn        1 829      0.472300
     41 H08        -1.1160   -5.3010   -3.2310 ha        1 829      0.161000
     42 H43         2.9550   -1.7640    2.7930 hn        1 829      0.489133
     43 H5'2       -0.2680   -3.0060   -2.8850 hn        1 829      0.472300
     44 H09        -1.5380   -7.7090   -3.7760 h4        1 829      0.065600
@<TRIPOS>BOND
     1    1    2 1   
     2    1    8 1   
     3    1   12 1   
     4    2    3 2   
     5    2    4 1   
     6    4    5 2   
     7    5    6 1   
     8    5    7 1   
     9    6   26 1   
    10    6   27 1   
    11    6   42 1   
    12    7    8 2   
    13    7   28 1   
    14    8   29 1   
    15    9   16 1   
    16    9   17 2   
    17    9   25 1   
    18   10   11 ar  
    19   10   16 ar  
    20   10   41 1   
    21   11   13 ar  
    22   11   44 1   
    23   12   18 1   
    24   12   23 1   
    25   12   30 1   
    26   13   14 ar  
    27   14   15 ar  
    28   14   31 1   
    29   15   16 ar  
    30   15   32 1   
    31   18   19 1   
    32   18   20 1   
    33   18   33 1   
    34   19   34 1   
    35   20   21 1   
    36   20   22 1   
    37   20   35 1   
    38   21   36 1   
    39   22   23 1   
    40   22   24 1   
    41   22   37 1   
    42   24   25 1   
    43   24   38 1   
    44   24   39 1   
    45   25   40 1   
    46   25   43 1   
@<TRIPOS>SUBSTRUCTURE
     1 829         1 TEMP              0 ****  ****    0 ROOT
