@<TRIPOS>MOLECULE
82A
   48    40     1     0     0
SMALL
bcc


@<TRIPOS>ATOM
      1 C11         0.2350   -0.8350   -2.0460 c1        1 82A     -0.077000
      2 C14         2.4840   -0.6020   -3.1540 c2        1 82A     -0.016000
      3 N16         4.0950   -1.0920   -4.5880 n2        1 82A     -0.154000
      4 C18         3.4310   -0.0210   -5.0700 c1        1 82A     -0.107000
      5 C19         2.4290    0.2910   -4.1870 c2        1 82A     -0.150000
      6 C20         1.5380    1.3730   -4.2970 c1        1 82A      0.017000
      7 C21         0.2750    1.1790   -4.8490 c1        1 82A     -0.127500
      8 C22        -0.5790    2.2700   -5.0400 c1        1 82A     -0.127500
      9 C23        -0.1630    3.5590   -4.6760 c1        1 82A     -0.129000
     10 C24         1.1040    3.7530   -4.1220 c1        1 82A     -0.064000
     11 C26         1.9550    2.6650   -3.9320 c2        1 82A     -0.124000
     12 C27        -1.7140   -1.2110    4.3720 c1        1 82A     -0.088000
     13 C29        -3.7840   -2.4040    4.5920 c1        1 82A     -0.127500
     14 C30        -3.5010   -2.6600    5.9440 c1        1 82A      0.104000
     15 O1         -0.5700    1.9160    2.7770 oh        1 82A     -0.327000
     16 C2         -1.5180    0.9330    3.1490 c3        1 82A     -0.039000
     17 C3         -0.7890   -0.3450    3.5620 c3        1 82A      0.012000
     18 N5         -0.3700   -1.0570    2.3890 n         1 82A     -0.362000
     19 C6          0.8130   -0.6290    1.6640 c2        1 82A      0.379000
     20 O7          1.8280   -0.2850    2.2870 o         1 82A     -0.363000
     21 C8          0.8670   -0.7750    0.0920 c2        1 82A     -0.168000
     22 C9          2.0080   -0.5920   -0.7110 c1        1 82A     -0.067000
     23 C10         1.6160   -0.6290   -2.0180 c2        1 82A     -0.107000
     24 N12        -0.2120   -0.9220   -0.7370 n2        1 82A     -0.158000
     25 N15         3.5060   -1.4560   -3.3940 n2        1 82A     -0.078000
     26 CL25        1.6760    5.3810   -3.7860 cl        1 82A     -0.002000
     27 C28        -2.8800   -1.6760    3.8140 c1        1 82A     -0.127500
     28 F31        -4.3280   -3.3700    6.7050 f         1 82A     -0.088000
     29 C32        -2.3350   -2.1950    6.5020 c1        1 82A     -0.101000
     30 CL33       -1.9280   -2.6120    8.1860 cl        1 82A     -0.002000
     31 C34        -1.4310   -1.4680    5.7260 c2        1 82A     -0.087000
     32 H11        -0.3440   -0.9080   -2.8850 DU        1 82A      0.214800
     33 HN16        4.8090   -1.5050   -4.9820 DU        1 82A      0.214800
     34 H18         3.6230    0.4340   -5.8730 DU        1 82A      0.214800
     35 H21        -0.0170    0.2740   -5.1040 ha        1 82A      0.142750
     36 H22        -1.4790    2.1320   -5.4330 ha        1 82A      0.142750
     37 H23        -0.7720    4.3370   -4.8120 ha        1 82A      0.147000
     38 H26         2.8850    2.8080   -3.5260 ha        1 82A      0.160000
     39 H29        -4.6050   -2.7320    4.2000 ha        1 82A      0.142750
     40 HO1        -0.9840    2.7050    2.6620 ho        1 82A      0.224000
     41 H21A       -2.1220    0.7380    2.3700 h1        1 82A      0.089500
     42 H22A       -2.0640    1.2700    3.9160 h1        1 82A      0.089500
     43 H3          0.0090   -0.1090    4.1090 h1        1 82A      0.131000
     44 HN5        -0.8420   -1.7840    2.1050 hn        1 82A      0.214000
     45 H9          2.9270   -0.4600   -0.3880 DU        1 82A      0.214800
     46 HN12       -1.0880   -1.0580   -0.4700 DU        1 82A      0.214800
     47 H28        -3.0840   -1.4900    2.8350 ha        1 82A      0.142750
     48 H34        -0.6070   -1.1380    6.1220 ha        1 82A      0.158000
@<TRIPOS>BOND
     1    1   23 1   
     2    1   24 1   
     3    2    5 1   
     4    2   23 1   
     5    2   25 1   
     6    3    4 1   
     7    3   25 1   
     8    4    5 1   
     9    5    6 1   
    10    6   11 1   
    11    7    8 1   
    12    7   35 1   
    13    8   36 1   
    14    9   10 1   
    15    9   37 1   
    16   10   11 1   
    17   11   38 1   
    18   12   17 1   
    19   12   31 1   
    20   13   27 1   
    21   13   39 1   
    22   14   28 1   
    23   14   29 1   
    24   15   16 1   
    25   15   40 1   
    26   16   17 1   
    27   16   41 1   
    28   16   42 1   
    29   17   18 1   
    30   17   43 1   
    31   18   19 1   
    32   18   44 1   
    33   19   20 1   
    34   19   21 1   
    35   21   22 1   
    36   21   24 1   
    37   22   23 1   
    38   27   47 1   
    39   29   31 1   
    40   31   48 1   
@<TRIPOS>SUBSTRUCTURE
     1 82A         1 TEMP              0 ****  ****    0 ROOT
