@<TRIPOS>MOLECULE
82A
   49    52     1     0     0
SMALL
bcc


@<TRIPOS>ATOM
      1 C11         0.0340   -0.7090    0.2340 cc        1 82A     -0.027300
      2 C14         2.3410   -0.8540   -0.8570 cd        1 82A      0.368800
      3 N16         4.2120   -1.0890   -1.9300 na        1 82A      0.007400
      4 C18         3.2280   -1.3540   -2.8800 cc        1 82A     -0.113300
      5 C19         1.9900   -1.2100   -2.2240 cd        1 82A     -0.190300
      6 C20         0.6860   -1.3850   -2.8190 ca        1 82A     -0.018000
      7 C21         0.2810   -2.6500   -3.2700 ca        1 82A     -0.117000
      8 C22        -0.9670   -2.8140   -3.8700 ca        1 82A     -0.118000
      9 C23        -1.8250   -1.7270   -4.0270 ca        1 82A     -0.114000
     10 C24        -1.4210   -0.4650   -3.5780 ca        1 82A      0.008400
     11 C26        -0.1710   -0.2860   -2.9810 ca        1 82A     -0.133000
     12 C27         2.0340   -1.2830    6.0470 ca        1 82A     -0.178300
     13 C29         1.4360   -3.5400    6.6770 ca        1 82A     -0.152000
     14 C30         2.7390   -3.9780    6.3640 ca        1 82A      0.184900
     15 C2          2.5710    1.0530    6.7740 c3        1 82A      0.111400
     16 C3          1.6490    0.1560    5.9100 c3        1 82A      0.153800
     17 N5          1.6910    0.6010    4.4660 n4        1 82A     -0.663800
     18 O7         -0.6300    0.3650    4.3000 o         1 82A     -0.487100
     19 C8          0.6420   -0.0950    2.3220 cc        1 82A     -0.300900
     20 C9          1.8370   -0.2220    1.5570 cd        1 82A     -0.069000
     21 C10         1.4600   -0.6070    0.2460 cd        1 82A     -0.161500
     22 N12        -0.4470   -0.4030    1.4750 na        1 82A     -0.108100
     23 N15         3.7110   -0.7940   -0.7390 nc        1 82A     -0.514800
     24 CL25       -2.4560    0.8690   -3.7640 cl        1 82A     -0.076400
     25 C28         1.0890   -2.2050    6.5140 ca        1 82A     -0.066000
     26 C32         3.6940   -3.0470    5.8870 ca        1 82A     -0.024600
     27 CL33        5.2700   -3.5170    5.4980 cl        1 82A     -0.019400
     28 C34         3.3290   -1.7070    5.7370 ca        1 82A     -0.099000
     29 H11        -0.6200   -0.9770   -0.6070 h4        1 82A      0.218000
     30 HN16        5.1980   -1.0960   -2.0690 hn        1 82A      0.336700
     31 H18         3.4610   -1.6100   -3.9150 h4        1 82A      0.197000
     32 H21         0.9530   -3.5130   -3.1530 ha        1 82A      0.146000
     33 H22        -1.2760   -3.8080   -4.2280 ha        1 82A      0.150000
     34 H23        -2.8080   -1.8590   -4.5070 ha        1 82A      0.159000
     35 H26         0.1530    0.7140   -2.6560 ha        1 82A      0.153000
     36 H29         0.7010   -4.2710    7.0510 ha        1 82A      0.179000
     37 HO1         1.6950    2.7460    7.1720 ho        1 82A      0.437000
     38 H21A        2.4080    0.7830    7.8490 h1        1 82A      0.090200
     39 H22A        3.6520    0.8930    6.5080 h1        1 82A      0.090200
     40 H3          0.5790    0.3110    6.2550 hx        1 82A      0.128700
     41 HN5         1.8040    1.6280    4.4620 hn        1 82A      0.465800
     42 H9          2.8600   -0.0590    1.8930 ha        1 82A      0.169000
     43 HN12       -1.3960   -0.3840    1.7640 hn        1 82A      0.333700
     44 H28         0.0650   -1.8790    6.7600 ha        1 82A      0.158000
     45 H34         4.0850   -0.9870    5.3840 ha        1 82A      0.146000
     46 C6          0.4350    0.2680    3.6910 c         1 82A      0.597700
     47 O1          2.3010    2.4080    6.4990 oh        1 82A     -0.609800
     48 H52         2.5020    0.1760    4.0060 hn        1 82A      0.465800
     49 F31         3.0520   -5.2790    6.5250 f         1 82A     -0.094900
@<TRIPOS>BOND
     1    1   21 2   
     2    1   22 1   
     3    1   29 1   
     4    2    5 1   
     5    2   21 1   
     6    2   23 2   
     7    3    4 1   
     8    3   23 1   
     9    3   30 1   
    10    4    5 2   
    11    4   31 1   
    12    5    6 1   
    13    6    7 ar  
    14    6   11 ar  
    15    7    8 ar  
    16    7   32 1   
    17    8    9 ar  
    18    8   33 1   
    19    9   10 ar  
    20    9   34 1   
    21   10   11 ar  
    22   10   24 1   
    23   11   35 1   
    24   12   16 1   
    25   12   25 ar  
    26   12   28 ar  
    27   13   14 ar  
    28   13   25 ar  
    29   13   36 1   
    30   14   26 ar  
    31   14   49 1   
    32   15   16 1   
    33   15   38 1   
    34   15   39 1   
    35   15   47 1   
    36   16   17 1   
    37   16   40 1   
    38   17   41 1   
    39   17   46 1   
    40   17   48 1   
    41   18   46 2   
    42   19   20 2   
    43   19   22 1   
    44   19   46 1   
    45   20   21 1   
    46   20   42 1   
    47   22   43 1   
    48   25   44 1   
    49   26   27 1   
    50   26   28 ar  
    51   28   45 1   
    52   37   47 1   
@<TRIPOS>SUBSTRUCTURE
     1 82A         1 TEMP              0 ****  ****    0 ROOT
