@<TRIPOS>MOLECULE
82A
   49    52     1     0     0
SMALL
bcc


@<TRIPOS>ATOM
      1 C11         0.0420   -0.7420    0.1470 cc        1 82A     -0.026300
      2 C14         2.3490   -0.9220   -0.9380 cd        1 82A      0.367800
      3 N16         4.2190   -1.1810   -2.0070 na        1 82A      0.007400
      4 C18         3.2340   -1.4490   -2.9560 cc        1 82A     -0.114300
      5 C19         1.9970   -1.2890   -2.3020 cd        1 82A     -0.191300
      6 C20         0.6910   -1.4600   -2.8960 ca        1 82A     -0.018000
      7 C21         0.2730   -2.7280   -3.3250 ca        1 82A     -0.117000
      8 C22        -0.9760   -2.8890   -3.9240 ca        1 82A     -0.118000
      9 C23        -1.8220   -1.7960   -4.1010 ca        1 82A     -0.114000
     10 C24        -1.4050   -0.5310   -3.6740 ca        1 82A      0.008400
     11 C26        -0.1530   -0.3550   -3.0780 ca        1 82A     -0.133000
     12 C27         2.0190   -1.2500    6.0250 ca        1 82A     -0.187300
     13 C29         1.3760   -3.5130    6.5780 ca        1 82A     -0.156000
     14 C30         2.7110   -3.9370    6.4140 ca        1 82A      0.184900
     15 C2          2.5280    1.1320    6.6840 c3        1 82A      0.111400
     16 C3          1.6440    0.1880    5.8370 c3        1 82A      0.188800
     17 N5          1.7090    0.5620    4.3730 ny        1 82A     -0.656800
     18 O7         -0.6150    0.3550    4.2100 o         1 82A     -0.488100
     19 C8          0.6520   -0.1270    2.2340 cc        1 82A     -0.301900
     20 C9          1.8490   -0.2740    1.4720 cd        1 82A     -0.066000
     21 C10         1.4690   -0.6590    0.1620 cd        1 82A     -0.162500
     22 N12        -0.4380   -0.4240    1.3850 na        1 82A     -0.108100
     23 N15         3.7190   -0.8720   -0.8190 nc        1 82A     -0.512800
     24 Cl25       -2.4250    0.8100   -3.8840 cl        1 82A     -0.076400
     25 C28         1.0360   -2.1810    6.3810 ca        1 82A     -0.068000
     26 C32         3.7050   -2.9950    6.0530 ca        1 82A     -0.029600
     27 Cl33        5.3200   -3.4490    5.8470 cl        1 82A     -0.022400
     28 C34         3.3460   -1.6590    5.8660 ca        1 82A     -0.091000
     29 H11        -0.6130   -1.0060   -0.6950 h4        1 82A      0.218000
     30 HN16        5.2050   -1.1980   -2.1450 hn        1 82A      0.336700
     31 H18         3.4650   -1.7160   -3.9880 h4        1 82A      0.197000
     32 H21         0.9360   -3.5960   -3.1920 ha        1 82A      0.146000
     33 H22        -1.2950   -3.8860   -4.2650 ha        1 82A      0.150000
     34 H23        -2.8050   -1.9260   -4.5810 ha        1 82A      0.159000
     35 H26         0.1810    0.6470   -2.7700 ha        1 82A      0.153000
     36 H29         0.6110   -4.2520    6.8660 ha        1 82A      0.177000
     37 HO1         4.3860    1.6950    6.6210 ho        1 82A      0.451000
     38 H21A        2.7160    0.6390    7.6750 h1        1 82A      0.074700
     39 H22A        1.9960    2.1110    6.8430 h1        1 82A      0.074700
     40 H3          0.5700    0.3500    6.1720 hx        1 82A      0.131700
     41 HN5         2.5110    0.0760    3.9520 hn        1 82A      0.465300
     42 H9          2.8720   -0.1230    1.8130 ha        1 82A      0.171000
     43 HN12       -1.3880   -0.3940    1.6720 hn        1 82A      0.333700
     44 H28        -0.0120   -1.8640    6.5120 ha        1 82A      0.157000
     45 H34         4.1230   -0.9150    5.6120 ha        1 82A      0.165000
     46 C6          0.4490    0.2430    3.6010 c         1 82A      0.595700
     47 O1          3.7360    1.3710    5.9830 oh        1 82A     -0.636800
     48 H52         1.8820    1.5730    4.3060 hn        1 82A      0.465300
     49 F31         3.0150   -5.2350    6.6060 f         1 82A     -0.095900
@<TRIPOS>BOND
     1    1   21 2   
     2    1   22 1   
     3    1   29 1   
     4    2    5 1   
     5    2   21 1   
     6    2   23 2   
     7    3    4 1   
     8    3   23 1   
     9    3   30 1   
    10    4    5 2   
    11    4   31 1   
    12    5    6 1   
    13    6    7 ar  
    14    6   11 ar  
    15    7    8 ar  
    16    7   32 1   
    17    8    9 ar  
    18    8   33 1   
    19    9   10 ar  
    20    9   34 1   
    21   10   11 ar  
    22   10   24 1   
    23   11   35 1   
    24   12   16 1   
    25   12   25 ar  
    26   12   28 ar  
    27   13   14 ar  
    28   13   25 ar  
    29   13   36 1   
    30   14   26 ar  
    31   14   49 1   
    32   15   16 1   
    33   15   38 1   
    34   15   39 1   
    35   15   47 1   
    36   16   17 1   
    37   16   40 1   
    38   17   41 1   
    39   17   46 1   
    40   17   48 1   
    41   18   46 2   
    42   19   20 2   
    43   19   22 1   
    44   19   46 1   
    45   20   21 1   
    46   20   42 1   
    47   22   43 1   
    48   25   44 1   
    49   26   27 1   
    50   26   28 ar  
    51   28   45 1   
    52   37   47 1   
@<TRIPOS>SUBSTRUCTURE
     1 82A         1 TEMP              0 ****  ****    0 ROOT
