@<TRIPOS>MOLECULE
82A
   49    52     1     0     0
SMALL
bcc


@<TRIPOS>ATOM
      1 C11         0.0900   -0.6940    0.2170 cc        1 82A     -0.027300
      2 C14         2.4100   -0.8890   -0.8380 cd        1 82A      0.368800
      3 N16         4.2920   -1.1550   -1.8830 na        1 82A      0.007400
      4 C18         3.3180   -1.4100   -2.8460 cc        1 82A     -0.113300
      5 C19         2.0730   -1.2460   -2.2070 cd        1 82A     -0.191300
      6 C20         0.7740   -1.4050   -2.8200 ca        1 82A     -0.019000
      7 C21         0.3520   -2.6680   -3.2580 ca        1 82A     -0.117000
      8 C22        -0.8890   -2.8180   -3.8740 ca        1 82A     -0.118000
      9 C23        -1.7250   -1.7180   -4.0590 ca        1 82A     -0.114000
     10 C24        -1.3030   -0.4570   -3.6230 ca        1 82A      0.008400
     11 C26        -0.0580   -0.2930   -3.0100 ca        1 82A     -0.133000
     12 C27         1.9820   -1.3250    6.0590 ca        1 82A     -0.178300
     13 C29         1.3220   -3.5700    6.6710 ca        1 82A     -0.152000
     14 C30         2.6190   -4.0370    6.3780 ca        1 82A      0.184900
     15 C2          2.5620    0.9950    6.8010 c3        1 82A      0.111400
     16 C3          1.6330    0.1220    5.9200 c3        1 82A      0.153800
     17 N5          1.7080    0.5710    4.4780 n4        1 82A     -0.663800
     18 O7         -0.6150    0.3880    4.2740 o         1 82A     -0.487100
     19 C8          0.6780   -0.0980    2.3160 cc        1 82A     -0.300900
     20 C9          1.8830   -0.2510    1.5700 cd        1 82A     -0.069000
     21 C10         1.5180   -0.6240    0.2520 cd        1 82A     -0.161500
     22 N12        -0.4030   -0.3790    1.4510 na        1 82A     -0.108100
     23 N15         3.7790   -0.8480   -0.7000 nc        1 82A     -0.514800
     24 CL25       -2.3100    0.8920   -3.8420 cl        1 82A     -0.076400
     25 C28         1.0090   -2.2270    6.5070 ca        1 82A     -0.066000
     26 C32         3.6030   -3.1270    5.9190 ca        1 82A     -0.024600
     27 CL33        5.1730   -3.6320    5.5530 cl        1 82A     -0.019400
     28 C34         3.2720   -1.7790    5.7680 ca        1 82A     -0.099000
     29 H11        -0.5560   -0.9470   -0.6350 h4        1 82A      0.218000
     30 HN16        5.2800   -1.1760   -2.0090 hn        1 82A      0.336700
     31 H18         3.5610   -1.6730   -3.8770 h4        1 82A      0.198000
     32 H21         1.0070   -3.5420   -3.1190 ha        1 82A      0.146000
     33 H22        -1.2120   -3.8120   -4.2220 ha        1 82A      0.150000
     34 H23        -2.7020   -1.8390   -4.5520 ha        1 82A      0.159000
     35 H26         0.2800    0.7060   -2.6940 ha        1 82A      0.153000
     36 H29         0.5640   -4.2850    7.0310 ha        1 82A      0.179000
     37 HO1         1.7190    2.7070    7.1910 ho        1 82A      0.437000
     38 H21A        2.3750    0.7270    7.8730 h1        1 82A      0.090200
     39 H22A        3.6430    0.8110    6.5510 h1        1 82A      0.090200
     40 H3          0.5610    0.3010    6.2480 hx        1 82A      0.128700
     41 HN5         1.8440    1.5950    4.4790 hn        1 82A      0.465800
     42 H9          2.9020   -0.1100    1.9230 ha        1 82A      0.169000
     43 HN12       -1.3560   -0.3400    1.7250 hn        1 82A      0.333700
     44 H28        -0.0110   -1.8780    6.7380 ha        1 82A      0.158000
     45 H34         4.0500   -1.0750    5.4290 ha        1 82A      0.146000
     46 C6          0.4570    0.2680    3.6820 c         1 82A      0.597700
     47 O1          2.3280    2.3580    6.5260 oh        1 82A     -0.609800
     48 H52         2.5170    0.1290    4.0300 hn        1 82A      0.465800
     49 F31         2.8990   -5.3450    6.5390 f         1 82A     -0.094900
@<TRIPOS>BOND
     1    1   21 2   
     2    1   22 1   
     3    1   29 1   
     4    2    5 1   
     5    2   21 1   
     6    2   23 2   
     7    3    4 1   
     8    3   23 1   
     9    3   30 1   
    10    4    5 2   
    11    4   31 1   
    12    5    6 1   
    13    6    7 ar  
    14    6   11 ar  
    15    7    8 ar  
    16    7   32 1   
    17    8    9 ar  
    18    8   33 1   
    19    9   10 ar  
    20    9   34 1   
    21   10   11 ar  
    22   10   24 1   
    23   11   35 1   
    24   12   16 1   
    25   12   25 ar  
    26   12   28 ar  
    27   13   14 ar  
    28   13   25 ar  
    29   13   36 1   
    30   14   26 ar  
    31   14   49 1   
    32   15   16 1   
    33   15   38 1   
    34   15   39 1   
    35   15   47 1   
    36   16   17 1   
    37   16   40 1   
    38   17   41 1   
    39   17   46 1   
    40   17   48 1   
    41   18   46 2   
    42   19   20 2   
    43   19   22 1   
    44   19   46 1   
    45   20   21 1   
    46   20   42 1   
    47   22   43 1   
    48   25   44 1   
    49   26   27 1   
    50   26   28 ar  
    51   28   45 1   
    52   37   47 1   
@<TRIPOS>SUBSTRUCTURE
     1 82A         1 TEMP              0 ****  ****    0 ROOT
