@<TRIPOS>MOLECULE
82A
   48    51     1     0     0
SMALL
bcc


@<TRIPOS>ATOM
      1 C11         6.2490   -3.0150    2.8390 cc        1 82A     -0.103300
      2 C14         5.9980   -3.3770    0.3280 cd        1 82A      0.423800
      3 N16         5.8330   -4.0770   -1.7240 na        1 82A     -0.011600
      4 C18         4.6480   -4.4850   -1.1230 cc        1 82A     -0.131300
      5 C19         4.7050   -4.0440    0.2150 cd        1 82A     -0.213300
      6 C20         3.6670   -4.2250    1.1980 ca        1 82A      0.015000
      7 C21         3.0070   -5.4600    1.3010 ca        1 82A     -0.129000
      8 C22         1.9790   -5.6350    2.2250 ca        1 82A     -0.121000
      9 C23         1.5910   -4.5880    3.0580 ca        1 82A     -0.129000
     10 C24         2.2460   -3.3570    2.9550 ca        1 82A      0.014400
     11 C26         3.2780   -3.1680    2.0330 ca        1 82A     -0.123000
     12 C27        12.1170    0.6120    2.9840 ca        1 82A     -0.108300
     13 C29        14.1550    0.1090    4.1880 ca        1 82A     -0.160000
     14 C30        14.7820   -0.2630    2.9830 ca        1 82A      0.137900
     15 C2         10.6150    2.3890    2.1570 c3        1 82A      0.114400
     16 C3         10.6820    1.0930    3.0010 c3        1 82A      0.152000
     17 N5          9.7580    0.0810    2.5500 n         1 82A     -0.548900
     18 O7          9.0080   -0.4320    4.6640 o         1 82A     -0.629100
     19 C8          7.9300   -1.5010    2.8300 cc        1 82A     -0.203900
     20 C9          7.6510   -1.8110    1.4860 cd        1 82A     -0.109000
     21 C10         6.5830   -2.7680    1.4860 cd        1 82A     -0.213500
     22 N12         7.0640   -2.2480    3.6410 na        1 82A     -0.130100
     23 N15         6.6390   -3.4280   -0.8860 nc        1 82A     -0.520800
     24 CL25        1.7800   -2.0700    3.9660 cl        1 82A     -0.095400
     25 C28        12.8330    0.5380    4.1830 ca        1 82A     -0.083000
     26 C32        14.0560   -0.2000    1.7730 ca        1 82A     -0.025600
     27 CL33       14.7610   -0.6440    0.2950 cl        1 82A     -0.069400
     28 C34        12.7280    0.2340    1.7870 ca        1 82A     -0.093000
     29 H11         5.4890   -3.6840    3.2510 h4        1 82A      0.184000
     30 HN16        6.1110   -4.2250   -2.6650 hn        1 82A      0.323700
     31 H18         3.8690   -5.0280   -1.6580 h4        1 82A      0.179000
     32 H21         3.3090   -6.2930    0.6490 ha        1 82A      0.136000
     33 H22         1.4700   -6.6070    2.3000 ha        1 82A      0.137000
     34 H23         0.7780   -4.7280    3.7860 ha        1 82A      0.147000
     35 H26         3.7890   -2.1950    1.9530 ha        1 82A      0.161000
     36 H29        14.7240    0.0490    5.1280 ha        1 82A      0.156000
     37 HO1         9.3420    3.8160    1.9150 ho        1 82A      0.405000
     38 H21A       11.4220    3.0860    2.5080 h1        1 82A      0.032700
     39 H22A       10.7650    2.1720    1.0660 h1        1 82A      0.032700
     40 H3         10.3980    1.3650    4.0660 h1        1 82A      0.108700
     41 HN5         9.6050    0.0020    1.5730 hn        1 82A      0.315500
     42 H9          8.1430   -1.4130    0.6030 ha        1 82A      0.161000
     43 HN12        7.0600   -2.2000    4.6300 hn        1 82A      0.319700
     44 H28        12.3470    0.8130    5.1330 ha        1 82A      0.153000
     45 H34        12.1610    0.2740    0.8440 ha        1 82A      0.147000
     46 C6          8.9190   -0.5810    3.4250 c         1 82A      0.712700
     47 F31        16.0700   -0.6760    3.0110 f         1 82A     -0.124900
     48 O1          9.3390    2.9650    2.3680 oh        1 82A     -0.593800
@<TRIPOS>BOND
     1    1   21 2   
     2    1   22 1   
     3    1   29 1   
     4    2    5 1   
     5    2   21 1   
     6    2   23 2   
     7    3    4 1   
     8    3   23 1   
     9    3   30 1   
    10    4    5 2   
    11    4   31 1   
    12    5    6 1   
    13    6    7 ar  
    14    6   11 ar  
    15    7    8 ar  
    16    7   32 1   
    17    8    9 ar  
    18    8   33 1   
    19    9   10 ar  
    20    9   34 1   
    21   10   11 ar  
    22   10   24 1   
    23   11   35 1   
    24   12   16 1   
    25   12   25 ar  
    26   12   28 ar  
    27   13   14 ar  
    28   13   25 ar  
    29   13   36 1   
    30   14   26 ar  
    31   14   47 1   
    32   15   16 1   
    33   15   38 1   
    34   15   39 1   
    35   15   48 1   
    36   16   17 1   
    37   16   40 1   
    38   17   41 1   
    39   17   46 1   
    40   18   46 2   
    41   19   20 2   
    42   19   22 1   
    43   19   46 1   
    44   20   21 1   
    45   20   42 1   
    46   22   43 1   
    47   25   44 1   
    48   26   27 1   
    49   26   28 ar  
    50   28   45 1   
    51   37   48 1   
@<TRIPOS>SUBSTRUCTURE
     1 82A         1 TEMP              0 ****  ****    0 ROOT
