@<TRIPOS>MOLECULE
82B
   68    73     1     0     0
SMALL
bcc


@<TRIPOS>ATOM
      1 O22         0.3390    1.7490   -0.2010 o         1 82B     -0.492100
      2 C20         1.4800    1.2690   -0.2160 c         1 82B      0.655100
      3 N21         2.2160    1.3780    1.1100 n4        1 82B     -0.652800
      4 C24         1.5320    0.5560    2.1870 c3        1 82B      0.185800
      5 C25         1.7660   -0.9080    1.9870 ca        1 82B     -0.176300
      6 C30         0.6660   -1.7550    1.8110 ca        1 82B     -0.115500
      7 C29         0.8580   -3.1330    1.7030 ca        1 82B     -0.118500
      8 C28         2.1440   -3.6680    1.7640 ca        1 82B     -0.086000
      9 C27         3.2440   -2.8230    1.9290 ca        1 82B     -0.118500
     10 C26         3.0590   -1.4470    2.0400 ca        1 82B     -0.115500
     11 C23         2.0220    0.9880    3.6020 c3        1 82B      0.150800
     12 N31         2.0050    2.4260    3.7600 n3        1 82B     -0.782600
     13 C36         2.9570    2.9380    4.7560 c3        1 82B      0.154800
     14 C35         2.2140    3.8370    5.7550 c3        1 82B     -0.093900
     15 C34         0.7580    3.8590    5.3130 c3        1 82B     -0.093900
     16 C33         0.6810    2.9940    4.0470 c3        1 82B      0.154800
     17 N8          2.1220    0.7390   -1.3040 n         1 82B     -0.417800
     18 C4          1.4280    0.5630   -2.5900 cx        1 82B     -0.016900
     19 C19        -0.0670    0.3440   -2.7400 cx        1 82B     -0.082900
     20 C18         0.5420    1.6290   -3.2090 cx        1 82B     -0.082900
     21 C7          3.4460    0.0890   -1.2740 c3        1 82B      0.175300
     22 C6          3.6020   -0.4850   -2.6380 cc        1 82B     -0.240600
     23 C5          2.3890   -0.2010   -3.4080 cc        1 82B      0.341600
     24 N1          2.4740   -0.7090   -4.6590 nd        1 82B     -0.361800
     25 C3          4.4110   -1.1940   -3.5340 cd        1 82B     -0.042700
     26 N2          3.6550   -1.3080   -4.7350 na        1 82B      0.024400
     27 N9          5.7290   -1.7590   -3.3490 n4        1 82B     -0.518200
     28 C10         6.6790   -1.4870   -4.5360 c         1 82B      0.610700
     29 O12         6.2780   -1.9280   -5.6100 o         1 82B     -0.483100
     30 C11         7.8820   -0.8050   -4.2080 cc        1 82B     -0.299900
     31 N16         8.8870   -0.5530   -5.1810 na        1 82B      0.032900
     32 C32         8.8140   -0.9450   -6.5620 c3        1 82B     -0.014400
     33 C15         9.9130    0.1080   -4.5770 cc        1 82B      0.005700
     34 C14         9.6040    0.3090   -3.1880 cd        1 82B     -0.116900
     35 BR         10.6820    1.1510   -1.9760 br        1 82B      0.043900
     36 C13         8.3390   -0.2620   -2.9640 cd        1 82B     -0.065000
     37 H21         2.1640    2.3720    1.3980 hn        1 82B      0.466300
     38 H24         0.4270    0.8010    2.0970 hx        1 82B      0.129700
     39 H231        3.0690    0.6020    3.7560 h1        1 82B      0.078700
     40 H232        1.3470    0.4400    4.3240 h1        1 82B      0.078700
     41 H30        -0.3560   -1.3430    1.7780 ha        1 82B      0.139500
     42 H26         3.9290   -0.7970    2.2160 ha        1 82B      0.139500
     43 H29        -0.0140   -3.7990    1.5840 ha        1 82B      0.160500
     44 H28         2.2910   -4.7590    1.6980 ha        1 82B      0.165000
     45 H27         4.2570   -3.2490    2.0030 ha        1 82B      0.160500
     46 H361        3.4890    2.1110    5.3010 h1        1 82B      0.050950
     47 H362        3.7260    3.5330    4.1910 h1        1 82B      0.050950
     48 H331       -0.1040    2.1970    4.1660 h1        1 82B      0.050950
     49 H332        0.3990    3.6270    3.1600 h1        1 82B      0.050950
     50 H351        2.6530    4.8660    5.7490 hc        1 82B      0.070200
     51 H352        2.3140    3.4330    6.7930 hc        1 82B      0.070200
     52 H341        0.4190    4.9010    5.0920 hc        1 82B      0.070200
     53 H342        0.0900    3.4470    6.1090 hc        1 82B      0.070200
     54 H71C        4.2380    0.8630   -1.0640 h1        1 82B      0.076200
     55 H72C        3.4740   -0.7150   -0.4800 h1        1 82B      0.076200
     56 H191       -0.7120    0.3600   -1.8410 hc        1 82B      0.111700
     57 H192       -0.4000   -0.4110   -3.4790 hc        1 82B      0.111700
     58 H181        0.3330    2.5530   -2.6360 hc        1 82B      0.111700
     59 H182        0.6550    1.8260   -4.2930 hc        1 82B      0.111700
     60 H2          3.9760   -1.7080   -5.6010 hn        1 82B      0.377700
     61 H9          6.1210   -1.3740   -2.4830 hn        1 82B      0.470800
     62 H13         7.8140   -0.2790   -2.0110 ha        1 82B      0.156000
     63 H321        9.7540   -0.6310   -7.0910 h1        1 82B      0.094367
     64 H322        7.9260   -0.4550   -7.0470 h1        1 82B      0.094367
     65 H323        8.6960   -2.0620   -6.6320 h1        1 82B      0.094367
     66 H15        10.8200    0.4170   -5.1190 h4        1 82B      0.227000
     67 H212        3.1960    1.1020    1.0490 hn        1 82B      0.466300
     68 H92         5.6370   -2.7830   -3.2520 hn        1 82B      0.470800
@<TRIPOS>BOND
     1    1    2 2   
     2    2    3 1   
     3    2   17 1   
     4    3    4 1   
     5    3   37 1   
     6    3   67 1   
     7    4    5 1   
     8    4   11 1   
     9    4   38 1   
    10    5    6 ar  
    11    5   10 ar  
    12    6    7 ar  
    13    6   41 1   
    14    7    8 ar  
    15    7   43 1   
    16    8    9 ar  
    17    8   44 1   
    18    9   10 ar  
    19    9   45 1   
    20   10   42 1   
    21   11   12 1   
    22   11   39 1   
    23   11   40 1   
    24   12   13 1   
    25   12   16 1   
    26   13   14 1   
    27   13   46 1   
    28   13   47 1   
    29   14   15 1   
    30   14   50 1   
    31   14   51 1   
    32   15   16 1   
    33   15   52 1   
    34   15   53 1   
    35   16   48 1   
    36   16   49 1   
    37   17   18 1   
    38   17   21 1   
    39   18   19 1   
    40   18   20 1   
    41   18   23 1   
    42   19   20 1   
    43   19   56 1   
    44   19   57 1   
    45   20   58 1   
    46   20   59 1   
    47   21   22 1   
    48   21   54 1   
    49   21   55 1   
    50   22   23 1   
    51   22   25 2   
    52   23   24 2   
    53   24   26 1   
    54   25   26 1   
    55   25   27 1   
    56   26   60 1   
    57   27   28 1   
    58   27   61 1   
    59   27   68 1   
    60   28   29 2   
    61   28   30 1   
    62   30   31 1   
    63   30   36 2   
    64   31   32 1   
    65   31   33 1   
    66   32   63 1   
    67   32   64 1   
    68   32   65 1   
    69   33   34 2   
    70   33   66 1   
    71   34   35 1   
    72   34   36 1   
    73   36   62 1   
@<TRIPOS>SUBSTRUCTURE
     1 82B         1 TEMP              0 ****  ****    0 ROOT
