@<TRIPOS>MOLECULE
82B
   66    62     1     0     0
SMALL
bcc


@<TRIPOS>ATOM
      1 O22        -3.3850   -0.1290    0.0780 o         1 82B     -0.411000
      2 C20        -2.1680   -0.0810    0.0850 c1        1 82B      0.398000
      3 N21        -1.4530   -0.0620    1.3400 n2        1 82B     -0.323000
      4 C24        -2.1710   -0.1190    2.5700 c3        1 82B      0.043000
      5 C25        -2.3820   -1.5680    2.9660 c2        1 82B     -0.076000
      6 C30        -3.6730   -2.0710    3.1030 c1        1 82B     -0.114000
      7 C29        -3.8680   -3.3900    3.5030 c1        1 82B     -0.128500
      8 C28        -2.7720   -4.2070    3.7660 c1        1 82B     -0.128500
      9 C27        -1.4810   -3.7040    3.6300 c1        1 82B     -0.132000
     10 C26        -1.2860   -2.3850    3.2300 c2        1 82B     -0.120000
     11 C23        -1.3770    0.5950    3.6560 c3        1 82B     -0.092000
     12 N31        -1.9710    1.8940    3.9160 n3        1 82B     -0.261000
     13 C36        -0.8240    2.9280    4.3660 c3        1 82B     -0.080000
     14 C35        -1.4330    3.8730    5.0900 c3        1 82B     -0.168000
     15 C34        -2.6680    3.1820    5.6910 c3        1 82B     -0.168000
     16 C33        -2.7950    1.8030    4.9280 c3        1 82B     -0.080000
     17 N8         -1.4390   -0.0280   -1.1670 n3        1 82B     -0.297000
     18 C4         -2.0120   -0.0260   -2.4710 cx        1 82B      0.088000
     19 C19        -3.2080   -0.6550   -3.1850 cx        1 82B     -0.191500
     20 C18        -3.0840    0.8400   -3.1300 cx        1 82B     -0.191500
     21 C7         -0.0140    0.0310   -1.3090 c3        1 82B      0.071000
     22 C6          0.3010   -0.1300   -2.8060 c2        1 82B     -0.268000
     23 C5         -0.8830   -0.1930   -3.4820 c2        1 82B     -0.081000
     24 N1         -0.6030   -0.3560   -4.8080 n2        1 82B     -0.036000
     25 C3          1.3240   -0.2560   -3.7260 c1        1 82B      0.110000
     26 N2          0.7670   -0.3950   -4.9540 n2        1 82B     -0.173000
     27 N9          2.7310   -0.1710   -3.4420 n2        1 82B     -0.299000
     28 C10         3.6900   -0.5800   -4.4320 c2        1 82B      0.393000
     29 O12         3.3110   -0.9980   -5.5110 o         1 82B     -0.383000
     30 C11         5.1870   -0.4980   -4.1270 c2        1 82B     -0.160000
     31 N16         6.1550   -0.0240   -4.9720 n2        1 82B     -0.073000
     32 C32         5.9350    0.5420   -6.2730 c2        1 82B     -0.087000
     33 C15         7.3690   -0.1990   -4.3670 c1        1 82B     -0.065000
     34 C14         7.1520   -0.7860   -3.1350 c1        1 82B     -0.272000
     35 BR          8.4960   -1.2310   -1.8480 br        1 82B      0.101000
     36 C13         5.8090   -0.9700   -2.9880 c1        1 82B     -0.106000
     37 H21        -0.5380    0.0020    1.3450 hn        1 82B      0.202000
     38 H24        -3.0430    0.3200    2.4600 h1        1 82B      0.141000
     39 H231       -1.3910    0.0570    4.4790 h1        1 82B      0.078500
     40 H232       -0.4470    0.7130    3.3580 h1        1 82B      0.078500
     41 H30        -4.4460   -1.4950    2.9170 ha        1 82B      0.139000
     42 H26        -0.3770   -2.0310    3.1340 ha        1 82B      0.125000
     43 H29        -4.7780   -3.7450    3.5990 ha        1 82B      0.132000
     44 H28        -2.9100   -5.1370    4.0480 ha        1 82B      0.132000
     45 H27        -0.7080   -4.2800    3.8150 ha        1 82B      0.130000
     46 H361       -0.4010    3.3300    3.5730 h1        1 82B      0.085000
     47 H362       -0.1480    2.4660    4.9130 h1        1 82B      0.085000
     48 H331       -2.5310    1.0610    5.5170 h1        1 82B      0.085000
     49 H332       -3.7160    1.6740    4.6080 h1        1 82B      0.085000
     50 H351       -0.8370    4.1920    5.8060 hc        1 82B      0.086500
     51 H352       -1.7080    4.6220    4.5130 hc        1 82B      0.086500
     52 H341       -2.5360    3.0270    6.6540 hc        1 82B      0.086500
     53 H342       -3.4710    3.7290    5.5400 hc        1 82B      0.086500
     54 H71C        0.2770    0.9300   -1.0370 h1        1 82B      0.089500
     55 H72C        0.3660   -0.7420   -0.8380 h1        1 82B      0.089500
     56 H191       -3.0150   -1.0660   -4.0560 hc        1 82B      0.127750
     57 H192       -3.8930   -1.0470   -2.6020 hc        1 82B      0.127750
     58 H181       -2.8220    1.2770   -3.9700 hc        1 82B      0.127750
     59 H182       -3.7010    1.2950   -2.5150 hc        1 82B      0.127750
     60 H2          1.2220   -0.4940   -5.7440 DU        1 82B      0.213333
     61 H9          3.0170    0.1710   -2.6410 hn        1 82B      0.255000
     62 H13         5.3640   -1.3680   -2.2100 DU        1 82B      0.213333
     63 H321        6.7380    1.0350   -6.5550 ha        1 82B      0.109667
     64 H322        5.1690    1.1560   -6.2380 ha        1 82B      0.109667
     65 H323        5.7500   -0.1770   -6.9160 ha        1 82B      0.109667
     66 H15         8.2410    0.0500   -4.7410 DU        1 82B      0.213333
@<TRIPOS>BOND
     1    1    2 1   
     2    2   17 1   
     3    3    4 1   
     4    3   37 1   
     5    4    5 1   
     6    4   11 1   
     7    4   38 1   
     8    5    6 1   
     9    5   10 1   
    10    6   41 1   
    11    7    8 1   
    12    7   43 1   
    13    8   44 1   
    14    9   10 1   
    15    9   45 1   
    16   10   42 1   
    17   11   12 1   
    18   11   39 1   
    19   11   40 1   
    20   12   13 1   
    21   12   16 1   
    22   13   14 1   
    23   13   46 1   
    24   13   47 1   
    25   14   15 1   
    26   14   50 1   
    27   14   51 1   
    28   15   16 1   
    29   15   52 1   
    30   15   53 1   
    31   16   48 1   
    32   16   49 1   
    33   17   18 1   
    34   17   21 1   
    35   18   19 1   
    36   18   20 1   
    37   18   23 1   
    38   19   20 1   
    39   19   56 1   
    40   19   57 1   
    41   20   58 1   
    42   20   59 1   
    43   21   22 1   
    44   21   54 1   
    45   21   55 1   
    46   22   23 1   
    47   22   25 1   
    48   23   24 1   
    49   24   26 1   
    50   25   26 1   
    51   27   28 1   
    52   27   61 1   
    53   28   29 1   
    54   28   30 1   
    55   30   31 1   
    56   30   36 1   
    57   31   33 1   
    58   32   63 1   
    59   32   64 1   
    60   32   65 1   
    61   33   34 1   
    62   34   36 1   
@<TRIPOS>SUBSTRUCTURE
     1 82B         1 TEMP              0 ****  ****    0 ROOT
