@<TRIPOS>MOLECULE
82B
   67    72     1     0     0
SMALL
bcc


@<TRIPOS>ATOM
      1 O22        -0.0530    1.6020   -0.0370 o         1 82B     -0.529100
      2 C20         1.1620    1.3920   -0.1750 c         1 82B      0.649100
      3 N21         1.9590    1.6270    1.1130 ny        1 82B     -0.656800
      4 C24         1.6050    0.6010    2.1640 c3        1 82B      0.186800
      5 C25         2.1920   -0.7380    1.8420 ca        1 82B     -0.170300
      6 C30         1.3350   -1.8240    1.6270 ca        1 82B     -0.111500
      7 C29         1.8650   -3.0890    1.3690 ca        1 82B     -0.116500
      8 C28         3.2460   -3.2730    1.3190 ca        1 82B     -0.086000
      9 C27         4.1030   -2.1900    1.5290 ca        1 82B     -0.116500
     10 C26         3.5790   -0.9260    1.7910 ca        1 82B     -0.111500
     11 C23         2.0800    1.0590    3.5740 c3        1 82B      0.149800
     12 N31         1.6750    2.4180    3.8680 n3        1 82B     -0.774600
     13 C36         2.5050    3.0900    4.8750 c3        1 82B      0.155800
     14 C35         1.6020    3.6800    5.9680 c3        1 82B     -0.093400
     15 C34         0.1720    3.3340    5.5750 c3        1 82B     -0.093400
     16 C33         0.2660    2.5670    4.2480 c3        1 82B      0.155800
     17 N8          1.8340    1.0680   -1.3100 n         1 82B     -0.394800
     18 C4          1.1340    0.7600   -2.5700 cx        1 82B      0.015100
     19 C19        -0.2750    0.2080   -2.6440 cx        1 82B     -0.100400
     20 C18        -0.0020    1.6090   -3.1030 cx        1 82B     -0.100400
     21 C7          3.2830    0.7590   -1.3720 c3        1 82B      0.200300
     22 C6          3.4820    0.2540   -2.7440 cc        1 82B     -0.390600
     23 C5          2.2010    0.2540   -3.4540 cc        1 82B      0.329600
     24 N1          2.3390   -0.2020   -4.7130 nd        1 82B     -0.431800
     25 C3          4.4050   -0.2350   -3.6840 cd        1 82B      0.134300
     26 N2          3.6400   -0.4810   -4.8560 na        1 82B     -0.021600
     27 N9          5.7700   -0.4350   -3.5400 ns        1 82B     -0.458100
     28 C10         6.6080   -0.9900   -4.5150 c         1 82B      0.727700
     29 O12         6.1490   -1.3550   -5.6160 o         1 82B     -0.605100
     30 C11         8.0240   -1.1100   -4.1530 cc        1 82B     -0.221900
     31 N16         8.9900   -1.6290   -5.0350 na        1 82B      0.002900
     32 C32         8.7370   -2.0920   -6.3670 c3        1 82B      0.007600
     33 C15        10.2130   -1.6120   -4.4020 cc        1 82B     -0.071300
     34 C14        10.0520   -1.0820   -3.0980 cd        1 82B     -0.131900
     35 Br         11.3760   -0.8510   -1.8550 br        1 82B     -0.024100
     36 C13         8.6710   -0.7660   -2.9450 cd        1 82B     -0.103000
     37 H21         1.6770    2.5560    1.4650 hn        1 82B      0.461800
     38 H24         0.4710    0.5460    2.1640 hx        1 82B      0.123700
     39 H231        1.6590    0.2950    4.2920 h1        1 82B      0.073700
     40 H232        3.2030    0.9870    3.6200 h1        1 82B      0.073700
     41 H30         0.2420   -1.6880    1.6670 ha        1 82B      0.137500
     42 H26         4.2650   -0.0860    1.9790 ha        1 82B      0.137500
     43 H29         1.1870   -3.9420    1.2060 ha        1 82B      0.156500
     44 H28         3.6630   -4.2730    1.1180 ha        1 82B      0.159000
     45 H27         5.1940   -2.3380    1.4990 ha        1 82B      0.156500
     46 H361        3.2650    2.3990    5.3320 h1        1 82B      0.050700
     47 H362        3.0610    3.9100    4.3420 h1        1 82B      0.050700
     48 H331       -0.2340    3.1490    3.4260 h1        1 82B      0.050700
     49 H332       -0.2560    1.5740    4.3340 h1        1 82B      0.050700
     50 H351        1.8610    3.2450    6.9650 hc        1 82B      0.064700
     51 H352        1.7450    4.7860    6.0330 hc        1 82B      0.064700
     52 H341       -0.4450    4.2560    5.4470 hc        1 82B      0.064700
     53 H342       -0.3180    2.7030    6.3570 hc        1 82B      0.064700
     54 H71C        3.5490   -0.0160   -0.5950 h1        1 82B      0.056200
     55 H72C        3.8650    1.7050   -1.1810 h1        1 82B      0.056200
     56 H191       -0.4690   -0.5870   -3.3890 hc        1 82B      0.101200
     57 H192       -0.8540    0.0610   -1.7130 hc        1 82B      0.101200
     58 H181        0.0020    1.8450   -4.1840 hc        1 82B      0.101200
     59 H182       -0.3840    2.4470   -2.4900 hc        1 82B      0.101200
     60 H2          3.9970   -0.8790   -5.7050 hn        1 82B      0.366700
     61 H9          6.1620   -0.1220   -2.6810 hn        1 82B      0.340500
     62 H13         8.2160   -0.3390   -2.0550 ha        1 82B      0.152000
     63 H321        8.2950   -1.2590   -6.9790 h1        1 82B      0.075367
     64 H322        7.9970   -2.9380   -6.3380 h1        1 82B      0.075367
     65 H323        9.6970   -2.4390   -6.8320 h1        1 82B      0.075367
     66 H15        11.1240   -1.9680   -4.8920 h4        1 82B      0.196000
     67 H212        2.9690    1.6220    0.9630 hn        1 82B      0.461800
@<TRIPOS>BOND
     1    1    2 2   
     2    2    3 1   
     3    2   17 1   
     4    3    4 1   
     5    3   37 1   
     6    3   67 1   
     7    4    5 1   
     8    4   11 1   
     9    4   38 1   
    10    5    6 ar  
    11    5   10 ar  
    12    6    7 ar  
    13    6   41 1   
    14    7    8 ar  
    15    7   43 1   
    16    8    9 ar  
    17    8   44 1   
    18    9   10 ar  
    19    9   45 1   
    20   10   42 1   
    21   11   12 1   
    22   11   39 1   
    23   11   40 1   
    24   12   13 1   
    25   12   16 1   
    26   13   14 1   
    27   13   46 1   
    28   13   47 1   
    29   14   15 1   
    30   14   50 1   
    31   14   51 1   
    32   15   16 1   
    33   15   52 1   
    34   15   53 1   
    35   16   48 1   
    36   16   49 1   
    37   17   18 1   
    38   17   21 1   
    39   18   19 1   
    40   18   20 1   
    41   18   23 1   
    42   19   20 1   
    43   19   56 1   
    44   19   57 1   
    45   20   58 1   
    46   20   59 1   
    47   21   22 1   
    48   21   54 1   
    49   21   55 1   
    50   22   23 1   
    51   22   25 2   
    52   23   24 2   
    53   24   26 1   
    54   25   26 1   
    55   25   27 1   
    56   26   60 1   
    57   27   28 1   
    58   27   61 1   
    59   28   29 2   
    60   28   30 1   
    61   30   31 1   
    62   30   36 2   
    63   31   32 1   
    64   31   33 1   
    65   32   63 1   
    66   32   64 1   
    67   32   65 1   
    68   33   34 2   
    69   33   66 1   
    70   34   35 1   
    71   34   36 1   
    72   36   62 1   
@<TRIPOS>SUBSTRUCTURE
     1 82B         1 TEMP              0 ****  ****    0 ROOT
