@<TRIPOS>MOLECULE
82B
   66    71     1     0     0
SMALL
bcc


@<TRIPOS>ATOM
      1 O22        -4.3220   -1.4030   -1.0240 o         1 82B     -0.650100
      2 C20        -3.2800   -0.8690   -0.5690 c         1 82B      0.771100
      3 N21        -3.3650    0.2070    0.3480 n         1 82B     -0.513900
      4 C24        -4.6330    0.9040    0.4680 c3        1 82B      0.127000
      5 C25        -4.9630    1.1810    1.9170 ca        1 82B     -0.083300
      6 C30        -6.1450    0.6680    2.4610 ca        1 82B     -0.117000
      7 C29        -6.4730    0.9270    3.7910 ca        1 82B     -0.131000
      8 C28        -5.6210    1.6910    4.5870 ca        1 82B     -0.127000
      9 C27        -4.4370    2.1960    4.0510 ca        1 82B     -0.131000
     10 C26        -4.1070    1.9420    2.7200 ca        1 82B     -0.117000
     11 C23        -4.6770    2.2670   -0.2870 c3        1 82B      0.144800
     12 N31        -4.2850    2.1520   -1.6770 n3        1 82B     -0.735600
     13 C36        -4.0500    3.4420   -2.3300 c3        1 82B      0.156800
     14 C35        -4.6750    3.4160   -3.7330 c3        1 82B     -0.089400
     15 C34        -5.3640    2.0640   -3.8650 c3        1 82B     -0.089400
     16 C33        -5.2080    1.3710   -2.5040 c3        1 82B      0.156800
     17 N8         -2.0110   -1.3350   -0.9490 n         1 82B     -0.438800
     18 C4         -1.8230   -2.6050   -1.6440 cx        1 82B      0.031100
     19 C19        -2.8190   -3.7490   -1.6710 cx        1 82B     -0.112900
     20 C18        -2.5620   -2.9570   -2.9200 cx        1 82B     -0.112900
     21 C7         -0.7850   -0.8900   -0.2640 c3        1 82B      0.194300
     22 C6          0.2470   -1.8750   -0.6650 cc        1 82B     -0.340600
     23 C5         -0.3800   -2.9060   -1.5010 cc        1 82B      0.341600
     24 N1          0.5170   -3.8290   -1.8920 nd        1 82B     -0.468800
     25 C3          1.5880   -2.2600   -0.5810 cd        1 82B      0.078300
     26 N2          1.6750   -3.4880   -1.3060 na        1 82B     -0.028600
     27 N9          2.6310   -1.6490    0.1100 n         1 82B     -0.445100
     28 C10         3.9780   -1.9270   -0.0820 c         1 82B      0.719700
     29 O12         4.3550   -2.8090   -0.8830 o         1 82B     -0.622100
     30 C11         4.9260   -1.1290    0.7150 cc        1 82B     -0.204900
     31 N16         6.3190   -1.3020    0.6260 na        1 82B     -0.005100
     32 C32         6.9880   -2.2440   -0.2190 c3        1 82B      0.011600
     33 C15         6.9270   -0.4120    1.4880 cc        1 82B     -0.089300
     34 C14         5.9300    0.3460    2.1440 cd        1 82B     -0.131900
     35 BR          6.2160    1.6610    3.3860 br        1 82B     -0.039100
     36 C13         4.6680   -0.1080    1.6540 cd        1 82B     -0.106000
     37 H21        -2.5750    0.8130    0.3970 hn        1 82B      0.288500
     38 H24        -5.4420    0.2380    0.0310 h1        1 82B      0.101700
     39 H231       -5.7210    2.6760   -0.1570 h1        1 82B      0.039200
     40 H232       -3.9660    2.9830    0.2140 h1        1 82B      0.039200
     41 H30        -6.8160    0.0550    1.8400 ha        1 82B      0.132000
     42 H26        -3.1700    2.3400    2.3050 ha        1 82B      0.132000
     43 H29        -7.4050    0.5220    4.2130 ha        1 82B      0.131500
     44 H28        -5.8800    1.8920    5.6370 ha        1 82B      0.131000
     45 H27        -3.7600    2.7950    4.6780 ha        1 82B      0.131500
     46 H361       -4.4670    4.3050   -1.7400 h1        1 82B      0.045700
     47 H362       -2.9370    3.5800   -2.3960 h1        1 82B      0.045700
     48 H331       -4.7660    0.3410   -2.6160 h1        1 82B      0.045700
     49 H332       -6.2170    1.2540   -2.0180 h1        1 82B      0.045700
     50 H351       -5.4050    4.2530   -3.8490 hc        1 82B      0.047200
     51 H352       -3.8850    3.5420   -4.5130 hc        1 82B      0.047200
     52 H341       -6.4440    2.1820   -4.1230 hc        1 82B      0.047200
     53 H342       -4.8870    1.4510   -4.6690 hc        1 82B      0.047200
     54 H71C       -0.5330    0.1500   -0.6150 h1        1 82B      0.050200
     55 H72C       -0.9190   -0.8780    0.8550 h1        1 82B      0.050200
     56 H191       -2.4180   -4.7740   -1.5860 hc        1 82B      0.088450
     57 H192       -3.7930   -3.6280   -1.1610 hc        1 82B      0.088450
     58 H181       -3.3550   -2.2720   -3.2740 hc        1 82B      0.088450
     59 H182       -1.9820   -3.4060   -3.7450 hc        1 82B      0.088450
     60 H2          2.5360   -3.8810   -1.6280 hn        1 82B      0.342700
     61 H9          2.3580   -0.9450    0.7580 hn        1 82B      0.341500
     62 H13         3.6970    0.2720    1.9590 ha        1 82B      0.161000
     63 H321        6.7200   -2.0460   -1.2930 h1        1 82B      0.070367
     64 H322        8.0970   -2.1540   -0.0780 h1        1 82B      0.070367
     65 H323        6.6520   -3.2860    0.0370 h1        1 82B      0.070367
     66 H15         8.0140   -0.3610    1.5920 h4        1 82B      0.186000
@<TRIPOS>BOND
     1    1    2 2   
     2    2    3 1   
     3    2   17 1   
     4    3    4 1   
     5    3   37 1   
     6    4    5 1   
     7    4   11 1   
     8    4   38 1   
     9    5    6 ar  
    10    5   10 ar  
    11    6    7 ar  
    12    6   41 1   
    13    7    8 ar  
    14    7   43 1   
    15    8    9 ar  
    16    8   44 1   
    17    9   10 ar  
    18    9   45 1   
    19   10   42 1   
    20   11   12 1   
    21   11   39 1   
    22   11   40 1   
    23   12   13 1   
    24   12   16 1   
    25   13   14 1   
    26   13   46 1   
    27   13   47 1   
    28   14   15 1   
    29   14   50 1   
    30   14   51 1   
    31   15   16 1   
    32   15   52 1   
    33   15   53 1   
    34   16   48 1   
    35   16   49 1   
    36   17   18 1   
    37   17   21 1   
    38   18   19 1   
    39   18   20 1   
    40   18   23 1   
    41   19   20 1   
    42   19   56 1   
    43   19   57 1   
    44   20   58 1   
    45   20   59 1   
    46   21   22 1   
    47   21   54 1   
    48   21   55 1   
    49   22   23 1   
    50   22   25 2   
    51   23   24 2   
    52   24   26 1   
    53   25   26 1   
    54   25   27 1   
    55   26   60 1   
    56   27   28 1   
    57   27   61 1   
    58   28   29 2   
    59   28   30 1   
    60   30   31 1   
    61   30   36 2   
    62   31   32 1   
    63   31   33 1   
    64   32   63 1   
    65   32   64 1   
    66   32   65 1   
    67   33   34 2   
    68   33   66 1   
    69   34   35 1   
    70   34   36 1   
    71   36   62 1   
@<TRIPOS>SUBSTRUCTURE
     1 82B         1 TEMP              0 ****  ****    0 ROOT
