@<TRIPOS>MOLECULE
82B
   67    72     1     0     0
SMALL
bcc


@<TRIPOS>ATOM
      1 O22        -0.0580    1.5880   -0.0480 o         1 82B     -0.529100
      2 C20         1.1580    1.3810   -0.1840 c         1 82B      0.649100
      3 N21         1.9530    1.6270    1.1030 n4        1 82B     -0.656800
      4 C24         1.6010    0.6070    2.1610 c3        1 82B      0.186800
      5 C25         2.1930   -0.7330    1.8470 ca        1 82B     -0.170300
      6 C30         1.3390   -1.8230    1.6390 ca        1 82B     -0.111500
      7 C29         1.8730   -3.0870    1.3890 ca        1 82B     -0.116500
      8 C28         3.2550   -3.2680    1.3410 ca        1 82B     -0.086000
      9 C27         4.1080   -2.1810    1.5450 ca        1 82B     -0.116500
     10 C26         3.5810   -0.9170    1.7980 ca        1 82B     -0.111500
     11 C23         2.0740    1.0750    3.5680 c3        1 82B      0.149800
     12 N31         1.6660    2.4350    3.8530 n3        1 82B     -0.774600
     13 C36         2.4930    3.1160    4.8560 c3        1 82B      0.155800
     14 C35         1.5870    3.7100    5.9450 c3        1 82B     -0.093400
     15 C34         0.1590    3.3570    5.5530 c3        1 82B     -0.093400
     16 C33         0.2560    2.5820    4.2310 c3        1 82B      0.155800
     17 N8          1.8320    1.0520   -1.3160 n         1 82B     -0.394800
     18 C4          1.1330    0.7330   -2.5750 cx        1 82B      0.015100
     19 C19        -0.2740    0.1760   -2.6470 cx        1 82B     -0.100400
     20 C18        -0.0050    1.5760   -3.1140 cx        1 82B     -0.100400
     21 C7          3.2820    0.7480   -1.3750 c3        1 82B      0.200300
     22 C6          3.4830    0.2350   -2.7440 cc        1 82B     -0.390600
     23 C5          2.2030    0.2260   -3.4540 cc        1 82B      0.329600
     24 N1          2.3430   -0.2370   -4.7120 nd        1 82B     -0.431800
     25 C3          4.4090   -0.2570   -3.6810 cd        1 82B      0.134300
     26 N2          3.6450   -0.5140   -4.8510 na        1 82B     -0.021600
     27 N9          5.7740   -0.4520   -3.5340 n         1 82B     -0.458100
     28 C10         6.6150   -1.0070   -4.5060 c         1 82B      0.727700
     29 O12         6.1600   -1.3780   -5.6060 o         1 82B     -0.605100
     30 C11         8.0310   -1.1210   -4.1420 cc        1 82B     -0.221900
     31 N16         9.0000   -1.6370   -5.0220 na        1 82B      0.002900
     32 C32         8.7520   -2.1040   -6.3530 c3        1 82B      0.007600
     33 C15        10.2230   -1.6140   -4.3870 cc        1 82B     -0.071300
     34 C14        10.0580   -1.0820   -3.0840 cd        1 82B     -0.131900
     35 BR         11.3790   -0.8440   -1.8390 br        1 82B     -0.024100
     36 C13         8.6750   -0.7720   -2.9330 cd        1 82B     -0.103000
     37 H21         2.9630    1.6240    0.9540 hn        1 82B      0.461800
     38 H24         0.4670    0.5490    2.1600 hx        1 82B      0.123700
     39 H231        1.6550    0.3140    4.2900 h1        1 82B      0.073700
     40 H232        3.1980    1.0060    3.6150 h1        1 82B      0.073700
     41 H30         0.2460   -1.6900    1.6780 ha        1 82B      0.137500
     42 H26         4.2640   -0.0730    1.9810 ha        1 82B      0.137500
     43 H29         1.1980   -3.9440    1.2320 ha        1 82B      0.156500
     44 H28         3.6750   -4.2680    1.1460 ha        1 82B      0.159000
     45 H27         5.2000   -2.3250    1.5160 ha        1 82B      0.156500
     46 H361        3.2540    2.4300    5.3180 h1        1 82B      0.050700
     47 H362        3.0470    3.9340    4.3180 h1        1 82B      0.050700
     48 H331       -0.2460    3.1570    3.4050 h1        1 82B      0.050700
     49 H332       -0.2630    1.5890    4.3230 h1        1 82B      0.050700
     50 H351        1.8480    3.2830    6.9440 hc        1 82B      0.064700
     51 H352        1.7270    4.8170    6.0020 hc        1 82B      0.064700
     52 H341       -0.4610    4.2780    5.4180 hc        1 82B      0.064700
     53 H342       -0.3300    2.7310    6.3380 hc        1 82B      0.064700
     54 H71C        3.8600    1.6970   -1.1900 h1        1 82B      0.056200
     55 H72C        3.5490   -0.0210   -0.5930 h1        1 82B      0.056200
     56 H191       -0.8520    0.0330   -1.7150 hc        1 82B      0.101200
     57 H192       -0.4650   -0.6230   -3.3870 hc        1 82B      0.101200
     58 H181       -0.0020    1.8050   -4.1960 hc        1 82B      0.101200
     59 H182       -0.3910    2.4160   -2.5070 hc        1 82B      0.101200
     60 H2          4.0040   -0.9130   -5.6980 hn        1 82B      0.366700
     61 H9          6.1640   -0.1340   -2.6760 hn        1 82B      0.340500
     62 H13         8.2170   -0.3450   -2.0460 ha        1 82B      0.152000
     63 H321        8.3060   -1.2740   -6.9670 h1        1 82B      0.075367
     64 H322        8.0150   -2.9530   -6.3240 h1        1 82B      0.075367
     65 H323        9.7130   -2.4480   -6.8160 h1        1 82B      0.075367
     66 H15        11.1360   -1.9680   -4.8750 h4        1 82B      0.196000
     67 H212        1.6670    2.5570    1.4490 hn        1 82B      0.461800
@<TRIPOS>BOND
     1    1    2 2   
     2    2    3 1   
     3    2   17 1   
     4    3    4 1   
     5    3   37 1   
     6    3   67 1   
     7    4    5 1   
     8    4   11 1   
     9    4   38 1   
    10    5    6 ar  
    11    5   10 ar  
    12    6    7 ar  
    13    6   41 1   
    14    7    8 ar  
    15    7   43 1   
    16    8    9 ar  
    17    8   44 1   
    18    9   10 ar  
    19    9   45 1   
    20   10   42 1   
    21   11   12 1   
    22   11   39 1   
    23   11   40 1   
    24   12   13 1   
    25   12   16 1   
    26   13   14 1   
    27   13   46 1   
    28   13   47 1   
    29   14   15 1   
    30   14   50 1   
    31   14   51 1   
    32   15   16 1   
    33   15   52 1   
    34   15   53 1   
    35   16   48 1   
    36   16   49 1   
    37   17   18 1   
    38   17   21 1   
    39   18   19 1   
    40   18   20 1   
    41   18   23 1   
    42   19   20 1   
    43   19   56 1   
    44   19   57 1   
    45   20   58 1   
    46   20   59 1   
    47   21   22 1   
    48   21   54 1   
    49   21   55 1   
    50   22   23 1   
    51   22   25 2   
    52   23   24 2   
    53   24   26 1   
    54   25   26 1   
    55   25   27 1   
    56   26   60 1   
    57   27   28 1   
    58   27   61 1   
    59   28   29 2   
    60   28   30 1   
    61   30   31 1   
    62   30   36 2   
    63   31   32 1   
    64   31   33 1   
    65   32   63 1   
    66   32   64 1   
    67   32   65 1   
    68   33   34 2   
    69   33   66 1   
    70   34   35 1   
    71   34   36 1   
    72   36   62 1   
@<TRIPOS>SUBSTRUCTURE
     1 82B         1 TEMP              0 ****  ****    0 ROOT
