@<TRIPOS>MOLECULE
82E
   35    37     1     0     0
SMALL
bcc


@<TRIPOS>ATOM
      1 N1          0.1660    0.0680    0.1840 nz        1 82E     -0.777500
      2 S2          2.1380    0.1700    0.2100 sy        1 82E      1.565200
      3 O5          2.3050    0.2340    1.5750 o         1 82E     -0.582300
      4 O6          2.4080   -0.9870   -0.4880 o         1 82E     -0.582300
      5 C7          2.3020    1.4950   -0.5720 cc        1 82E     -0.740600
      6 C8          2.2770    2.7570    0.1210 cd        1 82E     -0.001000
      7 C9          2.5130    3.8380   -0.7060 cd        1 82E     -0.160000
      8 C10         2.7360    3.4240   -2.0510 cc        1 82E     -0.008600
      9 S11         2.6340    1.7930   -2.1850 ss        1 82E      0.313200
     10 C12         3.0110    4.3210   -3.1100 cc        1 82E      0.227800
     11 N13         2.9510    5.7440   -2.9780 nc        1 82E     -0.296000
     12 N14         3.2520    6.2870   -4.0740 nd        1 82E     -0.118800
     13 N15         3.5400    5.3320   -5.0140 na        1 82E      0.170300
     14 C16         3.4020    4.0690   -4.4570 cd        1 82E     -0.144600
     15 C17         3.9250    5.6060   -6.3620 ca        1 82E     -0.079200
     16 C18         4.6890    6.7570   -6.6590 ca        1 82E     -0.073500
     17 C19         5.0640    7.0160   -7.9670 ca        1 82E     -0.172000
     18 C20         4.6800    6.1320   -8.9970 ca        1 82E      0.163100
     19 C21         3.9160    4.9930   -8.7070 ca        1 82E     -0.172000
     20 C22         3.5350    4.7340   -7.3950 ca        1 82E     -0.073500
     21 O23         5.1110    6.4850  -10.2510 os        1 82E     -0.308900
     22 C24         4.7230    5.6320  -11.3270 c3        1 82E      0.106700
     23 H1N1       -0.1870    0.0160    1.1350 hn        1 82E      0.444133
     24 H2N1       -0.1350   -0.7670   -0.3100 hn        1 82E      0.444133
     25 H8          2.1140    2.8300    1.2050 ha        1 82E      0.190000
     26 H9          2.5390    4.8870   -0.3840 ha        1 82E      0.212000
     27 H16         3.5920    3.1450   -5.0040 h4        1 82E      0.207000
     28 H18         4.9920    7.4590   -5.8630 ha        1 82E      0.151500
     29 H19         5.6590    7.9090   -8.2170 ha        1 82E      0.165000
     30 H21         3.6060    4.3030   -9.5050 ha        1 82E      0.165000
     31 H22         2.9210    3.8450   -7.1840 ha        1 82E      0.151500
     32 H124        3.6110    5.5950  -11.4170 h1        1 82E      0.056367
     33 H224        5.1450    4.6070  -11.1860 h1        1 82E      0.056367
     34 H324        5.1780    6.1300  -12.2220 h1        1 82E      0.056367
     35 H13        -0.2510    0.8730   -0.2660 hn        1 82E      0.444133
@<TRIPOS>BOND
     1    1    2 1   
     2    1   23 1   
     3    1   24 1   
     4    1   35 1   
     5    2    3 2   
     6    2    4 2   
     7    2    5 1   
     8    5    6 2   
     9    5    9 1   
    10    6    7 1   
    11    6   25 1   
    12    7    8 2   
    13    7   26 1   
    14    8    9 1   
    15    8   10 1   
    16   10   11 1   
    17   10   14 2   
    18   11   12 2   
    19   12   13 1   
    20   13   14 1   
    21   13   15 1   
    22   14   27 1   
    23   15   16 ar  
    24   15   20 ar  
    25   16   17 ar  
    26   16   28 1   
    27   17   18 ar  
    28   17   29 1   
    29   18   19 ar  
    30   18   21 1   
    31   19   20 ar  
    32   19   30 1   
    33   20   31 1   
    34   21   22 1   
    35   22   32 1   
    36   22   33 1   
    37   22   34 1   
@<TRIPOS>SUBSTRUCTURE
     1 82E         1 TEMP              0 ****  ****    0 ROOT
