@<TRIPOS>MOLECULE
82E
   35    37     1     0     0
SMALL
bcc


@<TRIPOS>ATOM
      1 N1          0.1160    0.0780    0.1600 n4        1 82E     -0.777500
      2 S2          2.0910    0.1090    0.1520 sy        1 82E      1.565200
      3 O5          2.2840    0.1380    1.5150 o         1 82E     -0.582300
      4 O6          2.3070   -1.0430   -0.5730 o         1 82E     -0.582300
      5 C7          2.2900    1.4420   -0.6060 cc        1 82E     -0.740600
      6 C8          2.3230    2.6900    0.1120 cd        1 82E     -0.001000
      7 C9          2.5830    3.7790   -0.6970 cd        1 82E     -0.160000
      8 C10         2.7680    3.3840   -2.0540 cc        1 82E     -0.008600
      9 S11         2.6040    1.7620   -2.2190 ss        1 82E      0.313200
     10 C12         3.0570    4.2930   -3.1000 cc        1 82E      0.227800
     11 N13         3.0500    5.7130   -2.9380 nc        1 82E     -0.296000
     12 N14         3.3530    6.2680   -4.0280 nd        1 82E     -0.118800
     13 N15         3.5890    5.3230   -4.9930 na        1 82E      0.170300
     14 C16         3.4160    4.0550   -4.4580 cd        1 82E     -0.144600
     15 C17         3.9620    5.6110   -6.3410 ca        1 82E     -0.079200
     16 C18         4.7620    6.7400   -6.6280 ca        1 82E     -0.073500
     17 C19         5.1230    7.0120   -7.9380 ca        1 82E     -0.172000
     18 C20         4.6900    6.1640   -8.9780 ca        1 82E      0.163100
     19 C21         3.8900    5.0470   -8.6970 ca        1 82E     -0.172000
     20 C22         3.5220    4.7750   -7.3840 ca        1 82E     -0.073500
     21 O23         5.1120    6.5270  -10.2320 os        1 82E     -0.308900
     22 C24         4.6760    5.7110  -11.3180 c3        1 82E      0.106700
     23 H1N1       -0.2780    0.9070   -0.2650 hn        1 82E      0.444133
     24 H2N1       -0.2210    0.0190    1.1160 hn        1 82E      0.444133
     25 H8          2.1810    2.7470    1.2000 ha        1 82E      0.190000
     26 H9          2.6530    4.8190   -0.3550 ha        1 82E      0.212000
     27 H16         3.5630    3.1360   -5.0270 h4        1 82E      0.207000
     28 H18         5.1030    7.4130   -5.8240 ha        1 82E      0.151500
     29 H19         5.7460    7.8880   -8.1800 ha        1 82E      0.165000
     30 H21         3.5420    4.3850   -9.5030 ha        1 82E      0.165000
     31 H22         2.8800    3.9040   -7.1800 ha        1 82E      0.151500
     32 H124        3.5610    5.7160  -11.3890 h1        1 82E      0.056367
     33 H224        5.0620    4.6690  -11.2050 h1        1 82E      0.056367
     34 H324        5.1330    6.2100  -12.2100 h1        1 82E      0.056367
     35 H13        -0.2230   -0.7350   -0.3440 hn        1 82E      0.444133
@<TRIPOS>BOND
     1    1    2 1   
     2    1   23 1   
     3    1   24 1   
     4    1   35 1   
     5    2    3 2   
     6    2    4 2   
     7    2    5 1   
     8    5    6 2   
     9    5    9 1   
    10    6    7 1   
    11    6   25 1   
    12    7    8 2   
    13    7   26 1   
    14    8    9 1   
    15    8   10 1   
    16   10   11 1   
    17   10   14 2   
    18   11   12 2   
    19   12   13 1   
    20   13   14 1   
    21   13   15 1   
    22   14   27 1   
    23   15   16 ar  
    24   15   20 ar  
    25   16   17 ar  
    26   16   28 1   
    27   17   18 ar  
    28   17   29 1   
    29   18   19 ar  
    30   18   21 1   
    31   19   20 ar  
    32   19   30 1   
    33   20   31 1   
    34   21   22 1   
    35   22   32 1   
    36   22   33 1   
    37   22   34 1   
@<TRIPOS>SUBSTRUCTURE
     1 82E         1 TEMP              0 ****  ****    0 ROOT
