@<TRIPOS>MOLECULE
82X
   56    56     1     0     0
SMALL
bcc


@<TRIPOS>ATOM
      1 C11         0.0970   -1.0910    0.1640 c3        1 82X     -0.048000
      2 C12         1.5760   -1.2370    0.1580 c2        1 82X     -0.081000
      3 C13         2.3700   -0.4640    0.9340 c2        1 82X     -0.205000
      4 C14         1.8330    0.6290    1.6760 c1        1 82X      0.004000
      5 C15         0.4260    0.5840    1.9660 c2        1 82X     -0.097000
      6 C19        -2.1120   -4.7300    1.2820 c2        1 82X      0.084000
      7 C20        -1.7450   -5.2990    2.4540 c2        1 82X     -0.194000
      8 C21        -1.6990   -6.7130    2.7350 c2        1 82X     -0.148000
      9 C22        -2.5660   -5.4450    0.1070 c2        1 82X     -0.218000
     10 C23        -2.7560   -4.9210   -1.0920 c1        1 82X     -0.265000
     11 C24        -1.2280   -7.6540    1.8930 c2        1 82X     -0.004000
     12 C25        -1.1930   -9.0180    2.1970 c1        1 82X     -0.212000
     13 C26        -1.1610  -10.1930    2.4360 c1        1 82X     -0.014000
     14 C29        -1.5140  -11.8620    4.1370 c1        1 82X     -0.105000
     15 C30        -0.6240  -12.4680    5.0250 c2        1 82X     -0.264000
     16 C2         -2.7260   -1.2120    1.7940 c2        1 82X     -0.162000
     17 C3         -1.8780   -0.1040    1.3390 c2        1 82X     -0.074000
     18 N4         -2.6610    0.9640    1.0710 n2        1 82X      0.017000
     19 O5         -3.9160    0.6480    1.3010 os        1 82X     -0.056000
     20 C6         -4.0130   -0.6950    1.7490 c2        1 82X      0.034000
     21 C7         -0.4300   -0.1540    1.2030 c2        1 82X     -0.008000
     22 C8         -5.3110   -1.2260    2.0540 c2        1 82X     -0.129000
     23 C9         -8.4700    1.5890    4.2710 c3        1 82X     -0.268000
     24 C10        -6.4500   -0.5360    1.9500 c2        1 82X     -0.159000
     25 Cl16       -0.1190    1.5650    3.2350 cl        1 82X      0.029000
     26 Cl17       -0.4350   -0.5840   -1.4470 cl        1 82X     -0.065000
     27 O18        -2.0670   -3.3510    1.0740 os        1 82X     -0.246000
     28 S27        -2.9690   -4.3900   -2.4050 s         1 82X      0.328000
     29 C28        -1.1120  -11.6010    2.7240 c3        1 82X     -0.133000
     30 C31         0.6620  -12.7390    4.7760 c1        1 82X      0.003000
     31 C32         1.8770  -13.0240    4.4750 c2        1 82X     -0.219000
     32 C33        -1.9090  -12.4000    1.7840 c1        1 82X     -0.001000
     33 C34         2.2790  -14.3410    3.7470 c2        1 82X      0.388000
     34 O35         3.0000  -15.1260    4.4030 o         1 82X     -0.512000
     35 O36         1.8710  -14.4600    2.5680 o         1 82X     -0.512000
     36 H12        -0.3780   -2.1080    0.3290 h1        1 82X      0.190000
     37 H13         1.9780   -1.9890   -0.5400 ha        1 82X      0.155000
     38 H14         3.4650   -0.5980    0.9520 ha        1 82X      0.164000
     39 H20        -1.4680   -4.6590    3.3110 ha        1 82X      0.128000
     40 H21        -2.0540   -6.9970    3.7410 ha        1 82X      0.138000
     41 H22        -2.7670   -6.5240    0.2710 ha        1 82X      0.190000
     42 H25        -0.8250   -7.3810    0.8990 ha        1 82X      0.129000
     43 H8         -5.2970   -2.2810    2.3820 ha        1 82X      0.149000
     44 H9         -8.6150    1.0280    5.2200 hc        1 82X      0.066750
     45 H9A        -9.4610    1.8240    3.8240 hc        1 82X      0.066750
     46 H9B        -7.9240    2.5350    4.4800 hc        1 82X      0.066750
     47 H10        -7.8790    0.9700    3.5600 hc        1 82X      0.066750
     48 H10A       -6.4810    0.5110    1.6200 ha        1 82X      0.128500
     49 H10B       -7.4220   -0.9890    2.1910 ha        1 82X      0.128500
     50 H31        -2.1400  -13.4150    2.1540 ha        1 82X      0.040000
     51 H33         2.7480  -12.3900    4.6850 ha        1 82X      0.172000
     52 H29        -0.0440  -11.9720    2.4850 hc        1 82X      0.162000
     53 C1         -2.2890   -2.5460    2.2420 c3        1 82X      0.044000
     54 H30        -1.0350  -12.7430    6.0150 ha        1 82X      0.138000
     55 H1         -1.3180   -2.4710    2.8060 h1        1 82X      0.096000
     56 H1A        -3.0710   -3.0190    2.8960 h1        1 82X      0.096000
@<TRIPOS>BOND
     1    1    2 1   
     2    1   21 1   
     3    1   26 1   
     4    1   36 1   
     5    2    3 1   
     6    2   37 1   
     7    3    4 1   
     8    3   38 1   
     9    4    5 1   
    10    5   21 1   
    11    5   25 1   
    12    6    7 1   
    13    6    9 1   
    14    6   27 1   
    15    7    8 1   
    16    7   39 1   
    17    8   11 1   
    18    8   40 1   
    19    9   10 1   
    20    9   41 1   
    21   10   28 1   
    22   11   12 1   
    23   11   42 1   
    24   12   13 1   
    25   13   29 1   
    26   14   15 1   
    27   14   29 1   
    28   15   30 1   
    29   15   54 1   
    30   16   17 1   
    31   16   20 1   
    32   16   53 1   
    33   17   18 1   
    34   17   21 1   
    35   18   19 1   
    36   19   20 1   
    37   20   22 1   
    38   22   24 1   
    39   22   43 1   
    40   23   44 1   
    41   23   45 1   
    42   23   46 1   
    43   23   47 1   
    44   24   48 1   
    45   24   49 1   
    46   27   53 1   
    47   29   32 1   
    48   29   52 1   
    49   30   31 1   
    50   31   33 1   
    51   31   51 1   
    52   32   50 1   
    53   33   34 1   
    54   33   35 1   
    55   53   55 1   
    56   53   56 1   
@<TRIPOS>SUBSTRUCTURE
     1 82X         1 TEMP              0 ****  ****    0 ROOT
