@<TRIPOS>MOLECULE
82X
   56    55     1     0     0
SMALL
bcc


@<TRIPOS>ATOM
      1 C11        -0.5400   -0.0590   -0.4510 c3        1 82X     -0.047000
      2 C12         0.9090   -0.1610   -0.7660 c2        1 82X     -0.084000
      3 C13         1.8250    0.6310   -0.1640 c2        1 82X     -0.204000
      4 C14         1.4230    1.7050    0.6840 c1        1 82X      0.006000
      5 C15         0.1110    1.6150    1.2630 c2        1 82X     -0.097000
      6 C19        -2.2150   -3.7440    1.0690 c2        1 82X      0.100000
      7 C20        -1.5890   -4.2670    2.1500 c2        1 82X     -0.216000
      8 C21        -1.3080   -5.6640    2.3740 c2        1 82X     -0.125000
      9 C22        -2.7600   -4.5100   -0.0340 c2        1 82X     -0.225000
     10 C23        -3.2190   -4.0100   -1.1700 c1        1 82X     -0.266000
     11 C24        -0.8600   -6.5240    1.4380 c2        1 82X     -0.027000
     12 C25        -0.5900   -7.8710    1.6920 c1        1 82X     -0.185000
     13 C26        -0.3600   -9.0350    1.8910 c1        1 82X      0.037000
     14 C29        -3.1880  -13.9810    5.7940 c1        1 82X     -0.145000
     15 C30        -2.1350  -14.8700    6.0340 c2        1 82X     -0.268000
     16 C2         -2.9560   -0.2620    1.7450 c2        1 82X     -0.165000
     17 C3         -2.2530    0.8650    1.1200 c2        1 82X     -0.074000
     18 N4         -3.1050    1.9090    1.0210 n2        1 82X      0.017000
     19 O5         -4.2740    1.5600    1.5110 os        1 82X     -0.055000
     20 C6         -4.2370    0.2200    1.9720 c2        1 82X      0.038000
     21 C7         -0.8650    0.8570    0.6860 c2        1 82X     -0.010000
     22 C8         -5.4260   -0.3380    2.5520 c2        1 82X     -0.136000
     23 C9         -4.8910   -3.3220    4.6230 c3        1 82X     -0.274000
     24 C10        -6.6040    0.2900    2.6020 c2        1 82X     -0.154000
     25 CL16       -0.1830    2.5700    2.6300 cl        1 82X      0.031000
     26 CL17       -1.4110    0.4390   -1.9100 cl        1 82X     -0.066000
     27 O18        -2.3980   -2.3750    0.8880 os        1 82X     -0.243000
     28 S27        -3.7180   -3.5070   -2.4120 s         1 82X      0.346000
     29 C28        -0.1080  -10.3440    2.1140 c1        1 82X     -0.186000
     30 C31        -0.8900  -14.7460    5.5730 c1        1 82X      0.009000
     31 C32         0.3110  -14.6310    5.1240 c2        1 82X     -0.220000
     32 C33         0.1110  -11.5090    2.3140 c1        1 82X     -0.066000
     33 C34         0.8150  -15.2420    3.8030 c2        1 82X      0.391000
     34 O35         1.2670  -16.4090    3.8550 o         1 82X     -0.532500
     35 O36         0.7770  -14.4990    2.7870 o         1 82X     -0.532500
     36 H12        -0.9410   -1.0890   -0.2010 h1        1 82X      0.187000
     37 H13         1.1770   -0.8960   -1.5420 ha        1 82X      0.154000
     38 H14         2.9030    0.5290   -0.3750 ha        1 82X      0.164000
     39 H20        -1.2640   -3.6080    2.9730 ha        1 82X      0.131000
     40 H21        -1.4510   -6.0030    3.4160 ha        1 82X      0.136000
     41 H22        -2.7910   -5.6050    0.1330 ha        1 82X      0.187000
     42 H25        -0.6680   -6.1900    0.4000 ha        1 82X      0.133000
     43 H8         -5.2910   -1.3580    2.9620 ha        1 82X      0.152000
     44 H9         -4.2180   -2.4830    4.9030 hc        1 82X      0.069000
     45 H9A        -4.6700   -3.6490    3.5840 hc        1 82X      0.069000
     46 H9B        -4.7280   -4.1740    5.3190 hc        1 82X      0.069000
     47 H10        -5.9490   -2.9880    4.6910 hc        1 82X      0.069000
     48 H10A       -6.7550    1.3000    2.1970 ha        1 82X      0.128000
     49 H10B       -7.4890   -0.1800    3.0530 ha        1 82X      0.128000
     50 H31         0.3070  -12.5560    2.4930 ha        1 82X      0.301000
     51 H33         1.1050  -14.0840    5.6560 ha        1 82X      0.162000
     52 H29        -2.9800  -13.1290    5.1250 ha        1 82X      0.020000
     53 C1         -2.3980   -1.5820    2.0860 c3        1 82X      0.043000
     54 H30        -2.3600  -15.7490    6.6680 ha        1 82X      0.129000
     55 H1         -1.3370   -1.4780    2.4450 h1        1 82X      0.097000
     56 H1A        -3.0200   -2.0860    2.8770 h1        1 82X      0.097000
@<TRIPOS>BOND
     1    1    2 1   
     2    1   21 1   
     3    1   26 1   
     4    1   36 1   
     5    2    3 1   
     6    2   37 1   
     7    3    4 1   
     8    3   38 1   
     9    4    5 1   
    10    5   21 1   
    11    5   25 1   
    12    6    7 1   
    13    6    9 1   
    14    6   27 1   
    15    7    8 1   
    16    7   39 1   
    17    8   11 1   
    18    8   40 1   
    19    9   10 1   
    20    9   41 1   
    21   10   28 1   
    22   11   12 1   
    23   11   42 1   
    24   12   13 1   
    25   13   29 1   
    26   14   15 1   
    27   14   52 1   
    28   15   30 1   
    29   15   54 1   
    30   16   17 1   
    31   16   20 1   
    32   16   53 1   
    33   17   18 1   
    34   17   21 1   
    35   18   19 1   
    36   19   20 1   
    37   20   22 1   
    38   22   24 1   
    39   22   43 1   
    40   23   44 1   
    41   23   45 1   
    42   23   46 1   
    43   23   47 1   
    44   24   48 1   
    45   24   49 1   
    46   27   53 1   
    47   29   32 1   
    48   30   31 1   
    49   31   33 1   
    50   31   51 1   
    51   32   50 1   
    52   33   34 1   
    53   33   35 1   
    54   53   55 1   
    55   53   56 1   
@<TRIPOS>SUBSTRUCTURE
     1 82X         1 TEMP              0 ****  ****    0 ROOT
