@<TRIPOS>MOLECULE
82X
   56    47     1     0     0
SMALL
bcc


@<TRIPOS>ATOM
      1 C11         3.6490    3.5200   -1.8620 c1        1 82X     -0.033000
      2 C12         5.0400    3.4880   -1.9360 c1        1 82X     -0.122250
      3 C13         5.7910    3.7080   -0.8060 c1        1 82X     -0.122250
      4 C14         5.1650    3.9610    0.4100 c1        1 82X     -0.132000
      5 C15         3.7910    3.9930    0.4860 c1        1 82X     -0.032000
      6 C19        -0.1010    0.1700    0.3920 c1        1 82X      0.021000
      7 C20         0.3110   -0.1040    1.7420 c1        1 82X     -0.160000
      8 C21         0.1200   -1.3820    2.2870 c1        1 82X     -0.091000
      9 C22        -0.6870   -0.8280   -0.3750 c2        1 82X     -0.090000
     10 C23        -0.8780   -2.1010    0.1630 c1        1 82X     -0.328000
     11 C24        -0.4650   -2.3800    1.5230 c1        1 82X     -0.057000
     12 C25        -0.8150   -3.9320    1.8520 c1        1 82X     -0.188000
     13 C26        -1.4180   -4.5160    0.6830 c2        1 82X     -0.217000
     14 C29        -1.8770   -6.6530    1.7460 c1        1 82X     -0.123000
     15 C30        -2.0080   -8.0210    1.6590 c1        1 82X     -0.122250
     16 C1          0.4010    2.5200    0.5270 c3        1 82X      0.050000
     17 C2          0.5580    3.8060   -0.3430 c2        1 82X     -0.160000
     18 C3          1.7480    4.3250   -0.8340 c2        1 82X     -0.076000
     19 N4          1.4520    5.4560   -1.5470 n2        1 82X      0.000000
     20 O5          0.0720    5.6430   -1.5010 os        1 82X     -0.064000
     21 C6         -0.4700    4.6260   -0.7600 c1        1 82X      0.011000
     22 C7          3.0280    3.7720   -0.6510 c1        1 82X     -0.007000
     23 C8         -1.9500    4.5210   -0.3110 c2        1 82X     -0.053000
     24 C9         -2.3010    5.7450    0.6500 c3        1 82X     -0.207500
     25 C10        -2.8200    4.5540   -1.4820 c3        1 82X     -0.207500
     26 CL16        3.7250    4.8900    2.0340 cl        1 82X      0.005000
     27 CL17        2.7270    3.4100   -3.2770 cl        1 82X      0.016000
     28 O18         0.1070    1.3940   -0.3240 o         1 82X     -0.235000
     29 S27        -1.4900   -3.4070   -0.4300 s         1 82X      0.537000
     30 C28        -1.7270   -5.8890    0.5870 c1        1 82X     -0.080000
     31 C31        -1.9920   -8.6360    0.4330 c1        1 82X     -0.122250
     32 C32        -1.8440   -7.8820   -0.7180 c1        1 82X     -0.107000
     33 C33        -1.7110   -6.5010   -0.6310 c1        1 82X     -0.089000
     34 C34        -1.8890   -8.5730   -2.1070 c2        1 82X      0.358000
     35 O35        -2.9930   -8.6400   -2.7480 o         1 82X     -0.560500
     36 O36        -0.8930   -9.1680   -2.5320 o         1 82X     -0.560500
     37 H12         5.4960    3.3670   -2.8290 ha        1 82X      0.140750
     38 H13         6.7910    3.6850   -0.8570 ha        1 82X      0.140750
     39 H14         5.7040    4.1130    1.2140 ha        1 82X      0.150000
     40 H20         0.8470    0.5350    2.2090 ha        1 82X      0.131000
     41 H21         0.4020   -1.5680    3.2030 ha        1 82X      0.131000
     42 H22        -0.9130   -0.6510   -1.3540 ha        1 82X      0.147000
     43 H25        -0.6390   -4.4030    2.7190 DU        1 82X      0.152000
     44 H29        -1.8880   -6.2290    2.5960 ha        1 82X      0.109000
     45 H30        -2.1130   -8.5560    2.4730 ha        1 82X      0.140750
     46 H1         -0.3110    2.6410    1.1420 h1        1 82X      0.092000
     47 H1A         1.2360    2.3510    1.0210 h1        1 82X      0.092000
     48 H8         -2.0880    3.6790    0.1710 ha        1 82X      0.141000
     49 H9         -2.1810    6.6260    0.1390 hc        1 82X      0.081000
     50 H9A        -1.6740    5.7320    1.4640 hc        1 82X      0.081000
     51 H9B        -3.2500    5.6630    0.9610 hc        1 82X      0.081000
     52 H10        -2.5320    3.8720   -2.1230 hc        1 82X      0.081000
     53 H10A       -3.7870    4.3630   -1.1910 hc        1 82X      0.081000
     54 H10B       -2.7710    5.4580   -1.9100 hc        1 82X      0.081000
     55 H31        -2.0840   -9.5860    0.3740 ha        1 82X      0.140750
     56 H33        -1.5980   -5.9820   -1.4200 ha        1 82X      0.156000
@<TRIPOS>BOND
     1    1   22 1   
     2    1   27 1   
     3    2    3 1   
     4    2   37 1   
     5    3   38 1   
     6    4    5 1   
     7    4   39 1   
     8    5   26 1   
     9    6    7 1   
    10    6    9 1   
    11    7   40 1   
    12    8   11 1   
    13    8   41 1   
    14    9   10 1   
    15    9   42 1   
    16   12   13 1   
    17   13   29 1   
    18   13   30 1   
    19   14   30 1   
    20   14   44 1   
    21   15   31 1   
    22   15   45 1   
    23   16   17 1   
    24   16   28 1   
    25   16   46 1   
    26   16   47 1   
    27   17   18 1   
    28   17   21 1   
    29   18   19 1   
    30   18   22 1   
    31   19   20 1   
    32   20   21 1   
    33   23   24 1   
    34   23   25 1   
    35   23   48 1   
    36   24   49 1   
    37   24   50 1   
    38   24   51 1   
    39   25   52 1   
    40   25   53 1   
    41   25   54 1   
    42   31   55 1   
    43   32   33 1   
    44   32   34 1   
    45   33   56 1   
    46   34   35 1   
    47   34   36 1   
@<TRIPOS>SUBSTRUCTURE
     1 82X         1 TEMP              0 ****  ****    0 ROOT
