@<TRIPOS>MOLECULE
82X
   56    60     1     0     0
SMALL
bcc


@<TRIPOS>ATOM
      1 C11        -4.3880   -2.3490    0.7460 ca        1 82X      0.045400
      2 C12        -4.5170   -3.7010    0.4120 ca        1 82X     -0.132000
      3 C13        -5.2850   -4.0740   -0.6890 ca        1 82X     -0.106000
      4 C14        -5.9280   -3.1070   -1.4590 ca        1 82X     -0.132000
      5 C15        -5.7980   -1.7560   -1.1260 ca        1 82X      0.045400
      6 C19        -0.2690    0.7960   -1.0020 ca        1 82X      0.093100
      7 C20        -0.0910   -0.0880   -2.0890 ca        1 82X     -0.191000
      8 C21         1.1770   -0.5450   -2.4000 ca        1 82X     -0.076000
      9 C22         0.8010    1.2260   -0.2200 ca        1 82X     -0.108000
     10 C23         2.0830    0.7710   -0.5420 ca        1 82X     -0.083100
     11 C24         2.2740   -0.1230   -1.6360 ca        1 82X     -0.083800
     12 C25         3.6580   -0.4730   -1.7900 cc        1 82X     -0.171200
     13 C26         4.4570    0.1360   -0.8520 cd        1 82X      0.033400
     14 C29         6.6720   -0.5770   -1.7010 ca        1 82X     -0.124000
     15 C30         8.0520   -0.6750   -1.5390 ca        1 82X     -0.168000
     16 C2         -3.7520    0.9140   -0.0920 cc        1 82X     -0.303900
     17 C3         -4.8720    0.0520    0.3100 cc        1 82X      0.360800
     18 N4         -5.7420    0.7810    1.0410 nd        1 82X     -0.335300
     19 O5         -5.2890    2.0100    1.1490 os        1 82X     -0.119100
     20 C6         -4.0550    2.1450    0.4620 cd        1 82X      0.304000
     21 C7         -5.0220   -1.3590   -0.0250 ca        1 82X     -0.115500
     22 C8         -3.4050    3.4710    0.4900 c3        1 82X     -0.108000
     23 C9         -4.2740    4.5110   -0.1920 c3        1 82X     -0.090600
     24 C10        -3.0940    3.8870    1.9170 c3        1 82X     -0.090600
     25 CL16       -6.5950   -0.5980   -2.0800 cl        1 82X     -0.065400
     26 CL17       -3.4550   -1.9250    2.0970 cl        1 82X     -0.065400
     27 O18        -1.5060    1.3470   -0.6870 os        1 82X     -0.343900
     28 S27         3.5480    1.1200    0.2060 ss        1 82X      0.064500
     29 C28         5.8870    0.0220   -0.7020 ca        1 82X     -0.088800
     30 C31         8.6630   -0.1800   -0.3880 ca        1 82X     -0.088000
     31 C32         7.8960    0.4220    0.6150 ca        1 82X     -0.127600
     32 C33         6.5140    0.5190    0.4530 ca        1 82X     -0.090000
     33 C34         8.5620    0.9680    1.8720 c         1 82X      0.909200
     34 O35         9.8140    0.8410    1.9750 o         1 82X     -0.826300
     35 O36         7.8240    1.5160    2.7370 o         1 82X     -0.826300
     36 H12        -4.0120   -4.4680    1.0190 ha        1 82X      0.152000
     37 H13        -5.3850   -5.1380   -0.9510 ha        1 82X      0.142000
     38 H14        -6.5370   -3.4060   -2.3250 ha        1 82X      0.152000
     39 H20        -0.9570   -0.4050   -2.6860 ha        1 82X      0.127000
     40 H21         1.3330   -1.2340   -3.2420 ha        1 82X      0.130000
     41 H22         0.6340    1.9120    0.6210 ha        1 82X      0.148000
     42 H25         4.0060   -1.1540   -2.5700 ha        1 82X      0.151000
     43 H8         -2.4330    3.3720   -0.0790 hc        1 82X      0.098700
     44 H9         -5.2570    4.6010    0.3310 hc        1 82X      0.043033
     45 H9A        -3.7620    5.5020   -0.1710 hc        1 82X      0.043033
     46 H9B        -4.4600    4.2270   -1.2560 hc        1 82X      0.043033
     47 H10        -2.5910    4.8840    1.9170 hc        1 82X      0.043033
     48 H10A       -4.0330    3.9550    2.5170 hc        1 82X      0.043033
     49 H10B       -2.4140    3.1440    2.3990 hc        1 82X      0.043033
     50 H31         9.7540   -0.2480   -0.2400 ha        1 82X      0.155000
     51 H33         5.9290    0.9950    1.2610 ha        1 82X      0.156000
     52 H29         6.1970   -0.9640   -2.6130 ha        1 82X      0.108000
     53 C1         -2.6200    0.4760   -0.9270 c3        1 82X      0.208700
     54 H30         8.6580   -1.1460   -2.3250 ha        1 82X      0.109000
     55 H1         -2.3480   -0.5870   -0.6860 h1        1 82X      0.053700
     56 H1A        -2.8930    0.5550   -2.0170 h1        1 82X      0.053700
@<TRIPOS>BOND
     1    1    2 ar  
     2    1   21 ar  
     3    1   26 1   
     4    2    3 ar  
     5    2   36 1   
     6    3    4 ar  
     7    3   37 1   
     8    4    5 ar  
     9    4   38 1   
    10    5   21 ar  
    11    5   25 1   
    12    6    7 ar  
    13    6    9 ar  
    14    6   27 1   
    15    7    8 ar  
    16    7   39 1   
    17    8   11 ar  
    18    8   40 1   
    19    9   10 ar  
    20    9   41 1   
    21   10   11 ar  
    22   10   28 1   
    23   11   12 1   
    24   12   13 2   
    25   12   42 1   
    26   13   28 1   
    27   13   29 1   
    28   14   15 ar  
    29   14   29 ar  
    30   14   52 1   
    31   15   30 ar  
    32   15   54 1   
    33   16   17 1   
    34   16   20 2   
    35   16   53 1   
    36   17   18 2   
    37   17   21 1   
    38   18   19 1   
    39   19   20 1   
    40   20   22 1   
    41   22   23 1   
    42   22   24 1   
    43   22   43 1   
    44   23   44 1   
    45   23   45 1   
    46   23   46 1   
    47   24   47 1   
    48   24   48 1   
    49   24   49 1   
    50   27   53 1   
    51   29   32 ar  
    52   30   31 ar  
    53   30   50 1   
    54   31   32 ar  
    55   31   33 1   
    56   32   51 1   
    57   33   34 1   
    58   33   35 1   
    59   53   55 1   
    60   53   56 1   
@<TRIPOS>SUBSTRUCTURE
     1 82X         1 TEMP              0 ****  ****    0 ROOT
