@<TRIPOS>MOLECULE
831
   63    67     1     0     0
SMALL
bcc


@<TRIPOS>ATOM
      1 C1         -0.3990    0.0360    0.5320 c3        1 831      0.081600
      2 F1          7.1560   -0.7680  -16.9730 f         1 831     -0.231300
      3 N1          1.0800    0.0230    0.4120 nx        1 831     -0.687400
      4 O1          3.2660    1.7650  -13.1770 o         1 831     -0.582100
      5 C2          1.7200    0.0400    1.7500 c3        1 831      0.081600
      6 F2          7.6130    0.9080  -15.6760 f         1 831     -0.231300
      7 N2         -0.2600   -0.9510   -8.1220 nc        1 831     -0.537100
      8 C3          1.5500   -1.1680   -0.3980 c3        1 831      0.187100
      9 F3          7.6070    1.1720  -17.8300 f         1 831     -0.231300
     10 N3          0.4310    0.2030   -8.1770 na        1 831      0.050200
     11 C4          1.2790   -0.9710   -1.8450 ca        1 831     -0.223300
     12 N4          1.7220    1.7030   -6.6820 nc        1 831     -0.665000
     13 C5          0.1960   -1.6090   -2.4610 ca        1 831     -0.093000
     14 N5          1.4660    0.6550  -14.1190 ns        1 831     -0.470100
     15 C6         -0.0300   -1.4440   -3.8210 ca        1 831     -0.133000
     16 C7          0.8180   -0.6310   -4.6020 ca        1 831      0.092200
     17 C8          1.9100   -0.0010   -3.9730 ca        1 831     -0.133000
     18 C9          2.1350   -0.1710   -2.6130 ca        1 831     -0.093000
     19 C10         0.5620   -0.4780   -6.0000 cd        1 831     -0.279800
     20 C11        -0.2020   -1.3750   -6.8370 cd        1 831      0.409500
     21 C12         0.9830    0.5640   -6.8830 cc        1 831      0.407500
     22 C13         1.9300    2.4710   -7.7420 cd        1 831      0.460200
     23 C14         1.4350    2.1790   -9.0520 cd        1 831     -0.294300
     24 C15         0.6800    1.0330   -9.2710 cc        1 831      0.125700
     25 C16         0.1750    0.7040  -10.6110 ca        1 831     -0.059000
     26 C17        -1.1500    0.3130  -10.8180 ca        1 831     -0.102000
     27 C18        -1.5840    0.0390  -12.1150 ca        1 831     -0.106000
     28 C19        -0.7210    0.1540  -13.1960 ca        1 831     -0.152000
     29 C20         0.6250    0.5550  -13.0000 ca        1 831      0.070600
     30 C21         1.0640    0.8230  -11.6880 ca        1 831     -0.128000
     31 C22         2.7180    1.2560  -14.1720 c         1 831      0.685700
     32 C23         3.3940    1.2400  -15.5030 ca        1 831     -0.156600
     33 C24         2.7120    1.5500  -16.6840 ca        1 831     -0.078000
     34 C25         3.3940    1.5480  -17.9010 ca        1 831     -0.136000
     35 C26         4.7520    1.2340  -17.9450 ca        1 831     -0.055000
     36 C27         5.4290    0.9310  -16.7620 ca        1 831     -0.173300
     37 C28         4.7610    0.9390  -15.5370 ca        1 831     -0.031000
     38 C29         6.9120    0.5740  -16.8080 c3        1 831      0.689200
     39 H1         -0.8470   -0.0690   -0.4950 hx        1 831      0.102533
     40 H1A        -0.7290    1.0040    0.9940 hx        1 831      0.102533
     41 H1B        -0.7330   -0.8200    1.1750 hx        1 831      0.102533
     42 H2          1.3280    0.9100    2.3410 hx        1 831      0.102533
     43 H2A         1.4850   -0.9150    2.2900 hx        1 831      0.102533
     44 H2B         2.8330    0.1380    1.6310 hx        1 831      0.102533
     45 H3          2.6580   -1.2760   -0.2160 hx        1 831      0.100700
     46 H3A         1.0230   -2.0800    0.0020 hx        1 831      0.100700
     47 H5         -0.4740   -2.2550   -1.8720 ha        1 831      0.131000
     48 HN5         1.1040    0.2760  -14.9670 hn        1 831      0.325500
     49 H6         -0.8840   -1.9510   -4.2960 ha        1 831      0.163000
     50 H8          2.6030    0.6220   -4.5610 ha        1 831      0.163000
     51 H9          3.0070    0.3130   -2.1450 ha        1 831      0.131000
     52 H11        -0.6850   -2.3080   -6.5330 h4        1 831      0.060800
     53 H13         2.5290    3.3880   -7.5760 h4        1 831      0.045100
     54 H14         1.6550    2.8580   -9.8880 ha        1 831      0.186000
     55 H17        -1.8530    0.2220   -9.9770 ha        1 831      0.151000
     56 H18        -2.6260   -0.2730  -12.2840 ha        1 831      0.146000
     57 H19        -1.0940   -0.0720  -14.2080 ha        1 831      0.140000
     58 H21         2.1080    1.1230  -11.4930 ha        1 831      0.179000
     59 H24         1.6440    1.8160  -16.6630 ha        1 831      0.143000
     60 H25         2.8600    1.7990  -18.8300 ha        1 831      0.153000
     61 H26         5.2950    1.2320  -18.9060 ha        1 831      0.162000
     62 H28         5.3040    0.7260  -14.6000 ha        1 831      0.172000
     63 H111        1.3650    0.8700   -0.1020 hn        1 831      0.452800
@<TRIPOS>BOND
     1    1    3 1   
     2    1   39 1   
     3    1   40 1   
     4    1   41 1   
     5    2   38 1   
     6    3    5 1   
     7    3    8 1   
     8    3   63 1   
     9    4   31 2   
    10    5   42 1   
    11    5   43 1   
    12    5   44 1   
    13    6   38 1   
    14    7   10 1   
    15    7   20 2   
    16    8   11 1   
    17    8   45 1   
    18    8   46 1   
    19    9   38 1   
    20   10   21 1   
    21   10   24 1   
    22   11   13 ar  
    23   11   18 ar  
    24   12   21 1   
    25   12   22 2   
    26   13   15 ar  
    27   13   47 1   
    28   14   29 1   
    29   14   31 1   
    30   14   48 1   
    31   15   16 ar  
    32   15   49 1   
    33   16   17 ar  
    34   16   19 1   
    35   17   18 ar  
    36   17   50 1   
    37   18   51 1   
    38   19   20 1   
    39   19   21 2   
    40   20   52 1   
    41   22   23 1   
    42   22   53 1   
    43   23   24 2   
    44   23   54 1   
    45   24   25 1   
    46   25   26 ar  
    47   25   30 ar  
    48   26   27 ar  
    49   26   55 1   
    50   27   28 ar  
    51   27   56 1   
    52   28   29 ar  
    53   28   57 1   
    54   29   30 ar  
    55   30   58 1   
    56   31   32 1   
    57   32   33 ar  
    58   32   37 ar  
    59   33   34 ar  
    60   33   59 1   
    61   34   35 ar  
    62   34   60 1   
    63   35   36 ar  
    64   35   61 1   
    65   36   37 ar  
    66   36   38 1   
    67   37   62 1   
@<TRIPOS>SUBSTRUCTURE
     1 831         1 TEMP              0 ****  ****    0 ROOT
