@<TRIPOS>MOLECULE
831
   62    54     1     0     0
SMALL
bcc


@<TRIPOS>ATOM
      1 C1         -8.0970    0.3110    6.3120 c3        1 831     -0.121000
      2 F1          7.9970    0.7710   -8.1530 f         1 831     -0.161667
      3 N1         -7.1740   -0.7250    5.9080 n3        1 831     -0.262000
      4 O1          3.9670    1.4740   -5.1500 o         1 831     -0.333000
      5 C2         -7.5150   -1.9680    6.5850 c3        1 831     -0.121000
      6 F2          8.9990   -0.8410   -7.0750 f         1 831     -0.161667
      7 N2         -1.4730    0.6080   -0.1760 n2        1 831     -0.084000
      8 C3         -5.8230   -0.3350    6.2640 c3        1 831     -0.031000
      9 F3          8.2320   -1.1830   -9.0960 f         1 831     -0.161667
     10 N3         -0.3460    0.5790    0.6470 n2        1 831     -0.072000
     11 C4         -4.9870   -0.0910    4.9600 c2        1 831     -0.080000
     12 N4          0.1560    0.5510    2.9740 n1        1 831     -0.100000
     13 C5         -5.0060    1.1270    4.2810 c2        1 831     -0.109000
     14 N5          3.7240   -0.2090   -3.6300 n         1 831     -0.324000
     15 C6         -4.0470    1.3970    3.3030 c1        1 831     -0.131000
     16 C7         -3.0700    0.4470    3.0040 c1        1 831      0.006000
     17 C8         -3.0510   -0.7720    3.6840 c1        1 831     -0.112000
     18 C9         -4.0090   -1.0410    4.6610 c1        1 831     -0.130000
     19 C10        -2.1590    0.6780    1.9370 c1        1 831     -0.119000
     20 C11        -2.5810    0.6690    0.6220 c1        1 831     -0.122000
     21 C12        -0.7680    0.6220    1.9410 c1        1 831      0.011000
     22 C13         1.4780    0.4390    2.6960 c1        1 831     -0.122000
     23 C14         1.9050    0.3950    1.3860 c1        1 831     -0.122000
     24 C15         0.9920    0.4660    0.3650 c1        1 831      0.127000
     25 C16         1.7760    1.0000   -0.6870 c1        1 831     -0.040000
     26 C17         2.0070    2.3670   -0.7570 c1        1 831     -0.122000
     27 C18         2.7990    2.8870   -1.7740 c1        1 831     -0.122000
     28 C19         3.3610    2.0370   -2.7240 c1        1 831     -0.130000
     29 C20         3.1310    0.6700   -2.6560 c2        1 831      0.069000
     30 C21         2.3400    0.1480   -1.6400 c2        1 831     -0.157000
     31 C22         4.1250    0.3010   -4.8950 c2        1 831      0.354000
     32 C23         4.8600   -0.5980   -5.8780 c2        1 831     -0.132000
     33 C24         4.3160   -1.8220   -6.2390 c2        1 831     -0.078000
     34 C25         4.9640   -2.6210   -7.1610 c1        1 831     -0.139000
     35 C26         6.1580   -2.2000   -7.7260 c1        1 831     -0.061000
     36 C27         6.7010   -0.9770   -7.3650 c1        1 831     -0.167000
     37 C28         6.0520   -0.1770   -6.4420 c1        1 831     -0.032000
     38 C29         8.0170   -0.5440   -7.9380 c3        1 831      0.468000
     39 H1         -7.9640    0.5150    7.2650 h1        1 831      0.071333
     40 H1A        -7.9360    1.1200    5.7780 h1        1 831      0.071333
     41 H1B        -9.0190    0.0020    6.1680 h1        1 831      0.071333
     42 H2         -6.8110   -2.6340    6.4190 h1        1 831      0.071333
     43 H2A        -8.3730   -2.3050    6.2400 h1        1 831      0.071333
     44 H2B        -7.5910   -1.8050    7.5510 h1        1 831      0.071333
     45 H3         -5.4060   -1.0470    6.7930 h1        1 831      0.077000
     46 H3A        -5.8510    0.4900    6.7930 h1        1 831      0.077000
     47 H5         -5.6890    1.7910    4.4900 ha        1 831      0.146000
     48 HN5         3.9090   -1.0760   -3.4090 hn        1 831      0.234000
     49 H6         -4.0600    2.2540    2.8250 ha        1 831      0.129000
     50 H8         -2.3660   -1.4380    3.4750 ha        1 831      0.147000
     51 H9         -3.9960   -1.8930    5.1350 ha        1 831      0.130000
     52 H11        -3.5130    0.7530    0.3130 DU        1 831      0.188000
     53 H13         2.1310    0.3880    3.4260 ha        1 831      0.158250
     54 H14         2.8620    0.3140    1.1840 ha        1 831      0.158250
     55 H17         1.6130    2.9630   -0.0910 ha        1 831      0.158250
     56 H18         2.9620    3.8530   -1.8230 ha        1 831      0.158250
     57 H19         3.9200    2.4050   -3.4410 ha        1 831      0.175000
     58 H21         2.1210   -0.8020   -1.6330 ha        1 831      0.135000
     59 H24         3.4740   -2.1190   -5.8410 ha        1 831      0.146000
     60 H25         4.5810   -3.4820   -7.4150 ha        1 831      0.150000
     61 H26         6.6180   -2.7680   -8.3810 ha        1 831      0.157000
     62 H28         6.4350    0.6850   -6.1880 ha        1 831      0.174000
@<TRIPOS>BOND
     1    1    3 1   
     2    1   39 1   
     3    1   40 1   
     4    1   41 1   
     5    2   38 1   
     6    3    5 1   
     7    3    8 1   
     8    4   31 1   
     9    5   42 1   
    10    5   43 1   
    11    5   44 1   
    12    6   38 1   
    13    7   10 1   
    14    7   20 1   
    15    8   11 1   
    16    8   45 1   
    17    8   46 1   
    18    9   38 1   
    19   10   24 1   
    20   11   13 1   
    21   11   18 1   
    22   12   21 1   
    23   13   15 1   
    24   13   47 1   
    25   14   29 1   
    26   14   31 1   
    27   14   48 1   
    28   15   49 1   
    29   16   17 1   
    30   17   50 1   
    31   18   51 1   
    32   19   20 1   
    33   19   21 1   
    34   22   23 1   
    35   22   53 1   
    36   23   54 1   
    37   25   30 1   
    38   26   27 1   
    39   26   55 1   
    40   27   56 1   
    41   28   29 1   
    42   28   57 1   
    43   29   30 1   
    44   30   58 1   
    45   31   32 1   
    46   32   33 1   
    47   32   37 1   
    48   33   34 1   
    49   33   59 1   
    50   34   60 1   
    51   35   36 1   
    52   35   61 1   
    53   36   38 1   
    54   37   62 1   
@<TRIPOS>SUBSTRUCTURE
     1 831         1 TEMP              0 ****  ****    0 ROOT
