@<TRIPOS>MOLECULE
831
   62    66     1     0     0
SMALL
bcc


@<TRIPOS>ATOM
      1 C1         10.0340   -0.8760   -1.4380 c3        1 831      0.155100
      2 F1         -8.2850   -3.1600    1.0300 f         1 831     -0.232967
      3 N1          9.8770   -2.0460   -0.6040 n3        1 831     -0.735600
      4 O1         -3.7500    0.1300   -1.2220 o         1 831     -0.577100
      5 C2         11.0860   -2.8320   -0.5070 c3        1 831      0.155100
      6 F2         -7.2170   -3.5870   -0.8080 f         1 831     -0.232967
      7 N2          2.2080    1.7240    1.5560 nc        1 831     -0.556100
      8 C3          9.3110   -1.7500    0.7070 c3        1 831      0.214100
      9 F3         -9.3040   -3.0000   -0.8760 f         1 831     -0.232967
     10 N3          1.9220    1.3040    0.3160 na        1 831      0.044200
     11 C4          7.9420   -1.1370    0.6670 ca        1 831     -0.088300
     12 N4          2.9700    0.0190   -1.5360 nc        1 831     -0.627000
     13 C5          7.6640   -0.0080    1.4470 ca        1 831     -0.119500
     14 N5         -4.1060    1.8120    0.3300 n         1 831     -0.468100
     15 C6          6.3860    0.5390    1.4620 ca        1 831     -0.121500
     16 C7          5.3550   -0.0280    0.6920 ca        1 831     -0.003800
     17 C8          5.6390   -1.1600   -0.0870 ca        1 831     -0.121500
     18 C9          6.9200   -1.7060   -0.0980 ca        1 831     -0.119500
     19 C10         4.0400    0.5520    0.7310 cd        1 831     -0.196800
     20 C11         3.4670    1.2920    1.8290 cd        1 831      0.381500
     21 C12         3.0280    0.5530   -0.2690 cc        1 831      0.365500
     22 C13         1.8500    0.2090   -2.2110 cd        1 831      0.428200
     23 C14         0.7160    0.9270   -1.7040 cd        1 831     -0.291300
     24 C15         0.7560    1.4760   -0.4330 cc        1 831      0.096700
     25 C16        -0.3950    2.2130    0.1120 ca        1 831     -0.039000
     26 C17        -0.2340    3.4540    0.7340 ca        1 831     -0.101000
     27 C18        -1.3580    4.1270    1.2140 ca        1 831     -0.110000
     28 C19        -2.6290    3.5840    1.0750 ca        1 831     -0.161000
     29 C20        -2.8040    2.3300    0.4410 ca        1 831      0.059600
     30 C21        -1.6670    1.6470   -0.0350 ca        1 831     -0.126000
     31 C22        -4.5230    0.7740   -0.4910 c         1 831      0.680700
     32 C23        -5.9810    0.4470   -0.4340 ca        1 831     -0.150600
     33 C24        -6.9610    1.4430   -0.4750 ca        1 831     -0.079000
     34 C25        -8.3110    1.0910   -0.4490 ca        1 831     -0.139000
     35 C26        -8.6860   -0.2500   -0.3800 ca        1 831     -0.060000
     36 C27        -7.7020   -1.2410   -0.3450 ca        1 831     -0.174300
     37 C28        -6.3490   -0.9020   -0.3810 ca        1 831     -0.031000
     38 C29        -8.1130   -2.7070   -0.2560 c3        1 831      0.689200
     39 H1         10.8000   -0.1510   -1.0460 h1        1 831      0.032033
     40 H1A        10.3490   -1.2050   -2.4640 h1        1 831      0.032033
     41 H1B         9.0470   -0.3480   -1.5130 h1        1 831      0.032033
     42 H2         11.9210   -2.3000    0.0280 h1        1 831      0.032033
     43 H2A        10.8620   -3.7830    0.0420 h1        1 831      0.032033
     44 H2B        11.4340   -3.0880   -1.5420 h1        1 831      0.032033
     45 H3          9.2300   -2.7280    1.2670 h1        1 831      0.036700
     46 H3A         9.9980   -1.0770    1.3040 h1        1 831      0.036700
     47 H5          8.4590    0.4520    2.0520 ha        1 831      0.137500
     48 HN5        -4.8000    2.2710    0.8780 hn        1 831      0.321500
     49 H6          6.1810    1.4290    2.0740 ha        1 831      0.138500
     50 H8          4.8480   -1.6250   -0.6940 ha        1 831      0.138500
     51 H9          7.1310   -2.5930   -0.7160 ha        1 831      0.137500
     52 H11         3.9390    1.5020    2.7920 h4        1 831      0.056800
     53 H13         1.8080   -0.2230   -3.2280 h4        1 831      0.035100
     54 H14        -0.1840    1.0370   -2.3240 ha        1 831      0.171000
     55 H17         0.7630    3.9030    0.8500 ha        1 831      0.155000
     56 H18        -1.2360    5.1020    1.7090 ha        1 831      0.140000
     57 H19        -3.4950    4.1390    1.4670 ha        1 831      0.132000
     58 H21        -1.7660    0.6620   -0.5240 ha        1 831      0.177000
     59 H24        -6.6790    2.5050   -0.5460 ha        1 831      0.143000
     60 H25        -9.0840    1.8740   -0.4870 ha        1 831      0.149000
     61 H26        -9.7510   -0.5320   -0.3600 ha        1 831      0.158000
     62 H28        -5.5720   -1.6870   -0.3810 ha        1 831      0.174000
@<TRIPOS>BOND
     1    1    3 1   
     2    1   39 1   
     3    1   40 1   
     4    1   41 1   
     5    2   38 1   
     6    3    5 1   
     7    3    8 1   
     8    4   31 2   
     9    5   42 1   
    10    5   43 1   
    11    5   44 1   
    12    6   38 1   
    13    7   10 1   
    14    7   20 2   
    15    8   11 1   
    16    8   45 1   
    17    8   46 1   
    18    9   38 1   
    19   10   21 1   
    20   10   24 1   
    21   11   13 ar  
    22   11   18 ar  
    23   12   21 1   
    24   12   22 2   
    25   13   15 ar  
    26   13   47 1   
    27   14   29 1   
    28   14   31 1   
    29   14   48 1   
    30   15   16 ar  
    31   15   49 1   
    32   16   17 ar  
    33   16   19 1   
    34   17   18 ar  
    35   17   50 1   
    36   18   51 1   
    37   19   20 1   
    38   19   21 2   
    39   20   52 1   
    40   22   23 1   
    41   22   53 1   
    42   23   24 2   
    43   23   54 1   
    44   24   25 1   
    45   25   26 ar  
    46   25   30 ar  
    47   26   27 ar  
    48   26   55 1   
    49   27   28 ar  
    50   27   56 1   
    51   28   29 ar  
    52   28   57 1   
    53   29   30 ar  
    54   30   58 1   
    55   31   32 1   
    56   32   33 ar  
    57   32   37 ar  
    58   33   34 ar  
    59   33   59 1   
    60   34   35 ar  
    61   34   60 1   
    62   35   36 ar  
    63   35   61 1   
    64   36   37 ar  
    65   36   38 1   
    66   37   62 1   
@<TRIPOS>SUBSTRUCTURE
     1 831         1 TEMP              0 ****  ****    0 ROOT
