@<TRIPOS>MOLECULE
831
   64    68     1     0     0
SMALL
bcc


@<TRIPOS>ATOM
      1 C1          0.3990   -0.8900   -0.0210 c3        1 831      0.081100
      2 F1          5.4860   -2.4390  -14.5400 f         1 831     -0.216967
      3 N1          1.5960   -0.0250   -0.1770 n4        1 831     -0.684400
      4 O1          0.9390   -0.2360  -15.9940 o         1 831     -0.391100
      5 C2          2.2470    0.2160    1.1350 c3        1 831      0.081100
      6 F2          5.9570   -1.3830  -12.7000 f         1 831     -0.216967
      7 N2          0.4620   -0.8220   -8.8070 nc        1 831     -0.554100
      8 C3          2.5770   -0.6230   -1.1610 c3        1 831      0.176100
      9 F3          7.2350   -1.1440  -14.4450 f         1 831     -0.216967
     10 N3          0.3260    0.5130   -8.7390 na        1 831      0.042200
     11 C4          2.1140   -0.4750   -2.5680 ca        1 831     -0.194300
     12 N4          0.5640    2.3630   -7.1030 nc        1 831     -0.623000
     13 C5          1.5270   -1.5550   -3.2380 ca        1 831     -0.095000
     14 N5          0.5290    1.6270  -14.6570 n4        1 831     -0.551200
     15 C6          1.1540   -1.4310   -4.5710 ca        1 831     -0.118500
     16 C7          1.3570   -0.2230   -5.2660 ca        1 831      0.055200
     17 C8          1.9440    0.8580   -4.5840 ca        1 831     -0.118500
     18 C9          2.3170    0.7310   -3.2500 ca        1 831     -0.095000
     19 C10         0.9770   -0.1290   -6.6470 cd        1 831     -0.228800
     20 C11         0.8470   -1.2320   -7.5730 cd        1 831      0.414500
     21 C12         0.6380    1.0240   -7.4120 cc        1 831      0.390500
     22 C13         0.1970    3.1820   -8.0720 cd        1 831      0.447200
     23 C14        -0.1230    2.7560   -9.4080 cd        1 831     -0.275300
     24 C15        -0.0600    1.4120   -9.7330 cc        1 831      0.075700
     25 C16        -0.3990    0.9220  -11.0800 ca        1 831     -0.035000
     26 C17        -1.3430   -0.1010  -11.2480 ca        1 831     -0.029000
     27 C18        -1.6670   -0.5470  -12.5310 ca        1 831     -0.103000
     28 C19        -1.0580    0.0090  -13.6520 ca        1 831     -0.078000
     29 C20        -0.1090    1.0350  -13.4770 ca        1 831     -0.060400
     30 C21         0.2250    1.4970  -12.1930 ca        1 831     -0.081000
     31 C22         1.4810    0.6340  -15.3350 c         1 831      0.585700
     32 C23         2.9050    0.8690  -15.0850 ca        1 831     -0.205600
     33 C24         3.4850    2.1350  -15.2700 ca        1 831     -0.076000
     34 C25         4.8540    2.2980  -15.0820 ca        1 831     -0.119000
     35 C26         5.6480    1.2120  -14.6970 ca        1 831     -0.014000
     36 C27         5.0630   -0.0420  -14.5120 ca        1 831     -0.165300
     37 C28         3.6960   -0.2290  -14.7190 ca        1 831     -0.007000
     38 C29         5.9220   -1.2300  -14.0650 c3        1 831      0.691200
     39 H1         -0.3730   -0.3520    0.5910 hx        1 831      0.105700
     40 H1A         0.6880   -1.8440    0.4950 hx        1 831      0.105700
     41 H1B        -0.0160   -1.1250   -1.0390 hx        1 831      0.105700
     42 H2          3.0830    0.9560    1.0100 hx        1 831      0.105700
     43 H2A         1.4900    0.6250    1.8570 hx        1 831      0.105700
     44 H2B         2.6590   -0.7500    1.5330 hx        1 831      0.105700
     45 H3          3.5610   -0.0880   -1.0180 hx        1 831      0.106700
     46 H3A         2.7130   -1.7080   -0.8880 hx        1 831      0.106700
     47 H5          1.3720   -2.5140   -2.7180 ha        1 831      0.140000
     48 HN5        -0.2110    1.8880  -15.3230 hn        1 831      0.462300
     49 H6          0.6940   -2.2880   -5.0880 ha        1 831      0.161500
     50 H8          2.1250    1.8110   -5.1050 ha        1 831      0.161500
     51 H9          2.7960    1.5820   -2.7400 ha        1 831      0.140000
     52 H11         1.0360   -2.2910   -7.3670 h4        1 831      0.071800
     53 H13         0.1350    4.2580   -7.8150 h4        1 831      0.056100
     54 H14        -0.4350    3.4990  -10.1540 ha        1 831      0.170000
     55 H17        -1.8330   -0.5580  -10.3710 ha        1 831      0.182000
     56 H18        -2.4120   -1.3520  -12.6610 ha        1 831      0.183000
     57 H19        -1.3140   -0.3660  -14.6590 ha        1 831      0.177000
     58 H21         0.9680    2.2970  -12.0410 ha        1 831      0.157000
     59 H24         2.8820    2.9940  -15.6020 ha        1 831      0.142000
     60 H25         5.3190    3.2850  -15.2460 ha        1 831      0.178000
     61 H26         6.7370    1.3410  -14.5530 ha        1 831      0.188000
     62 H28         3.2510   -1.2340  -14.6050 ha        1 831      0.182000
     63 H111        1.2880    0.8790   -0.5630 hn        1 831      0.451800
     64 H52         1.0480    2.4670  -14.3820 hn        1 831      0.462300
@<TRIPOS>BOND
     1    1    3 1   
     2    1   39 1   
     3    1   40 1   
     4    1   41 1   
     5    2   38 1   
     6    3    5 1   
     7    3    8 1   
     8    3   63 1   
     9    4   31 2   
    10    5   42 1   
    11    5   43 1   
    12    5   44 1   
    13    6   38 1   
    14    7   10 1   
    15    7   20 2   
    16    8   11 1   
    17    8   45 1   
    18    8   46 1   
    19    9   38 1   
    20   10   21 1   
    21   10   24 1   
    22   11   13 ar  
    23   11   18 ar  
    24   12   21 1   
    25   12   22 2   
    26   13   15 ar  
    27   13   47 1   
    28   14   29 1   
    29   14   31 1   
    30   14   48 1   
    31   14   64 1   
    32   15   16 ar  
    33   15   49 1   
    34   16   17 ar  
    35   16   19 1   
    36   17   18 ar  
    37   17   50 1   
    38   18   51 1   
    39   19   20 1   
    40   19   21 2   
    41   20   52 1   
    42   22   23 1   
    43   22   53 1   
    44   23   24 2   
    45   23   54 1   
    46   24   25 1   
    47   25   26 ar  
    48   25   30 ar  
    49   26   27 ar  
    50   26   55 1   
    51   27   28 ar  
    52   27   56 1   
    53   28   29 ar  
    54   28   57 1   
    55   29   30 ar  
    56   30   58 1   
    57   31   32 1   
    58   32   33 ar  
    59   32   37 ar  
    60   33   34 ar  
    61   33   59 1   
    62   34   35 ar  
    63   34   60 1   
    64   35   36 ar  
    65   35   61 1   
    66   36   37 ar  
    67   36   38 1   
    68   37   62 1   
@<TRIPOS>SUBSTRUCTURE
     1 831         1 TEMP              0 ****  ****    0 ROOT
