@<TRIPOS>MOLECULE
831
   63    67     1     0     0
SMALL
bcc


@<TRIPOS>ATOM
      1 C1         -0.3970    0.0660    0.5400 c3        1 831      0.081600
      2 F1          7.1480   -0.8150  -16.9620 f         1 831     -0.231300
      3 N1          1.0830    0.0500    0.4200 n4        1 831     -0.687400
      4 O1          3.2750    1.7540  -13.1720 o         1 831     -0.582100
      5 C2          1.7230    0.0680    1.7570 c3        1 831      0.081600
      6 F2          7.6170    0.8620  -15.6700 f         1 831     -0.231300
      7 N2         -0.2630   -0.9320   -8.1120 nc        1 831     -0.537100
      8 C3          1.5500   -1.1430   -0.3890 c3        1 831      0.187100
      9 F3          7.6130    1.1190  -17.8250 f         1 831     -0.231300
     10 N3          0.4320    0.2200   -8.1690 na        1 831      0.050200
     11 C4          1.2790   -0.9470   -1.8360 ca        1 831     -0.223300
     12 N4          1.7280    1.7180   -6.6780 nc        1 831     -0.665000
     13 C5          0.1940   -1.5830   -2.4510 ca        1 831     -0.093000
     14 N5          1.4690    0.6520  -14.1130 n         1 831     -0.470100
     15 C6         -0.0320   -1.4190   -3.8110 ca        1 831     -0.133000
     16 C7          0.8170   -0.6100   -4.5930 ca        1 831      0.092200
     17 C8          1.9110    0.0190   -3.9650 ca        1 831     -0.133000
     18 C9          2.1370   -0.1490   -2.6060 ca        1 831     -0.093000
     19 C10         0.5610   -0.4580   -5.9910 cd        1 831     -0.279800
     20 C11        -0.2060   -1.3550   -6.8270 cd        1 831      0.409500
     21 C12         0.9850    0.5810   -6.8770 cc        1 831      0.407500
     22 C13         1.9380    2.4830   -7.7400 cd        1 831      0.460200
     23 C14         1.4420    2.1900   -9.0480 cd        1 831     -0.294300
     24 C15         0.6840    1.0460   -9.2650 cc        1 831      0.125700
     25 C16         0.1770    0.7160  -10.6050 ca        1 831     -0.059000
     26 C17        -1.1490    0.3300  -10.8110 ca        1 831     -0.102000
     27 C18        -1.5840    0.0540  -12.1070 ca        1 831     -0.106000
     28 C19        -0.7200    0.1630  -13.1890 ca        1 831     -0.152000
     29 C20         0.6270    0.5590  -12.9930 ca        1 831      0.070600
     30 C21         1.0670    0.8280  -11.6820 ca        1 831     -0.128000
     31 C22         2.7250    1.2460  -14.1660 c         1 831      0.685700
     32 C23         3.4010    1.2220  -15.4970 ca        1 831     -0.156600
     33 C24         2.7210    1.5350  -16.6780 ca        1 831     -0.078000
     34 C25         3.4030    1.5260  -17.8950 ca        1 831     -0.136000
     35 C26         4.7590    1.2030  -17.9400 ca        1 831     -0.055000
     36 C27         5.4340    0.8970  -16.7550 ca        1 831     -0.173300
     37 C28         4.7650    0.9120  -15.5310 ca        1 831     -0.031000
     38 C29         6.9130    0.5290  -16.8010 c3        1 831      0.689200
     39 H1         -0.8460   -0.0410   -0.4860 hx        1 831      0.102533
     40 H1A        -0.7250    1.0340    1.0020 hx        1 831      0.102533
     41 H1B        -0.7310   -0.7900    1.1850 hx        1 831      0.102533
     42 H2          1.4870   -0.8860    2.2990 hx        1 831      0.102533
     43 H2A         2.8360    0.1640    1.6380 hx        1 831      0.102533
     44 H2B         1.3330    0.9400    2.3480 hx        1 831      0.102533
     45 H3          2.6590   -1.2520   -0.2070 hx        1 831      0.100700
     46 H3A         1.0220   -2.0540    0.0120 hx        1 831      0.100700
     47 H5         -0.4770   -2.2280   -1.8610 ha        1 831      0.131000
     48 HN5         1.1050    0.2740  -14.9600 hn        1 831      0.325500
     49 H6         -0.8880   -1.9250   -4.2850 ha        1 831      0.162500
     50 H8          2.6050    0.6390   -4.5540 ha        1 831      0.162500
     51 H9          3.0090    0.3330   -2.1390 ha        1 831      0.131000
     52 H11        -0.6920   -2.2850   -6.5210 h4        1 831      0.060800
     53 H13         2.5400    3.3980   -7.5760 h4        1 831      0.045100
     54 H14         1.6640    2.8670   -9.8860 ha        1 831      0.186000
     55 H17        -1.8530    0.2440   -9.9700 ha        1 831      0.151000
     56 H18        -2.6280   -0.2540  -12.2760 ha        1 831      0.146000
     57 H19        -1.0940   -0.0640  -14.2000 ha        1 831      0.140000
     58 H21         2.1120    1.1260  -11.4880 ha        1 831      0.179000
     59 H24         1.6550    1.8090  -16.6580 ha        1 831      0.143000
     60 H25         2.8700    1.7790  -18.8250 ha        1 831      0.153000
     61 H26         5.3010    1.1950  -18.9000 ha        1 831      0.162000
     62 H28         5.3060    0.6970  -14.5930 ha        1 831      0.172000
     63 H111        1.3680    0.8960   -0.0950 hn        1 831      0.452800
@<TRIPOS>BOND
     1    1    3 1   
     2    1   39 1   
     3    1   40 1   
     4    1   41 1   
     5    2   38 1   
     6    3    5 1   
     7    3    8 1   
     8    3   63 1   
     9    4   31 2   
    10    5   42 1   
    11    5   43 1   
    12    5   44 1   
    13    6   38 1   
    14    7   10 1   
    15    7   20 2   
    16    8   11 1   
    17    8   45 1   
    18    8   46 1   
    19    9   38 1   
    20   10   21 1   
    21   10   24 1   
    22   11   13 ar  
    23   11   18 ar  
    24   12   21 1   
    25   12   22 2   
    26   13   15 ar  
    27   13   47 1   
    28   14   29 1   
    29   14   31 1   
    30   14   48 1   
    31   15   16 ar  
    32   15   49 1   
    33   16   17 ar  
    34   16   19 1   
    35   17   18 ar  
    36   17   50 1   
    37   18   51 1   
    38   19   20 1   
    39   19   21 2   
    40   20   52 1   
    41   22   23 1   
    42   22   53 1   
    43   23   24 2   
    44   23   54 1   
    45   24   25 1   
    46   25   26 ar  
    47   25   30 ar  
    48   26   27 ar  
    49   26   55 1   
    50   27   28 ar  
    51   27   56 1   
    52   28   29 ar  
    53   28   57 1   
    54   29   30 ar  
    55   30   58 1   
    56   31   32 1   
    57   32   33 ar  
    58   32   37 ar  
    59   33   34 ar  
    60   33   59 1   
    61   34   35 ar  
    62   34   60 1   
    63   35   36 ar  
    64   35   61 1   
    65   36   37 ar  
    66   36   38 1   
    67   37   62 1   
@<TRIPOS>SUBSTRUCTURE
     1 831         1 TEMP              0 ****  ****    0 ROOT
