@<TRIPOS>MOLECULE
833
   27    22     1     0     0
SMALL
bcc


@<TRIPOS>ATOM
      1 C1         -1.5230    0.0050    0.6300 c1        1 833     -0.102000
      2 C2         -0.1470   -0.0510    0.6120 c1        1 833     -0.002000
      3 C3          0.5630   -0.0630    1.8040 c1        1 833     -0.118000
      4 C4         -0.1070   -0.0190    3.0080 c1        1 833     -0.102000
      5 C5         -1.5000    0.0380    3.0280 c1        1 833      0.007000
      6 C6         -2.2020    0.0500    1.8390 c1        1 833      0.007000
      7 O7         -3.6130    0.1480    2.1470 os        1 833     -0.218000
      8 C8         -3.7660    0.0540    3.5270 c3        1 833      0.099000
      9 O9         -2.4650    0.0410    4.1090 os        1 833     -0.218000
     10 C10         0.5320   -0.0450   -0.5980 c1        1 833     -0.015500
     11 C11         0.9500    1.0400   -1.2550 c1        1 833     -0.270000
     12 C12         1.6870    0.6140   -2.3770 c1        1 833     -0.015500
     13 N13         1.7020   -0.7160   -2.3800 n2        1 833     -0.107500
     14 N14         0.9860   -1.1540   -1.2770 n2        1 833     -0.107500
     15 N15         2.3390    1.4880   -3.3620 n2        1 833     -0.288000
     16 C16         2.2660   -1.5380   -3.3930 c2        1 833     -0.059000
     17 H1         -1.9970    0.0130   -0.1640 ha        1 833      0.161500
     18 H3          1.4840   -0.1010    1.7890 ha        1 833      0.142000
     19 H4          0.4080   -0.0280    3.8690 ha        1 833      0.161500
     20 H8         -4.2710    0.8620    3.8580 h2        1 833      0.110000
     21 H8A        -4.2530   -0.8340    3.7550 h2        1 833      0.110000
     22 H11         0.7750    1.9710   -0.9990 DU        1 833      0.166000
     23 HN15        2.5890    1.1580   -4.1640 hn        1 833      0.183500
     24 HN1A        2.4380    2.3400   -3.1910 hn        1 833      0.183500
     25 H16         3.1600   -1.3910   -3.4390 ha        1 833      0.096667
     26 H16A        1.8780   -1.3290   -4.2070 ha        1 833      0.096667
     27 H16B        2.0860   -2.5530   -3.1680 ha        1 833      0.096667
@<TRIPOS>BOND
     1    1    6 1   
     2    1   17 1   
     3    2    3 1   
     4    3   18 1   
     5    4    5 1   
     6    4   19 1   
     7    5    9 1   
     8    6    7 1   
     9    7    8 1   
    10    8    9 1   
    11    8   20 1   
    12    8   21 1   
    13   10   11 1   
    14   10   14 1   
    15   11   12 1   
    16   12   13 1   
    17   13   14 1   
    18   15   23 1   
    19   15   24 1   
    20   16   25 1   
    21   16   26 1   
    22   16   27 1   
@<TRIPOS>SUBSTRUCTURE
     1 833         1 TEMP              0 ****  ****    0 ROOT
