@<TRIPOS>MOLECULE
833
   27    29     1     0     0
SMALL
bcc


@<TRIPOS>ATOM
      1 C1          0.0090    0.2770   -0.0620 ca        1 833     -0.086000
      2 C2          1.4040    0.0380   -0.0280 ca        1 833     -0.108500
      3 C3          2.0730   -0.1710    1.1840 ca        1 833     -0.119000
      4 C4          1.4070   -0.1510    2.4210 ca        1 833     -0.117000
      5 C5          0.0480    0.0840    2.3810 ca        1 833      0.057100
      6 C6         -0.6370    0.2930    1.1560 ca        1 833      0.047100
      7 O7         -1.9890    0.5040    1.4170 os        1 833     -0.333900
      8 C8         -2.1550    0.4230    2.8500 c3        1 833      0.321200
      9 O9         -0.8580    0.1580    3.4340 os        1 833     -0.334900
     10 C10         2.1600    0.0150   -1.2700 cc        1 833      0.377800
     11 C11         3.5770    0.2860   -1.3900 cc        1 833     -0.335300
     12 C12         3.8600    0.1450   -2.7670 cd        1 833      0.084300
     13 N13         2.6330   -0.2210   -3.3860 na        1 833      0.072400
     14 N14         1.6300   -0.2740   -2.4960 nd        1 833     -0.505800
     15 N15         5.0570    0.3880   -3.4470 nh        1 833     -0.779200
     16 C16         2.4640   -0.3500   -4.8100 c3        1 833      0.040600
     17 H1         -0.5280    0.4390   -1.0060 ha        1 833      0.169000
     18 H3          3.1570   -0.3620    1.1750 ha        1 833      0.140000
     19 H4          1.9420   -0.3170    3.3640 ha        1 833      0.154000
     20 H8         -2.5190    1.4110    3.2250 h2        1 833      0.070700
     21 H8A        -2.8320   -0.4350    3.0840 h2        1 833      0.070700
     22 H11         4.2610    0.5630   -0.5980 ha        1 833      0.166000
     23 HN15        5.8400    0.3220   -2.8280 hn        1 833      0.388300
     24 HN1A        5.1780   -0.1770   -4.2630 hn        1 833      0.388300
     25 H16         3.1520   -1.1550   -5.1860 h1        1 833      0.057367
     26 H16A        1.4050   -0.6250   -5.0590 h1        1 833      0.057367
     27 H16B        2.7230    0.6220   -5.3110 h1        1 833      0.057367
@<TRIPOS>BOND
     1    1    2 ar  
     2    1    6 ar  
     3    1   17 1   
     4    2    3 ar  
     5    2   10 1   
     6    3    4 ar  
     7    3   18 1   
     8    4    5 ar  
     9    4   19 1   
    10    5    6 ar  
    11    5    9 1   
    12    6    7 1   
    13    7    8 1   
    14    8    9 1   
    15    8   20 1   
    16    8   21 1   
    17   10   11 1   
    18   10   14 2   
    19   11   12 2   
    20   11   22 1   
    21   12   13 1   
    22   12   15 1   
    23   13   14 1   
    24   13   16 1   
    25   15   23 1   
    26   15   24 1   
    27   16   25 1   
    28   16   26 1   
    29   16   27 1   
@<TRIPOS>SUBSTRUCTURE
     1 833         1 TEMP              0 ****  ****    0 ROOT
