@<TRIPOS>MOLECULE
833
   27    29     1     0     0
SMALL
bcc


@<TRIPOS>ATOM
      1 C1          0.0320    0.3690   -0.0430 ca        1 833     -0.087000
      2 C2          1.3970   -0.0050   -0.0330 ca        1 833     -0.109500
      3 C3          2.0370   -0.3820    1.1540 ca        1 833     -0.118000
      4 C4          1.3680   -0.4060    2.3900 ca        1 833     -0.117000
      5 C5          0.0390   -0.0370    2.3740 ca        1 833      0.057100
      6 C6         -0.6160    0.3430    1.1740 ca        1 833      0.047100
      7 O7         -1.9430    0.6600    1.4560 os        1 833     -0.334900
      8 C8         -2.1240    0.4700    2.8770 c3        1 833      0.321200
      9 O9         -0.8610    0.0340    3.4320 os        1 833     -0.334900
     10 C10         2.1560    0.0060   -1.2740 cc        1 833      0.377800
     11 C11         3.5890    0.1870   -1.3730 cc        1 833     -0.335300
     12 C12         3.8680    0.1280   -2.7570 cd        1 833      0.084300
     13 N13         2.6140   -0.0520   -3.4050 na        1 833      0.071400
     14 N14         1.6120   -0.1500   -2.5180 nd        1 833     -0.505800
     15 N15         5.1070    0.1540   -3.4020 nv        1 833     -0.779200
     16 C16         2.4770   -0.3160   -4.8150 c3        1 833      0.039600
     17 H1         -0.4810    0.6610   -0.9680 ha        1 833      0.169000
     18 H3          3.0970   -0.6770    1.1250 ha        1 833      0.142000
     19 H4          1.8790   -0.7040    3.3130 ha        1 833      0.154000
     20 H8         -2.8810   -0.3370    3.0360 h2        1 833      0.070700
     21 H8A        -2.3950    1.4510    3.3370 h2        1 833      0.070700
     22 H11         4.2880    0.3370   -0.5610 ha        1 833      0.166000
     23 HN15        5.0710    0.5170   -4.3320 hn        1 833      0.388300
     24 HN1A        5.7920    0.6250   -2.8450 hn        1 833      0.388300
     25 H16         3.0440   -1.2480   -5.0850 h1        1 833      0.057367
     26 H16A        1.3970   -0.4480   -5.0880 h1        1 833      0.057367
     27 H16B        2.8990    0.5520   -5.3880 h1        1 833      0.057367
@<TRIPOS>BOND
     1    1    2 ar  
     2    1    6 ar  
     3    1   17 1   
     4    2    3 ar  
     5    2   10 1   
     6    3    4 ar  
     7    3   18 1   
     8    4    5 ar  
     9    4   19 1   
    10    5    6 ar  
    11    5    9 1   
    12    6    7 1   
    13    7    8 1   
    14    8    9 1   
    15    8   20 1   
    16    8   21 1   
    17   10   11 1   
    18   10   14 2   
    19   11   12 2   
    20   11   22 1   
    21   12   13 1   
    22   12   15 1   
    23   13   14 1   
    24   13   16 1   
    25   15   23 1   
    26   15   24 1   
    27   16   25 1   
    28   16   26 1   
    29   16   27 1   
@<TRIPOS>SUBSTRUCTURE
     1 833         1 TEMP              0 ****  ****    0 ROOT
