@<TRIPOS>MOLECULE
833
   28    30     1     0     0
SMALL
bcc


@<TRIPOS>ATOM
      1 C1          0.0280    0.3440   -0.0450 ca        1 833     -0.077000
      2 C2          1.4020    0.0030   -0.0050 ca        1 833     -0.169500
      3 C3          2.0400   -0.3230    1.1980 ca        1 833     -0.100000
      4 C4          1.3590   -0.3250    2.4260 ca        1 833     -0.117000
      5 C5          0.0200    0.0120    2.3850 ca        1 833      0.097100
      6 C6         -0.6320    0.3410    1.1640 ca        1 833      0.058100
      7 O7         -1.9640    0.6350    1.4210 os        1 833     -0.322900
      8 C8         -2.1610    0.4830    2.8490 c3        1 833      0.320200
      9 O9         -0.8880    0.0930    3.4260 os        1 833     -0.318900
     10 C10         2.1700   -0.0080   -1.2380 cc        1 833      0.413800
     11 C11         3.5940    0.2000   -1.3450 cc        1 833     -0.187300
     12 C12         3.8580    0.0990   -2.7300 cd        1 833     -0.174700
     13 N13         2.6200   -0.1560   -3.3790 na        1 833      0.137400
     14 N14         1.6370   -0.2190   -2.4910 nd        1 833     -0.416800
     15 N15         5.1300    0.2280   -3.3960 n4        1 833     -0.662000
     16 C16         2.4670   -0.3330   -4.8060 c3        1 833      0.011600
     17 H1         -0.4860    0.5970   -0.9810 ha        1 833      0.171000
     18 H3          3.1060   -0.5980    1.1960 ha        1 833      0.132000
     19 H4          1.8650   -0.5840    3.3650 ha        1 833      0.171000
     20 H8         -2.8970   -0.3410    3.0230 h2        1 833      0.089200
     21 H8A        -2.4570    1.4720    3.2760 h2        1 833      0.089200
     22 H11         4.2900    0.3990   -0.5340 ha        1 833      0.195000
     23 HN15        5.3640   -0.6410   -3.8940 hn        1 833      0.470133
     24 HN1A        5.1050    1.0080   -4.0660 hn        1 833      0.470133
     25 H16         3.0800   -1.2130   -5.1380 h1        1 833      0.084033
     26 H16A        2.8040    0.6000   -5.3320 h1        1 833      0.084033
     27 H16B        1.3860   -0.5240   -5.0590 h1        1 833      0.084033
     28 H153        5.8450    0.4150   -2.6810 hn        1 833      0.470133
@<TRIPOS>BOND
     1    1    2 ar  
     2    1    6 ar  
     3    1   17 1   
     4    2    3 ar  
     5    2   10 1   
     6    3    4 ar  
     7    3   18 1   
     8    4    5 ar  
     9    4   19 1   
    10    5    6 ar  
    11    5    9 1   
    12    6    7 1   
    13    7    8 1   
    14    8    9 1   
    15    8   20 1   
    16    8   21 1   
    17   10   11 1   
    18   10   14 2   
    19   11   12 2   
    20   11   22 1   
    21   12   13 1   
    22   12   15 1   
    23   13   14 1   
    24   13   16 1   
    25   15   23 1   
    26   15   24 1   
    27   15   28 1   
    28   16   25 1   
    29   16   26 1   
    30   16   27 1   
@<TRIPOS>SUBSTRUCTURE
     1 833         1 TEMP              0 ****  ****    0 ROOT
