@<TRIPOS>MOLECULE
833
   27    29     1     0     0
SMALL
bcc


@<TRIPOS>ATOM
      1 C1          0.9780    0.8480    0.0500 ca        1 833     -0.086000
      2 C2          0.1420   -0.2840   -0.1050 ca        1 833     -0.108500
      3 C3          0.6810   -1.5580   -0.3180 ca        1 833     -0.119000
      4 C4          2.0660   -1.7840   -0.3840 ca        1 833     -0.117000
      5 C5          2.8750   -0.6770   -0.2290 ca        1 833      0.057100
      6 C6          2.3350    0.6180   -0.0160 ca        1 833      0.047100
      7 O7          3.3770    1.5350    0.1030 os        1 833     -0.333900
      8 C8          4.6070    0.7890   -0.0400 c3        1 833      0.321200
      9 O9          4.2640   -0.6010   -0.2470 os        1 833     -0.334900
     10 C10        -1.3030   -0.1270   -0.0370 cc        1 833      0.377800
     11 C11        -2.2400   -1.1690    0.3240 cc        1 833     -0.335300
     12 C12        -3.5110   -0.5560    0.2510 cd        1 833      0.084300
     13 N13        -3.2800    0.7830   -0.1670 na        1 833      0.072400
     14 N14        -1.9710    1.0340   -0.3140 nd        1 833     -0.505800
     15 N15        -4.7600   -1.0830    0.5910 nh        1 833     -0.779200
     16 C16        -4.3140    1.7820   -0.2550 c3        1 833      0.040600
     17 H1          0.5670    1.8530    0.2140 ha        1 833      0.169000
     18 H3          0.0030   -2.4170   -0.4430 ha        1 833      0.140000
     19 H4          2.4770   -2.7870   -0.5510 ha        1 833      0.154000
     20 H8          5.1470    1.1620   -0.9450 h2        1 833      0.070700
     21 H8A         5.1900    0.8750    0.9100 h2        1 833      0.070700
     22 H11        -2.0100   -2.1850    0.6130 ha        1 833      0.166000
     23 HN15       -4.7500   -2.0830    0.5510 hn        1 833      0.388300
     24 HN1A       -5.5170   -0.6970    0.0640 hn        1 833      0.388300
     25 H16        -4.8050    1.9080    0.7480 h1        1 833      0.057367
     26 H16A       -3.8860    2.7650   -0.5850 h1        1 833      0.057367
     27 H16B       -5.0820    1.4450   -1.0020 h1        1 833      0.057367
@<TRIPOS>BOND
     1    1    2 ar  
     2    1    6 ar  
     3    1   17 1   
     4    2    3 ar  
     5    2   10 1   
     6    3    4 ar  
     7    3   18 1   
     8    4    5 ar  
     9    4   19 1   
    10    5    6 ar  
    11    5    9 1   
    12    6    7 1   
    13    7    8 1   
    14    8    9 1   
    15    8   20 1   
    16    8   21 1   
    17   10   11 1   
    18   10   14 2   
    19   11   12 2   
    20   11   22 1   
    21   12   13 1   
    22   12   15 1   
    23   13   14 1   
    24   13   16 1   
    25   15   23 1   
    26   15   24 1   
    27   16   25 1   
    28   16   26 1   
    29   16   27 1   
@<TRIPOS>SUBSTRUCTURE
     1 833         1 TEMP              0 ****  ****    0 ROOT
