@<TRIPOS>MOLECULE
834
   54    48     1     0     0
SMALL
bcc


@<TRIPOS>ATOM
      1 C1          3.4280   -1.4900    0.4720 c1        1 834     -0.119000
      2 C2          4.8080   -1.4990    0.6430 c1        1 834     -0.122000
      3 C3          5.3490   -1.5880    1.9190 c1        1 834     -0.122000
      4 C4          4.5110   -1.6680    3.0260 c1        1 834     -0.131000
      5 C5          3.1320   -1.6590    2.8560 c1        1 834     -0.029000
      6 C6          2.5900   -1.5700    1.5790 c1        1 834     -0.015000
      7 C7          1.1980   -1.6530    1.4000 c1        1 834     -0.031000
      8 CL8         2.0790   -1.7100    4.2490 cl        1 834      0.020000
      9 N9          1.3700   -3.0000    1.5140 n2        1 834     -0.092000
     10 C10         0.8630   -3.5790    0.4150 c1        1 834     -0.078500
     11 C11         0.3670   -2.5840   -0.3990 c1        1 834     -0.078500
     12 N12         0.5770   -1.4050    0.2140 n2        1 834     -0.092000
     13 C13         0.7490   -5.0850    0.1650 c2        1 834     -0.136000
     14 C17        -0.1750   -2.7750   -1.8340 c2        1 834     -0.037000
     15 N18         0.1200   -0.1520   -0.2310 n2        1 834     -0.212000
     16 C19        -0.3470    0.8250    0.7220 c2        1 834      0.317000
     17 C24         0.9090   -3.4290   -2.7080 c3        1 834     -0.208000
     18 C28        -1.4150   -3.6770   -1.7960 c3        1 834     -0.208000
     19 O34         0.1330    0.8620    1.8420 o         1 834     -0.286000
     20 C35        -1.4470    1.8190    0.3250 c2        1 834     -0.146000
     21 C36        -2.7020    1.3360   -0.1830 c2        1 834     -0.093000
     22 C37        -3.7040    2.2520   -0.5890 c1        1 834     -0.136000
     23 C38        -3.4750    3.6190   -0.4960 c1        1 834      0.017000
     24 C39        -2.1910    4.1140    0.0240 c1        1 834      0.017000
     25 C40        -1.2100    3.2120    0.4220 c1        1 834     -0.000000
     26 C41         0.0830    3.7230    1.0620 c3        1 834     -0.195000
     27 O47        -4.4900    4.6280   -0.8780 os        1 834     -0.195500
     28 C48        -4.2260    5.8820   -0.5900 c3        1 834     -0.060500
     29 C49        -2.8290    6.3020   -0.6930 c3        1 834     -0.060500
     30 O50        -1.9450    5.5740   -0.0430 os        1 834     -0.195500
     31 H1          3.0470   -1.4270   -0.4290 ha        1 834      0.143000
     32 H2          5.3990   -1.4430   -0.1380 ha        1 834      0.139500
     33 H3          6.3220   -1.5950    2.0390 ha        1 834      0.139500
     34 H4          4.8940   -1.7310    3.9270 ha        1 834      0.151000
     35 H13         1.2550   -5.3220   -0.6400 ha        1 834      0.086333
     36 H13A        1.1130   -5.5730    0.9370 ha        1 834      0.086333
     37 H13B       -0.1970   -5.3260    0.0410 ha        1 834      0.086333
     38 H17        -0.4170   -1.9020   -2.2110 ha        1 834      0.104000
     39 HN18        0.1620    0.0610   -1.1220 hn        1 834      0.224000
     40 H24         1.3320   -4.1610   -2.2110 hc        1 834      0.079333
     41 H24A        1.5870   -2.7580   -2.9450 hc        1 834      0.079333
     42 H24B        0.4980   -3.7840   -3.5290 hc        1 834      0.079333
     43 H28        -1.8760   -3.5650   -0.9370 hc        1 834      0.079333
     44 H28A       -2.0240   -3.4290   -2.5290 hc        1 834      0.079333
     45 H28B       -1.1420   -4.6150   -1.9010 hc        1 834      0.079333
     46 H36        -2.8760    0.3730   -0.2200 ha        1 834      0.150000
     47 H37        -4.5600    1.9200   -0.9350 ha        1 834      0.158000
     48 H41         0.3810    4.6310    1.2990 hc        1 834      0.103667
     49 H41A       -0.5510    3.9210    1.7880 hc        1 834      0.103667
     50 H41B        0.1830    4.1030    0.1630 hc        1 834      0.103667
     51 H48        -4.5250    6.0500    0.3310 h1        1 834      0.112750
     52 H48A       -4.7590    6.4500   -1.1930 h1        1 834      0.112750
     53 H49        -2.5840    6.2790   -1.6460 h1        1 834      0.112750
     54 H49A       -2.7700    7.2190   -0.3420 h1        1 834      0.112750
@<TRIPOS>BOND
     1    1    6 1   
     2    1   31 1   
     3    2    3 1   
     4    2   32 1   
     5    3   33 1   
     6    4    5 1   
     7    4   34 1   
     8    5    8 1   
     9    7    9 1   
    10    7   12 1   
    11    9   10 1   
    12   10   11 1   
    13   11   12 1   
    14   13   35 1   
    15   13   36 1   
    16   13   37 1   
    17   14   17 1   
    18   14   18 1   
    19   14   38 1   
    20   15   16 1   
    21   15   39 1   
    22   16   19 1   
    23   16   20 1   
    24   17   40 1   
    25   17   41 1   
    26   17   42 1   
    27   18   43 1   
    28   18   44 1   
    29   18   45 1   
    30   20   21 1   
    31   20   25 1   
    32   21   22 1   
    33   21   46 1   
    34   22   47 1   
    35   23   24 1   
    36   23   27 1   
    37   24   30 1   
    38   25   26 1   
    39   26   48 1   
    40   26   49 1   
    41   26   50 1   
    42   27   28 1   
    43   28   29 1   
    44   28   51 1   
    45   28   52 1   
    46   29   30 1   
    47   29   53 1   
    48   29   54 1   
@<TRIPOS>SUBSTRUCTURE
     1 834         1 TEMP              0 ****  ****    0 ROOT
