@<TRIPOS>MOLECULE
834
   54    57     1     0     0
SMALL
bcc


@<TRIPOS>ATOM
      1 C1          0.2270   -0.3320    0.3160 ca        1 834     -0.091000
      2 C2          1.6150   -0.2960    0.4170 ca        1 834     -0.142000
      3 C3          2.2190    0.0680    1.6210 ca        1 834     -0.112000
      4 C4          1.4360    0.3990    2.7240 ca        1 834     -0.137000
      5 C5          0.0390    0.3670    2.6280 ca        1 834      0.054400
      6 C6         -0.5720   -0.0030    1.4190 ca        1 834     -0.111500
      7 C7         -2.0300   -0.0770    1.2990 cc        1 834      0.500000
      8 CL8        -0.8800    0.7890    3.9890 cl        1 834     -0.062400
      9 N9         -2.8550   -0.8350    2.0520 nd        1 834     -0.637000
     10 C10        -4.1520   -0.6110    1.5770 cd        1 834      0.322600
     11 C11        -4.1340    0.3060    0.5060 cc        1 834     -0.210900
     12 N12        -2.7690    0.6350    0.3010 na        1 834     -0.116500
     13 C13        -5.3490   -1.2660    2.1360 c3        1 834     -0.116400
     14 C17        -5.2900    0.7980   -0.2800 c3        1 834      0.003600
     15 N18        -2.2350    1.5200   -0.5680 n         1 834     -0.404200
     16 C19        -2.1760    2.9250   -0.2900 c         1 834      0.648700
     17 C24        -5.5730    2.2640   -0.0190 c3        1 834     -0.094100
     18 C28        -5.1450    0.5290   -1.7660 c3        1 834     -0.094100
     19 O34        -2.3360    3.4000    0.8400 o         1 834     -0.520100
     20 C35        -1.8080    3.7440   -1.4830 ca        1 834     -0.155600
     21 C36        -2.7400    3.8610   -2.5210 ca        1 834     -0.111000
     22 C37        -2.4680    4.6420   -3.6370 ca        1 834     -0.131000
     23 C38        -1.2340    5.3030   -3.7130 ca        1 834      0.083100
     24 C39        -0.2890    5.1710   -2.6810 ca        1 834      0.043100
     25 C40        -0.5670    4.3930   -1.5400 ca        1 834      0.000700
     26 C41         0.4360    4.2760   -0.4580 c3        1 834     -0.068800
     27 O47        -0.9890    6.0480   -4.8520 os        1 834     -0.312900
     28 C48         0.1140    6.9530   -4.7190 c3        1 834      0.089400
     29 C49         1.2900    6.2830   -4.0300 c3        1 834      0.089400
     30 O50         0.9310    5.8290   -2.7210 os        1 834     -0.310900
     31 H1         -0.2490   -0.6230   -0.6320 ha        1 834      0.142000
     32 H2          2.2350   -0.5580   -0.4530 ha        1 834      0.135000
     33 H3          3.3150    0.0930    1.7030 ha        1 834      0.136000
     34 H4          1.9130    0.6860    3.6740 ha        1 834      0.148000
     35 H13        -5.0920   -1.9210    3.0040 hc        1 834      0.048033
     36 H13A       -6.0790   -0.4910    2.4810 hc        1 834      0.048033
     37 H13B       -5.8420   -1.8940    1.3510 hc        1 834      0.048033
     38 H17        -6.1810    0.2040    0.0880 hc        1 834      0.070700
     39 HN18       -2.5270    1.3140   -1.5140 hn        1 834      0.307500
     40 H24        -5.7380    2.4390    1.0720 hc        1 834      0.038700
     41 H24A       -4.7190    2.9050   -0.3480 hc        1 834      0.038700
     42 H24B       -6.4880    2.5790   -0.5770 hc        1 834      0.038700
     43 H28        -4.5100    1.3030   -2.2620 hc        1 834      0.038700
     44 H28A       -4.6910   -0.4750   -1.9440 hc        1 834      0.038700
     45 H28B       -6.1510    0.5560   -2.2520 hc        1 834      0.038700
     46 H36        -3.7120    3.3480   -2.4460 ha        1 834      0.139000
     47 H37        -3.1950    4.7510   -4.4540 ha        1 834      0.157000
     48 H41        -0.0610    4.1640    0.5390 hc        1 834      0.065033
     49 H41A        1.0940    5.1800   -0.4290 hc        1 834      0.065033
     50 H41B        1.0820    3.3790   -0.6370 hc        1 834      0.065033
     51 H48         0.3600    7.2340   -5.7760 h1        1 834      0.074200
     52 H48A       -0.2290    7.8510   -4.1410 h1        1 834      0.074200
     53 H49         1.6550    5.4070   -4.6280 h1        1 834      0.073200
     54 H49A        2.1250    7.0080   -3.8440 h1        1 834      0.073200
@<TRIPOS>BOND
     1    1    2 ar  
     2    1    6 ar  
     3    1   31 1   
     4    2    3 ar  
     5    2   32 1   
     6    3    4 ar  
     7    3   33 1   
     8    4    5 ar  
     9    4   34 1   
    10    5    6 ar  
    11    5    8 1   
    12    6    7 1   
    13    7    9 2   
    14    7   12 1   
    15    9   10 1   
    16   10   11 2   
    17   10   13 1   
    18   11   12 1   
    19   11   14 1   
    20   12   15 1   
    21   13   35 1   
    22   13   36 1   
    23   13   37 1   
    24   14   17 1   
    25   14   18 1   
    26   14   38 1   
    27   15   16 1   
    28   15   39 1   
    29   16   19 2   
    30   16   20 1   
    31   17   40 1   
    32   17   41 1   
    33   17   42 1   
    34   18   43 1   
    35   18   44 1   
    36   18   45 1   
    37   20   21 ar  
    38   20   25 ar  
    39   21   22 ar  
    40   21   46 1   
    41   22   23 ar  
    42   22   47 1   
    43   23   24 ar  
    44   23   27 1   
    45   24   25 ar  
    46   24   30 1   
    47   25   26 1   
    48   26   48 1   
    49   26   49 1   
    50   26   50 1   
    51   27   28 1   
    52   28   29 1   
    53   28   51 1   
    54   28   52 1   
    55   29   30 1   
    56   29   53 1   
    57   29   54 1   
@<TRIPOS>SUBSTRUCTURE
     1 834         1 TEMP              0 ****  ****    0 ROOT
