@<TRIPOS>MOLECULE
834
   54    57     1     0     0
SMALL
bcc


@<TRIPOS>ATOM
      1 C1          0.2260   -0.3230    0.3360 ca        1 834     -0.091000
      2 C2          1.6140   -0.2830    0.4430 ca        1 834     -0.142000
      3 C3          2.2100    0.0870    1.6490 ca        1 834     -0.112000
      4 C4          1.4210    0.4200    2.7470 ca        1 834     -0.137000
      5 C5          0.0250    0.3840    2.6430 ca        1 834      0.054400
      6 C6         -0.5790    0.0090    1.4330 ca        1 834     -0.111500
      7 C7         -2.0360   -0.0700    1.3060 cc        1 834      0.500000
      8 Cl8        -0.9020    0.8090    3.9980 cl        1 834     -0.062400
      9 N9         -2.8630   -0.8270    2.0570 nd        1 834     -0.637000
     10 C10        -4.1590   -0.6080    1.5750 cd        1 834      0.322600
     11 C11        -4.1370    0.3050    0.5000 cc        1 834     -0.210900
     12 N12        -2.7720    0.6370    0.3020 na        1 834     -0.116500
     13 C13        -5.3570   -1.2640    2.1300 c3        1 834     -0.116400
     14 C17        -5.2900    0.7910   -0.2940 c3        1 834      0.003600
     15 N18        -2.2360    1.5200   -0.5680 ns        1 834     -0.404200
     16 C19        -2.1810    2.9270   -0.2940 c         1 834      0.648700
     17 C24        -5.5780    2.2580   -0.0390 c3        1 834     -0.094100
     18 C28        -5.1360    0.5180   -1.7780 c3        1 834     -0.094100
     19 O34        -2.3490    3.4050    0.8330 o         1 834     -0.520100
     20 C35        -1.8090    3.7420   -1.4880 ca        1 834     -0.155600
     21 C36        -2.7350    3.8530   -2.5320 ca        1 834     -0.111000
     22 C37        -2.4580    4.6310   -3.6490 ca        1 834     -0.131000
     23 C38        -1.2260    5.2950   -3.7200 ca        1 834      0.083100
     24 C39        -0.2860    5.1690   -2.6820 ca        1 834      0.043100
     25 C40        -0.5690    4.3950   -1.5390 ca        1 834      0.000700
     26 C41         0.4280    4.2830   -0.4510 c3        1 834     -0.068800
     27 O47        -0.9760    6.0370   -4.8600 os        1 834     -0.312900
     28 C48         0.1230    6.9450   -4.7230 c3        1 834      0.089400
     29 C49         1.2980    6.2810   -4.0260 c3        1 834      0.089400
     30 O50         0.9330    5.8300   -2.7170 os        1 834     -0.310900
     31 H1         -0.2450   -0.6190   -0.6140 ha        1 834      0.142000
     32 H2          2.2390   -0.5480   -0.4220 ha        1 834      0.135000
     33 H3          3.3070    0.1150    1.7360 ha        1 834      0.136000
     34 H4          1.8930    0.7120    3.6970 ha        1 834      0.148000
     35 H13        -5.8450   -1.8950    1.3450 hc        1 834      0.048033
     36 H13A       -6.0900   -0.4890    2.4690 hc        1 834      0.048033
     37 H13B       -5.1020   -1.9160    3.0010 hc        1 834      0.048033
     38 H17        -6.1820    0.1960    0.0720 hc        1 834      0.070700
     39 HN18       -2.5220    1.3100   -1.5150 hn        1 834      0.307500
     40 H24        -6.4910    2.5680   -0.6030 hc        1 834      0.038700
     41 H24A       -4.7240    2.9000   -0.3660 hc        1 834      0.038700
     42 H24B       -5.7490    2.4360    1.0500 hc        1 834      0.038700
     43 H28        -4.6790   -0.4860   -1.9500 hc        1 834      0.038700
     44 H28A       -6.1390    0.5400   -2.2690 hc        1 834      0.038700
     45 H28B       -4.5010    1.2910   -2.2730 hc        1 834      0.038700
     46 H36        -3.7060    3.3370   -2.4600 ha        1 834      0.139000
     47 H37        -3.1810    4.7360   -4.4700 ha        1 834      0.157000
     48 H41         1.0780    3.3880   -0.6240 hc        1 834      0.065033
     49 H41A        1.0830    5.1900   -0.4220 hc        1 834      0.065033
     50 H41B       -0.0750    4.1730    0.5420 hc        1 834      0.065033
     51 H48         0.3750    7.2240   -5.7800 h1        1 834      0.074200
     52 H48A       -0.2250    7.8440   -4.1500 h1        1 834      0.074200
     53 H49         2.1290    7.0090   -3.8370 h1        1 834      0.073200
     54 H49A        1.6680    5.4040   -4.6180 h1        1 834      0.073200
@<TRIPOS>BOND
     1    1    2 ar  
     2    1    6 ar  
     3    1   31 1   
     4    2    3 ar  
     5    2   32 1   
     6    3    4 ar  
     7    3   33 1   
     8    4    5 ar  
     9    4   34 1   
    10    5    6 ar  
    11    5    8 1   
    12    6    7 1   
    13    7    9 2   
    14    7   12 1   
    15    9   10 1   
    16   10   11 2   
    17   10   13 1   
    18   11   12 1   
    19   11   14 1   
    20   12   15 1   
    21   13   35 1   
    22   13   36 1   
    23   13   37 1   
    24   14   17 1   
    25   14   18 1   
    26   14   38 1   
    27   15   16 1   
    28   15   39 1   
    29   16   19 2   
    30   16   20 1   
    31   17   40 1   
    32   17   41 1   
    33   17   42 1   
    34   18   43 1   
    35   18   44 1   
    36   18   45 1   
    37   20   21 ar  
    38   20   25 ar  
    39   21   22 ar  
    40   21   46 1   
    41   22   23 ar  
    42   22   47 1   
    43   23   24 ar  
    44   23   27 1   
    45   24   25 ar  
    46   24   30 1   
    47   25   26 1   
    48   26   48 1   
    49   26   49 1   
    50   26   50 1   
    51   27   28 1   
    52   28   29 1   
    53   28   51 1   
    54   28   52 1   
    55   29   30 1   
    56   29   53 1   
    57   29   54 1   
@<TRIPOS>SUBSTRUCTURE
     1 834         1 TEMP              0 ****  ****    0 ROOT
