@<TRIPOS>MOLECULE
834
   55    58     1     0     0
SMALL
bcc


@<TRIPOS>ATOM
      1 C1          0.0680   -0.8640    0.2120 ca        1 834     -0.125000
      2 C2          1.4530   -0.9940    0.1900 ca        1 834     -0.125000
      3 C3          2.2240   -0.4320    1.2100 ca        1 834     -0.085000
      4 C4          1.6130    0.2630    2.2500 ca        1 834     -0.121000
      5 C5          0.2180    0.4030    2.2790 ca        1 834      0.055400
      6 C6         -0.5580   -0.1630    1.2540 ca        1 834     -0.194500
      7 C7         -2.0180   -0.0800    1.2820 cc        1 834      0.509000
      8 CL8        -0.4960    1.2590    3.5500 cl        1 834     -0.033400
      9 N9         -2.8550   -0.4630    2.2350 nd        1 834     -0.571000
     10 C10        -4.1760   -0.2020    1.7670 cd        1 834      0.404600
     11 C11        -4.1460    0.3470    0.4840 cc        1 834     -0.222900
     12 N12        -2.7570    0.3490    0.0740 na        1 834     -0.132700
     13 C13        -5.3680   -0.5410    2.5650 c3        1 834     -0.143400
     14 C17        -5.2910    0.7240   -0.3810 c3        1 834     -0.012400
     15 N18        -2.2280    1.3130   -0.7680 n4        1 834     -0.539100
     16 C19        -2.1740    2.8220   -0.3480 c         1 834      0.575700
     17 C24        -5.5460    2.2190   -0.3570 c3        1 834     -0.097600
     18 C28        -5.1580    0.2170   -1.8040 c3        1 834     -0.097600
     19 O34        -2.4120    3.0910    0.8100 o         1 834     -0.367100
     20 C35        -1.8020    3.6630   -1.4880 ca        1 834     -0.233600
     21 C36        -2.6120    3.6640   -2.6380 ca        1 834     -0.097000
     22 C37        -2.3190    4.4950   -3.7070 ca        1 834     -0.124000
     23 C38        -1.1930    5.3350   -3.6300 ca        1 834      0.137100
     24 C39        -0.3710    5.3200   -2.4860 ca        1 834      0.043100
     25 C40        -0.6700    4.4930   -1.3870 ca        1 834      0.020700
     26 C41         0.1950    4.5440   -0.1890 c3        1 834     -0.074800
     27 O47        -0.9280    6.1300   -4.7160 os        1 834     -0.292900
     28 C48         0.0310    7.1720   -4.4650 c3        1 834      0.084400
     29 C49         1.1920    6.6620   -3.6320 c3        1 834      0.085400
     30 O50         0.7380    6.1380   -2.3740 os        1 834     -0.300900
     31 H1         -0.5400   -1.3550   -0.5640 ha        1 834      0.144000
     32 H2          1.9400   -1.5580   -0.6220 ha        1 834      0.157000
     33 H3          3.3200   -0.5480    1.1990 ha        1 834      0.161000
     34 H4          2.2230    0.6950    3.0610 ha        1 834      0.170000
     35 H13        -6.2060    0.1600    2.3240 hc        1 834      0.074700
     36 H13A       -5.1500   -0.4780    3.6620 hc        1 834      0.074700
     37 H13B       -5.6930   -1.5880    2.3330 hc        1 834      0.074700
     38 H17        -6.1960    0.2150    0.0760 hc        1 834      0.096700
     39 HN18       -2.7650    1.2590   -1.6540 hn        1 834      0.472800
     40 H24        -5.7160    2.5710    0.6900 hc        1 834      0.045200
     41 H24A       -4.6790    2.7830   -0.7810 hc        1 834      0.045200
     42 H24B       -6.4520    2.4560   -0.9660 hc        1 834      0.045200
     43 H28        -4.5480    0.9100   -2.4350 hc        1 834      0.045200
     44 H28A       -6.1720    0.1530   -2.2710 hc        1 834      0.045200
     45 H28B       -4.6970   -0.7990   -1.8280 hc        1 834      0.045200
     46 H36        -3.5180    3.0390   -2.6880 ha        1 834      0.141000
     47 H37        -2.9520    4.5200   -4.6080 ha        1 834      0.181000
     48 H41        -0.0220    5.4820    0.3860 hc        1 834      0.072367
     49 H41A        1.2730    4.5770   -0.4930 hc        1 834      0.072367
     50 H41B        0.0340    3.6710    0.4870 hc        1 834      0.072367
     51 H48        -0.4990    8.0170   -3.9500 h1        1 834      0.094700
     52 H48A        0.3610    7.4790   -5.4930 h1        1 834      0.094700
     53 H49         1.8830    7.4970   -3.3350 h1        1 834      0.090200
     54 H49A        1.7550    5.8570   -4.1730 h1        1 834      0.090200
     55 H182       -1.2470    1.0260   -0.9560 hn        1 834      0.472800
@<TRIPOS>BOND
     1    1    2 ar  
     2    1    6 ar  
     3    1   31 1   
     4    2    3 ar  
     5    2   32 1   
     6    3    4 ar  
     7    3   33 1   
     8    4    5 ar  
     9    4   34 1   
    10    5    6 ar  
    11    5    8 1   
    12    6    7 1   
    13    7    9 2   
    14    7   12 1   
    15    9   10 1   
    16   10   11 2   
    17   10   13 1   
    18   11   12 1   
    19   11   14 1   
    20   12   15 1   
    21   13   35 1   
    22   13   36 1   
    23   13   37 1   
    24   14   17 1   
    25   14   18 1   
    26   14   38 1   
    27   15   16 1   
    28   15   39 1   
    29   15   55 1   
    30   16   19 2   
    31   16   20 1   
    32   17   40 1   
    33   17   41 1   
    34   17   42 1   
    35   18   43 1   
    36   18   44 1   
    37   18   45 1   
    38   20   21 ar  
    39   20   25 ar  
    40   21   22 ar  
    41   21   46 1   
    42   22   23 ar  
    43   22   47 1   
    44   23   24 ar  
    45   23   27 1   
    46   24   25 ar  
    47   24   30 1   
    48   25   26 1   
    49   26   48 1   
    50   26   49 1   
    51   26   50 1   
    52   27   28 1   
    53   28   29 1   
    54   28   51 1   
    55   28   52 1   
    56   29   30 1   
    57   29   53 1   
    58   29   54 1   
@<TRIPOS>SUBSTRUCTURE
     1 834         1 TEMP              0 ****  ****    0 ROOT
