@<TRIPOS>MOLECULE
834
   54    57     1     0     0
SMALL
bcc


@<TRIPOS>ATOM
      1 C1          1.6430   -1.9230    1.7030 ca        1 834     -0.091000
      2 C2          1.3060   -3.2580    1.9130 ca        1 834     -0.142000
      3 C3          1.6880   -4.2280    0.9880 ca        1 834     -0.112000
      4 C4          2.4050   -3.8670   -0.1500 ca        1 834     -0.137000
      5 C5          2.7450   -2.5260   -0.3680 ca        1 834      0.054400
      6 C6          2.3650   -1.5460    0.5630 ca        1 834     -0.111500
      7 C7          2.7360   -0.1410    0.3780 cc        1 834      0.500000
      8 CL8         3.6070   -2.1230   -1.7720 cl        1 834     -0.062400
      9 N9          3.9880    0.3430    0.2440 nd        1 834     -0.637000
     10 C10         3.8720    1.7320    0.1150 cd        1 834      0.322600
     11 C11         2.5170    2.1200    0.1690 cc        1 834     -0.210900
     12 N12         1.7790    0.9230    0.3660 na        1 834     -0.116500
     13 C13         5.0260    2.6360   -0.0460 c3        1 834     -0.116400
     14 C17         1.9680    3.4940    0.0840 c3        1 834      0.003600
     15 N18         0.4400    0.7570    0.4220 n         1 834     -0.404200
     16 C19        -0.3680    0.6550   -0.7580 c         1 834      0.648700
     17 C24         1.2000    3.7200   -1.2040 c3        1 834     -0.094100
     18 C28         1.1270    3.8640    1.2900 c3        1 834     -0.094100
     19 O34         0.0970    0.4300   -1.8810 o         1 834     -0.520100
     20 C35        -1.8310    0.7540   -0.4770 ca        1 834     -0.155600
     21 C36        -2.3480    1.9920   -0.0780 ca        1 834     -0.111000
     22 C37        -3.7070    2.1530    0.1590 ca        1 834     -0.131000
     23 C38        -4.5540    1.0470    0.0040 ca        1 834      0.083100
     24 C39        -4.0340   -0.2030   -0.3780 ca        1 834      0.043100
     25 C40        -2.6590   -0.3660   -0.6350 ca        1 834      0.000700
     26 C41        -2.1310   -1.6870   -1.0460 c3        1 834     -0.068800
     27 O47        -5.8970    1.2390    0.2750 os        1 834     -0.312900
     28 C48        -6.7380    0.1920   -0.2220 c3        1 834      0.089400
     29 C49        -6.1350   -1.1740    0.0610 c3        1 834      0.089400
     30 O50        -4.8510   -1.3090   -0.5570 os        1 834     -0.310900
     31 H1          1.3460   -1.1570    2.4360 ha        1 834      0.142000
     32 H2          0.7420   -3.5450    2.8120 ha        1 834      0.135000
     33 H3          1.4260   -5.2840    1.1550 ha        1 834      0.136000
     34 H4          2.7050   -4.6340   -0.8800 ha        1 834      0.148000
     35 H13         4.9160    3.2270   -0.9900 hc        1 834      0.048033
     36 H13A        5.0750    3.3480    0.8160 hc        1 834      0.048033
     37 H13B        5.9880    2.0690   -0.0930 hc        1 834      0.048033
     38 H17         2.8700    4.1790    0.0720 hc        1 834      0.070700
     39 HN18        0.0350    1.3520    1.1310 hn        1 834      0.307500
     40 H24         0.3020    3.0580   -1.2600 hc        1 834      0.038700
     41 H24A        0.8600    4.7830   -1.2590 hc        1 834      0.038700
     42 H24B        1.8490    3.5020   -2.0860 hc        1 834      0.038700
     43 H28         1.0610    4.9760    1.3730 hc        1 834      0.038700
     44 H28A        0.0860    3.4700    1.2010 hc        1 834      0.038700
     45 H28B        1.5830    3.4650    2.2280 hc        1 834      0.038700
     46 H36        -1.6760    2.8590    0.0290 ha        1 834      0.139000
     47 H37        -4.1280    3.1220    0.4620 ha        1 834      0.157000
     48 H41        -1.8060   -2.2620   -0.1430 hc        1 834      0.065033
     49 H41A       -2.9200   -2.2790   -1.5730 hc        1 834      0.065033
     50 H41B       -1.2540   -1.5710   -1.7320 hc        1 834      0.065033
     51 H48        -7.7040    0.3380    0.3290 h1        1 834      0.074200
     52 H48A       -6.8840    0.3430   -1.3230 h1        1 834      0.074200
     53 H49        -6.0240   -1.3390    1.1640 h1        1 834      0.073200
     54 H49A       -6.7430   -1.9950   -0.4010 h1        1 834      0.073200
@<TRIPOS>BOND
     1    1    2 ar  
     2    1    6 ar  
     3    1   31 1   
     4    2    3 ar  
     5    2   32 1   
     6    3    4 ar  
     7    3   33 1   
     8    4    5 ar  
     9    4   34 1   
    10    5    6 ar  
    11    5    8 1   
    12    6    7 1   
    13    7    9 2   
    14    7   12 1   
    15    9   10 1   
    16   10   11 2   
    17   10   13 1   
    18   11   12 1   
    19   11   14 1   
    20   12   15 1   
    21   13   35 1   
    22   13   36 1   
    23   13   37 1   
    24   14   17 1   
    25   14   18 1   
    26   14   38 1   
    27   15   16 1   
    28   15   39 1   
    29   16   19 2   
    30   16   20 1   
    31   17   40 1   
    32   17   41 1   
    33   17   42 1   
    34   18   43 1   
    35   18   44 1   
    36   18   45 1   
    37   20   21 ar  
    38   20   25 ar  
    39   21   22 ar  
    40   21   46 1   
    41   22   23 ar  
    42   22   47 1   
    43   23   24 ar  
    44   23   27 1   
    45   24   25 ar  
    46   24   30 1   
    47   25   26 1   
    48   26   48 1   
    49   26   49 1   
    50   26   50 1   
    51   27   28 1   
    52   28   29 1   
    53   28   51 1   
    54   28   52 1   
    55   29   30 1   
    56   29   53 1   
    57   29   54 1   
@<TRIPOS>SUBSTRUCTURE
     1 834         1 TEMP              0 ****  ****    0 ROOT
