@<TRIPOS>MOLECULE
839
   45    37     1     0     0
SMALL
bcc


@<TRIPOS>ATOM
      1 O5         -1.5370   -0.8130    5.3710 o         1 839     -0.550000
      2 C23        -1.3840   -1.8510    4.6580 c1        1 839      0.332000
      3 O4         -1.7670   -2.9850    5.0950 os        1 839     -0.597000
      4 C21        -0.6090   -1.7590    3.3100 c3        1 839     -0.260000
      5 C22        -1.6080   -1.4870    2.1560 c3        1 839     -0.016000
      6 N2         -0.9030   -1.5060    0.8960 n3        1 839     -0.159000
      7 C14        -0.3900   -0.4160    0.1890 c1        1 839      0.051500
      8 C16        -0.4350   -2.6700    0.2970 c1        1 839      0.051500
      9 C18        -0.6030   -4.0280    0.6240 c1        1 839     -0.132500
     10 C20         0.0300   -5.0030   -0.1250 c1        1 839     -0.132500
     11 C19         0.8300   -4.6450   -1.1980 c1        1 839      0.029000
     12 O3          1.1450   -5.1410   -2.4520 oh        1 839     -0.263000
     13 C17         0.9980   -3.2950   -1.5260 c1        1 839     -0.105000
     14 C15         0.3610   -2.3100   -0.7720 c1        1 839     -0.048500
     15 C13         0.3880   -0.9010   -0.8370 c1        1 839     -0.048500
     16 C4          0.9930    0.0040   -1.7660 c1        1 839     -0.119500
     17 C5          1.8560   -0.2310   -3.0200 c2        1 839      0.366000
     18 O1          2.2810   -1.2990   -3.4000 o         1 839     -0.321500
     19 C3          0.7970    1.3660   -1.6320 c1        1 839     -0.119500
     20 C6          1.4830    2.0620   -2.8210 c2        1 839      0.366000
     21 O2          1.4980    3.2660   -3.0390 o         1 839     -0.321500
     22 N1          2.1230    1.0470   -3.6220 n         1 839     -0.414000
     23 C2         -0.0040    1.8650   -0.5750 c1        1 839      0.007500
     24 C1         -0.5930    0.9820    0.3280 c1        1 839     -0.129000
     25 C7         -0.1390    3.2420   -0.3260 c1        1 839      0.007500
     26 C12         0.8460    3.9200    0.3900 c1        1 839     -0.132500
     27 C11         0.7070    5.2810    0.6450 c1        1 839     -0.132500
     28 C10        -0.4120    5.9620    0.1860 c1        1 839     -0.132500
     29 C9         -1.3970    5.2830   -0.5290 c1        1 839     -0.132500
     30 C8         -1.2580    3.9240   -0.7840 c1        1 839     -0.129000
     31 H211        0.0420   -1.0300    3.3570 hc        1 839      0.083500
     32 H212       -0.1390   -2.6090    3.1430 hc        1 839      0.083500
     33 H221       -2.0210   -0.6140    2.2830 h1        1 839      0.107000
     34 H222       -2.3040   -2.1820    2.1540 h1        1 839      0.107000
     35 H18        -1.1790   -4.2880    1.3960 ha        1 839      0.146667
     36 H20        -0.1310   -5.9470    0.0680 ha        1 839      0.146667
     37 HO3         1.0330   -6.0160   -2.4600 ho        1 839      0.208000
     38 H17         1.5690   -3.0400   -2.2910 ha        1 839      0.171000
     39 HN1         2.5740    1.1860   -4.4080 hn        1 839      0.249000
     40 H1         -1.1720    1.3210    1.0330 ha        1 839      0.148500
     41 H12         1.6270    3.4440    0.7090 ha        1 839      0.146667
     42 H11         1.4390    5.7740    1.0600 ha        1 839      0.146667
     43 H10        -0.5120    6.9340    0.3680 ha        1 839      0.146667
     44 H9         -2.1710    5.7540   -0.8460 ha        1 839      0.146667
     45 H8         -1.9500    3.4470   -1.2870 ha        1 839      0.148500
@<TRIPOS>BOND
     1    1    2 1   
     2    2    4 1   
     3    4    5 1   
     4    4   31 1   
     5    4   32 1   
     6    5    6 1   
     7    5   33 1   
     8    5   34 1   
     9    6    7 1   
    10    6    8 1   
    11    7   15 1   
    12    8   14 1   
    13    9   10 1   
    14    9   35 1   
    15   10   36 1   
    16   11   12 1   
    17   11   13 1   
    18   12   37 1   
    19   13   38 1   
    20   16   17 1   
    21   16   19 1   
    22   17   18 1   
    23   17   22 1   
    24   19   20 1   
    25   20   21 1   
    26   20   22 1   
    27   22   39 1   
    28   23   24 1   
    29   24   40 1   
    30   25   30 1   
    31   26   27 1   
    32   26   41 1   
    33   27   42 1   
    34   28   29 1   
    35   28   43 1   
    36   29   44 1   
    37   30   45 1   
@<TRIPOS>SUBSTRUCTURE
     1 839         1 TEMP              0 ****  ****    0 ROOT
