@<TRIPOS>MOLECULE
839
   45    49     1     0     0
SMALL
bcc


@<TRIPOS>ATOM
      1 O5          0.7050   -0.8380    0.2170 o         1 839     -0.835300
      2 C23         1.5260    0.1180    0.1290 c         1 839      0.915600
      3 O4          1.7420    0.9740    1.0280 o         1 839     -0.835300
      4 C21         2.3420    0.2460   -1.1810 c3        1 839     -0.231400
      5 C22         1.4290   -0.0670   -2.3530 c3        1 839      0.040300
      6 N2          2.0700   -0.1780   -3.6450 na        1 839     -0.050300
      7 C14         2.5900    0.8860   -4.3830 ca        1 839      0.031800
      8 C16         2.4870   -1.3740   -4.2580 ca        1 839     -0.011200
      9 C18         2.2550   -2.7050   -3.8780 ca        1 839     -0.118000
     10 C20         2.7480   -3.7200   -4.6860 ca        1 839     -0.122000
     11 C19         3.4680   -3.4180   -5.8610 ca        1 839      0.075100
     12 O3          3.9080   -4.5040   -6.5940 oh        1 839     -0.510100
     13 C17         3.7200   -2.1030   -6.2610 ca        1 839     -0.150000
     14 C15         3.2340   -1.0770   -5.4600 cp        1 839     -0.071000
     15 C13         3.3060    0.3650   -5.5540 cp        1 839     -0.025000
     16 C4          3.8520    1.2780   -6.4170 ca        1 839     -0.089600
     17 C5          4.6410    1.0860   -7.6750 c         1 839      0.730100
     18 O1          4.9810    0.0460   -8.2510 o         1 839     -0.605500
     19 C3          3.7280    2.6810   -6.1780 ca        1 839     -0.187600
     20 C6          4.4380    3.3840   -7.2890 c         1 839      0.732100
     21 O2          4.5900    4.5870   -7.5220 o         1 839     -0.596500
     22 N1          4.9640    2.3780   -8.1450 ns        1 839     -0.634500
     23 C2          3.0610    3.1740   -5.0570 cp        1 839      0.062000
     24 C1          2.4860    2.2590   -4.1530 ca        1 839     -0.153000
     25 C7          2.9280    4.6000   -4.7500 cp        1 839     -0.053000
     26 C12         3.1680    5.0470   -3.4410 ca        1 839     -0.096000
     27 C11         3.0100    6.3930   -3.1190 ca        1 839     -0.137500
     28 C10         2.6070    7.3050   -4.0950 ca        1 839     -0.126000
     29 C9          2.3680    6.8670   -5.3960 ca        1 839     -0.137500
     30 C8          2.5280    5.5220   -5.7260 ca        1 839     -0.096000
     31 H211        3.1910   -0.4790   -1.1250 hc        1 839      0.036700
     32 H212        2.7620    1.2770   -1.2620 hc        1 839      0.036700
     33 H221        0.6510    0.7460   -2.4400 h1        1 839      0.075700
     34 H222        0.8970   -1.0410   -2.1410 h1        1 839      0.075700
     35 H18         1.7020   -2.9390   -2.9560 ha        1 839      0.164000
     36 H20         2.5870   -4.7740   -4.4180 ha        1 839      0.146000
     37 HO3         4.4040   -4.1620   -7.3510 ho        1 839      0.414000
     38 H17         4.2870   -1.8740   -7.1770 ha        1 839      0.162000
     39 HN1         5.4930    2.5620   -8.9560 hn        1 839      0.336500
     40 H1          1.9600    2.6300   -3.2580 ha        1 839      0.168000
     41 H12         3.4820    4.3290   -2.6670 ha        1 839      0.145000
     42 H11         3.2010    6.7330   -2.0910 ha        1 839      0.129500
     43 H10         2.4800    8.3660   -3.8370 ha        1 839      0.123000
     44 H9          2.0550    7.5830   -6.1700 ha        1 839      0.129500
     45 H8          2.3610    5.1840   -6.7600 ha        1 839      0.145000
@<TRIPOS>BOND
     1    1    2 1   
     2    2    3 1   
     3    2    4 1   
     4    4    5 1   
     5    4   31 1   
     6    4   32 1   
     7    5    6 1   
     8    5   33 1   
     9    5   34 1   
    10    6    7 1   
    11    6    8 1   
    12    7   15 ar  
    13    7   24 ar  
    14    8    9 ar  
    15    8   14 ar  
    16    9   10 ar  
    17    9   35 1   
    18   10   11 ar  
    19   10   36 1   
    20   11   12 1   
    21   11   13 ar  
    22   12   37 1   
    23   13   14 ar  
    24   13   38 1   
    25   14   15 1   
    26   15   16 ar  
    27   16   17 1   
    28   16   19 ar  
    29   17   18 2   
    30   17   22 1   
    31   19   20 1   
    32   19   23 ar  
    33   20   21 2   
    34   20   22 1   
    35   22   39 1   
    36   23   24 ar  
    37   23   25 1   
    38   24   40 1   
    39   25   26 ar  
    40   25   30 ar  
    41   26   27 ar  
    42   26   41 1   
    43   27   28 ar  
    44   27   42 1   
    45   28   29 ar  
    46   28   43 1   
    47   29   30 ar  
    48   29   44 1   
    49   30   45 1   
@<TRIPOS>SUBSTRUCTURE
     1 839         1 TEMP              0 ****  ****    0 ROOT
