@<TRIPOS>MOLECULE
839
   45    49     1     0     0
SMALL
bcc


@<TRIPOS>ATOM
      1 O5          2.1200   -5.1390   -3.0140 o         1 839     -0.835300
      2 C23         2.3530   -5.9400   -2.0650 c         1 839      0.915600
      3 O4          3.0780   -6.9680   -2.1460 o         1 839     -0.835300
      4 C21         1.7080   -5.6330   -0.6920 c3        1 839     -0.231400
      5 C22         0.2920   -5.1360   -0.9200 c3        1 839      0.040300
      6 N2         -0.3970   -4.6240    0.2430 na        1 839     -0.050300
      7 C14        -0.8800   -5.3960    1.3010 ca        1 839      0.031800
      8 C16        -0.4860   -3.2710    0.6200 ca        1 839     -0.011200
      9 C18        -0.0980   -2.1180   -0.0780 ca        1 839     -0.118000
     10 C20        -0.3330   -0.8800    0.5040 ca        1 839     -0.122000
     11 C19        -0.9460   -0.7860    1.7700 ca        1 839      0.075100
     12 O3         -1.1370    0.4950    2.2540 oh        1 839     -0.510100
     13 C17        -1.3370   -1.9170    2.4920 ca        1 839     -0.150000
     14 C15        -1.1070   -3.1630    1.9220 cp        1 839     -0.071000
     15 C13        -1.3650   -4.5150    2.3690 cp        1 839     -0.025000
     16 C4         -1.9130   -5.1060    3.4760 ca        1 839     -0.089600
     17 C5         -2.4810   -4.5090    4.7260 c         1 839      0.730100
     18 O1         -2.6060   -3.3250    5.0570 o         1 839     -0.605500
     19 C3         -2.0020   -6.5290    3.5800 ca        1 839     -0.187600
     20 C6         -2.6300   -6.8380    4.9000 c         1 839      0.732100
     21 O2         -2.9230   -7.9150    5.4280 o         1 839     -0.596500
     22 N1         -2.8880   -5.5930    5.5360 n         1 839     -0.634500
     23 C2         -1.5260   -7.3650    2.5720 cp        1 839      0.062000
     24 C1         -0.9600   -6.7850    1.4190 ca        1 839     -0.153000
     25 C7         -1.5670   -8.8280    2.6400 cp        1 839     -0.053000
     26 C12        -0.4290   -9.5660    2.2740 ca        1 839     -0.096000
     27 C11        -0.4590  -10.9580    2.2960 ca        1 839     -0.137500
     28 C10        -1.6220  -11.6290    2.6750 ca        1 839     -0.126000
     29 C9         -2.7540  -10.9020    3.0400 ca        1 839     -0.137500
     30 C8         -2.7290   -9.5080    3.0250 ca        1 839     -0.096000
     31 H211        2.3340   -4.8560   -0.1890 hc        1 839      0.036700
     32 H212        1.7140   -6.5540   -0.0600 hc        1 839      0.036700
     33 H221       -0.3330   -5.9810   -1.3290 h1        1 839      0.075700
     34 H222        0.3240   -4.3160   -1.6980 h1        1 839      0.075700
     35 H18         0.3910   -2.1920   -1.0620 ha        1 839      0.164000
     36 H20        -0.0390    0.0440   -0.0140 ha        1 839      0.146000
     37 HO3        -1.5390    0.4160    3.1310 ho        1 839      0.414000
     38 H17        -1.8120   -1.8370    3.4830 ha        1 839      0.162000
     39 HN1        -3.2910   -5.5000    6.4320 hn        1 839      0.336500
     40 H1         -0.5720   -7.4310    0.6140 ha        1 839      0.168000
     41 H12         0.4890   -9.0400    1.9690 ha        1 839      0.145000
     42 H11         0.4370  -11.5270    2.0080 ha        1 839      0.129500
     43 H10        -1.6440  -12.7280    2.6880 ha        1 839      0.123000
     44 H9         -3.6710  -11.4260    3.3450 ha        1 839      0.129500
     45 H8         -3.6170   -8.9380    3.3360 ha        1 839      0.145000
@<TRIPOS>BOND
     1    1    2 1   
     2    2    3 1   
     3    2    4 1   
     4    4    5 1   
     5    4   31 1   
     6    4   32 1   
     7    5    6 1   
     8    5   33 1   
     9    5   34 1   
    10    6    7 1   
    11    6    8 1   
    12    7   15 ar  
    13    7   24 ar  
    14    8    9 ar  
    15    8   14 ar  
    16    9   10 ar  
    17    9   35 1   
    18   10   11 ar  
    19   10   36 1   
    20   11   12 1   
    21   11   13 ar  
    22   12   37 1   
    23   13   14 ar  
    24   13   38 1   
    25   14   15 1   
    26   15   16 ar  
    27   16   17 1   
    28   16   19 ar  
    29   17   18 2   
    30   17   22 1   
    31   19   20 1   
    32   19   23 ar  
    33   20   21 2   
    34   20   22 1   
    35   22   39 1   
    36   23   24 ar  
    37   23   25 1   
    38   24   40 1   
    39   25   26 ar  
    40   25   30 ar  
    41   26   27 ar  
    42   26   41 1   
    43   27   28 ar  
    44   27   42 1   
    45   28   29 ar  
    46   28   43 1   
    47   29   30 ar  
    48   29   44 1   
    49   30   45 1   
@<TRIPOS>SUBSTRUCTURE
     1 839         1 TEMP              0 ****  ****    0 ROOT
