@<TRIPOS>MOLECULE
839
   45    49     1     0     0
SMALL
bcc


@<TRIPOS>ATOM
      1 O5          0.7460   -0.8250    0.2420 o         1 839     -0.835300
      2 C23         1.5660    0.1320    0.1440 c         1 839      0.915600
      3 O4          1.7880    0.9900    1.0390 o         1 839     -0.835300
      4 C21         2.3700    0.2560   -1.1720 c3        1 839     -0.231400
      5 C22         1.4480   -0.0620   -2.3370 c3        1 839      0.040300
      6 N2          2.0790   -0.1760   -3.6330 na        1 839     -0.050300
      7 C14         2.5920    0.8860   -4.3780 ca        1 839      0.031800
      8 C16         2.4920   -1.3740   -4.2460 ca        1 839     -0.011200
      9 C18         2.2640   -2.7040   -3.8600 ca        1 839     -0.118000
     10 C20         2.7530   -3.7200   -4.6690 ca        1 839     -0.122000
     11 C19         3.4620   -3.4220   -5.8510 ca        1 839      0.075100
     12 O3          3.8980   -4.5100   -6.5840 oh        1 839     -0.510100
     13 C17         3.7100   -2.1070   -6.2560 ca        1 839     -0.150000
     14 C15         3.2290   -1.0800   -5.4550 cp        1 839     -0.071000
     15 C13         3.2990    0.3620   -5.5530 cp        1 839     -0.025000
     16 C4          3.8370    1.2730   -6.4240 ca        1 839     -0.089600
     17 C5          4.6160    1.0780   -7.6880 c         1 839      0.730100
     18 O1          4.9520    0.0370   -8.2630 o         1 839     -0.605500
     19 C3          3.7120    2.6770   -6.1880 ca        1 839     -0.187600
     20 C6          4.4130    3.3770   -7.3070 c         1 839      0.732100
     21 O2          4.5620    4.5800   -7.5450 o         1 839     -0.596500
     22 N1          4.9330    2.3690   -8.1640 n         1 839     -0.634500
     23 C2          3.0540    3.1720   -5.0640 cp        1 839      0.062000
     24 C1          2.4880    2.2590   -4.1520 ca        1 839     -0.153000
     25 C7          2.9220    4.5990   -4.7600 cp        1 839     -0.053000
     26 C12         3.1720    5.0500   -3.4540 ca        1 839     -0.096000
     27 C11         3.0160    6.3970   -3.1350 ca        1 839     -0.137500
     28 C10         2.6040    7.3060   -4.1100 ca        1 839     -0.126000
     29 C9          2.3540    6.8640   -5.4080 ca        1 839     -0.137500
     30 C8          2.5140    5.5180   -5.7350 ca        1 839     -0.096000
     31 H211        3.2210   -0.4670   -1.1210 hc        1 839      0.036700
     32 H212        2.7880    1.2880   -1.2610 hc        1 839      0.036700
     33 H221        0.6690    0.7490   -2.4200 h1        1 839      0.075700
     34 H222        0.9200   -1.0360   -2.1160 h1        1 839      0.075700
     35 H18         1.7200   -2.9360   -2.9320 ha        1 839      0.164000
     36 H20         2.5950   -4.7740   -4.3960 ha        1 839      0.146000
     37 HO3         4.3870   -4.1690   -7.3460 ho        1 839      0.414000
     38 H17         4.2690   -1.8810   -7.1780 ha        1 839      0.162000
     39 HN1         5.4550    2.5510   -8.9810 hn        1 839      0.336500
     40 H1          1.9690    2.6320   -3.2540 ha        1 839      0.168000
     41 H12         3.4930    4.3350   -2.6800 ha        1 839      0.145000
     42 H11         3.2150    6.7400   -2.1090 ha        1 839      0.129500
     43 H10         2.4770    8.3670   -3.8550 ha        1 839      0.123000
     44 H9          2.0340    7.5770   -6.1810 ha        1 839      0.129500
     45 H8          2.3380    5.1770   -6.7660 ha        1 839      0.145000
@<TRIPOS>BOND
     1    1    2 1   
     2    2    3 1   
     3    2    4 1   
     4    4    5 1   
     5    4   31 1   
     6    4   32 1   
     7    5    6 1   
     8    5   33 1   
     9    5   34 1   
    10    6    7 1   
    11    6    8 1   
    12    7   15 ar  
    13    7   24 ar  
    14    8    9 ar  
    15    8   14 ar  
    16    9   10 ar  
    17    9   35 1   
    18   10   11 ar  
    19   10   36 1   
    20   11   12 1   
    21   11   13 ar  
    22   12   37 1   
    23   13   14 ar  
    24   13   38 1   
    25   14   15 1   
    26   15   16 ar  
    27   16   17 1   
    28   16   19 ar  
    29   17   18 2   
    30   17   22 1   
    31   19   20 1   
    32   19   23 ar  
    33   20   21 2   
    34   20   22 1   
    35   22   39 1   
    36   23   24 ar  
    37   23   25 1   
    38   24   40 1   
    39   25   26 ar  
    40   25   30 ar  
    41   26   27 ar  
    42   26   41 1   
    43   27   28 ar  
    44   27   42 1   
    45   28   29 ar  
    46   28   43 1   
    47   29   30 ar  
    48   29   44 1   
    49   30   45 1   
@<TRIPOS>SUBSTRUCTURE
     1 839         1 TEMP              0 ****  ****    0 ROOT
