@<TRIPOS>MOLECULE
83H
   50    53     1     0     0
SMALL
bcc


@<TRIPOS>ATOM
      1 C4         -0.1000   -0.2640    0.1720 c2        1 83H      0.055000
      2 C5          1.3440   -0.2490    0.2180 c2        1 83H     -0.224000
      3 C6          2.0780   -0.3450    1.3990 c1        1 83H     -0.040000
      4 C7          3.1970   -0.0440   -1.5650 c3        1 83H     -0.114000
      5 C8          0.6410   -0.0930   -1.9620 c2        1 83H     -0.053000
      6 C9          1.7900   -0.1260   -1.1510 c2        1 83H      0.022000
      7 C10         0.5820   -0.0010   -3.3930 c2        1 83H     -0.005000
      8 C11         1.6420    0.0120   -4.3220 c2        1 83H     -0.143000
      9 C12         3.0900   -0.0420   -4.0980 c3        1 83H     -0.090000
     10 C15         0.9940    0.1170   -5.6210 c2        1 83H     -0.111000
     11 C23         0.5980    0.0700    4.7330 c2        1 83H      0.309000
     12 N16         1.7000   -0.2130    3.9160 n         1 83H     -0.265000
     13 C27         3.0240   -0.0720    4.3380 c2        1 83H     -0.024000
     14 C28         4.1290   -0.2620    3.6040 c2        1 83H     -0.278000
     15 C17        -0.7200   -0.1430    3.9390 c3        1 83H     -0.041000
     16 C26        -1.4480   -1.3490    4.5010 c3        1 83H     -0.199500
     17 C25        -1.5770    1.1030    4.0430 c3        1 83H     -0.199500
     18 C2         -0.2210   -0.3830    2.5430 c2        1 83H     -0.069000
     19 C3         -0.8890   -0.2630    1.3790 c2        1 83H     -0.145000
     20 C1          1.2730   -0.6810    2.6030 c3        1 83H      0.008000
     21 N7         -0.5070   -0.1780   -1.1330 na        1 83H     -0.151000
     22 C47         3.5070   -0.7890   -2.8480 c3        1 83H     -0.154000
     23 C48         1.7020    0.1580   -6.9140 c3        1 83H     -0.147000
     24 N14        -0.3600    0.1660   -5.4600 n2        1 83H     -0.070000
     25 N13        -0.6000    0.0820   -4.1540 na        1 83H     -0.176000
     26 H6          1.3750   -1.8280    2.5890 h1        1 83H      0.147000
     27 H7          3.4740    1.0420   -1.6790 hc        1 83H      0.114000
     28 H7A         3.8320   -0.4560   -0.7310 hc        1 83H      0.114000
     29 H12         3.4900    1.0100   -4.0570 hc        1 83H      0.092000
     30 H12A        3.5680   -0.5380   -4.9890 hc        1 83H      0.092000
     31 H27         6.3990   -0.2400    2.1120 ha        1 83H      0.000000
     32 H27A        6.9890   -0.2390    1.7790 ha        1 83H      0.000000
     33 H28         3.0770    0.2270    5.4060 h4        1 83H      0.152000
     34 H28A        5.1170   -0.1280    4.0610 ha        1 83H      0.138500
     35 H28B        4.1190   -0.5320    2.5380 ha        1 83H      0.138500
     36 H26        -0.8250   -2.2700    4.3970 hc        1 83H      0.090667
     37 H26A       -1.6670   -1.1830    5.5840 hc        1 83H      0.090667
     38 H26B       -2.4100   -1.5020    3.9550 hc        1 83H      0.090667
     39 H25        -2.5470    0.9440    3.5140 hc        1 83H      0.090667
     40 H25A       -1.0570    1.9780    3.5870 hc        1 83H      0.090667
     41 H25B       -1.7780    1.3270    5.1200 hc        1 83H      0.090667
     42 H3         -1.9740   -0.0930    1.3300 ha        1 83H      0.144000
     43 HN7        -1.4410   -0.1770   -1.4520 hn        1 83H      0.248000
     44 H47         3.0180   -1.7980   -2.8290 hc        1 83H      0.089500
     45 H47A        4.6170   -0.9550   -2.8950 hc        1 83H      0.089500
     46 H48         2.2410   -0.8100   -7.0740 hc        1 83H      0.091000
     47 H48A        1.0030    0.3230   -7.7700 hc        1 83H      0.091000
     48 H48B        2.4550    0.9850   -6.9010 hc        1 83H      0.091000
     49 HN13       -1.5270    0.1710   -3.8170 hn        1 83H      0.263000
     50 O24         0.6640    0.4280    5.9150 o         1 83H     -0.331000
@<TRIPOS>BOND
     1    1    2 1   
     2    1   19 1   
     3    1   21 1   
     4    2    3 1   
     5    2    6 1   
     6    3   20 1   
     7    4    6 1   
     8    4   22 1   
     9    4   27 1   
    10    4   28 1   
    11    5    6 1   
    12    5    7 1   
    13    5   21 1   
    14    7    8 1   
    15    7   25 1   
    16    8    9 1   
    17    8   10 1   
    18    9   22 1   
    19    9   29 1   
    20    9   30 1   
    21   10   23 1   
    22   10   24 1   
    23   11   12 1   
    24   11   15 1   
    25   11   50 1   
    26   12   13 1   
    27   12   20 1   
    28   13   14 1   
    29   13   33 1   
    30   14   34 1   
    31   14   35 1   
    32   15   16 1   
    33   15   17 1   
    34   15   18 1   
    35   16   36 1   
    36   16   37 1   
    37   16   38 1   
    38   17   39 1   
    39   17   40 1   
    40   17   41 1   
    41   18   19 1   
    42   18   20 1   
    43   19   42 1   
    44   20   26 1   
    45   21   43 1   
    46   22   44 1   
    47   22   45 1   
    48   23   46 1   
    49   23   47 1   
    50   23   48 1   
    51   24   25 1   
    52   25   49 1   
    53   31   32 1   
@<TRIPOS>SUBSTRUCTURE
     1 83H         1 TEMP              0 ****  ****    0 ROOT
