@<TRIPOS>MOLECULE
83H
   50    45     1     0     0
SMALL
bcc


@<TRIPOS>ATOM
      1 C4         -1.1820   -0.8660   -0.2470 c1        1 83H     -0.040000
      2 C5         -0.0060   -0.1790   -0.2910 c1        1 83H     -0.040000
      3 C6          0.6290    0.2560    0.9380 c1        1 83H     -0.123000
      4 C7          0.5170    1.6530   -1.9000 c3        1 83H     -0.095000
      5 C8         -0.8760   -0.1240   -2.3380 c2        1 83H      0.025000
      6 C9          0.1760    0.2810   -1.6040 c1        1 83H     -0.099000
      7 C10        -0.4560   -0.3530   -3.9900 c2        1 83H     -0.017000
      8 C11         1.0380   -0.0460   -4.2770 c1        1 83H     -0.140000
      9 C12         1.7540    0.3810   -3.0660 c2        1 83H     -0.089000
     10 C15         1.2090   -0.0610   -5.6170 c1        1 83H     -0.112000
     11 O24        -0.5110   -0.1050    5.7310 o         1 83H     -0.328000
     12 C23        -0.5370   -0.2340    4.4750 c1        1 83H      0.309000
     13 N16         0.5430    0.0730    3.5710 n2        1 83H     -0.281000
     14 C27         1.8320    0.5370    3.9400 c3        1 83H     -0.014000
     15 C28         2.4740   -0.4570    5.0100 c3        1 83H     -0.240000
     16 C17        -1.7610   -0.5770    3.6410 c3        1 83H     -0.022000
     17 C26        -2.9490    0.4770    3.6760 c3        1 83H     -0.197500
     18 C25        -2.5410   -1.8660    4.0580 c3        1 83H     -0.197500
     19 C2         -1.1770   -0.7350    2.2360 c2        1 83H     -0.106000
     20 C3         -1.8000   -1.1630    1.0190 c1        1 83H     -0.089000
     21 C1          0.0250   -0.0330    2.1910 c2        1 83H      0.048000
     22 N7         -1.7340   -0.8420   -1.5090 n1        1 83H     -0.201000
     23 C47         1.3750    1.6920   -2.6940 c3        1 83H     -0.154000
     24 C48         1.9270    0.3920   -6.9000 c2        1 83H     -0.146000
     25 N14        -0.0650   -0.3550   -6.2280 n2        1 83H     -0.070000
     26 N13        -1.0650   -0.5270   -5.1560 n2        1 83H     -0.166000
     27 H6          1.5260    0.6970    0.9050 ha        1 83H      0.145000
     28 H7         -0.2540    2.1050   -2.2450 hc        1 83H      0.090500
     29 H7A         0.8330    2.1270   -1.0210 hc        1 83H      0.090500
     30 H12         1.5490   -0.2120   -2.3610 ha        1 83H      0.091000
     31 H12A        2.7580    0.3560   -3.2430 ha        1 83H      0.091000
     32 H27         1.7580    1.4320    4.3300 h1        1 83H      0.101000
     33 H27A        2.4160    0.5760    3.1230 h1        1 83H      0.101000
     34 H28         2.0870   -1.3450    4.9020 hc        1 83H      0.084000
     35 H28A        2.2830   -0.1150    5.9500 hc        1 83H      0.084000
     36 H28B        3.4750   -0.5060    4.8670 hc        1 83H      0.084000
     37 H26        -3.7320    0.1180    3.1490 hc        1 83H      0.088667
     38 H26A       -3.2150    0.6260    4.5730 hc        1 83H      0.088667
     39 H26B       -2.6440    1.3330    3.2760 hc        1 83H      0.088667
     40 H25        -2.9740   -1.7180    4.9260 hc        1 83H      0.088667
     41 H25A       -1.9130   -2.6200    4.1280 hc        1 83H      0.088667
     42 H25B       -3.2120   -2.0660    3.3930 hc        1 83H      0.088667
     43 H3         -2.6310   -1.7560    1.0520 ha        1 83H      0.141000
     44 HN7        -2.4780   -1.3190   -1.7830 DU        1 83H      0.250500
     45 H47         1.0620    2.1720   -3.4820 hc        1 83H      0.088500
     46 H47A        2.1360    2.1560   -2.3190 hc        1 83H      0.088500
     47 H48         1.6640   -0.1960   -7.6500 ha        1 83H      0.090333
     48 H48A        1.6730    1.3200   -7.1060 ha        1 83H      0.090333
     49 H48B        2.9370    0.3370   -6.7620 ha        1 83H      0.090333
     50 HN13       -1.9420   -0.7180   -5.2740 DU        1 83H      0.250500
@<TRIPOS>BOND
     1    1    2 1   
     2    3   21 1   
     3    3   27 1   
     4    4    6 1   
     5    4   23 1   
     6    4   28 1   
     7    4   29 1   
     8    5    6 1   
     9    5    7 1   
    10    5   22 1   
    11    7    8 1   
    12    7   26 1   
    13    8   10 1   
    14    9   23 1   
    15    9   30 1   
    16    9   31 1   
    17   10   25 1   
    18   11   12 1   
    19   12   16 1   
    20   13   14 1   
    21   13   21 1   
    22   14   15 1   
    23   14   32 1   
    24   14   33 1   
    25   15   34 1   
    26   15   35 1   
    27   15   36 1   
    28   16   17 1   
    29   16   18 1   
    30   16   19 1   
    31   17   37 1   
    32   17   38 1   
    33   17   39 1   
    34   18   40 1   
    35   18   41 1   
    36   18   42 1   
    37   19   20 1   
    38   19   21 1   
    39   20   43 1   
    40   23   45 1   
    41   23   46 1   
    42   24   47 1   
    43   24   48 1   
    44   24   49 1   
    45   25   26 1   
@<TRIPOS>SUBSTRUCTURE
     1 83H         1 TEMP              0 ****  ****    0 ROOT
