@<TRIPOS>MOLECULE
83H
   50    51     1     0     0
SMALL
bcc


@<TRIPOS>ATOM
      1 C4          0.3040   -0.2190    0.2860 c2        1 83H      0.052000
      2 C5          1.7250    0.0290    0.4210 c2        1 83H     -0.235000
      3 C6          2.3820    0.0890    1.6480 c1        1 83H     -0.045000
      4 C7          3.6490    0.4620   -1.2270 c3        1 83H     -0.119000
      5 C8          1.1440    0.0600   -1.7980 c2        1 83H     -0.096000
      6 C9          2.2320    0.2040   -0.9220 c2        1 83H      0.031000
      7 C10         1.0740    0.1310   -3.2710 c2        1 83H      0.177000
      8 C11         2.0630    0.9680   -3.8750 c1        1 83H     -0.190000
      9 C12         2.8630    1.6790   -4.4090 c1        1 83H     -0.147000
     10 C15         0.0880   -0.2220   -8.7840 c1        1 83H     -0.131000
     11 C23         0.6650    0.2650    4.8750 c2        1 83H      0.306000
     12 N16         1.8240    0.2100    4.1070 n         1 83H     -0.307000
     13 C27         3.1590    0.4090    4.5900 c3        1 83H     -0.011000
     14 C28         3.8250   -0.8180    5.1960 c3        1 83H     -0.239000
     15 C17        -0.5610   -0.1540    4.0110 c3        1 83H     -0.044000
     16 C26        -1.1290   -1.4520    4.5540 c3        1 83H     -0.198000
     17 C25        -1.6010    0.9470    4.0430 c3        1 83H     -0.198000
     18 C2          0.0470   -0.3290    2.6470 c2        1 83H     -0.066000
     19 C3         -0.5530   -0.3300    1.4430 c2        1 83H     -0.145000
     20 C1          1.5630   -0.3750    2.7990 c3        1 83H      0.004000
     21 N7         -0.0250   -0.2020   -1.0380 na        1 83H     -0.121000
     22 C47         4.3570   -0.7680   -1.7490 c3        1 83H     -0.203000
     23 C48        -0.0650   -0.3560  -10.2080 c3        1 83H     -0.138000
     24 N14         0.2120   -0.1140   -7.6320 n1        1 83H     -0.068000
     25 N13         0.1530   -0.5120   -3.9080 n2        1 83H     -0.245000
     26 H6          1.8570   -1.4870    2.8280 h1        1 83H      0.134000
     27 H7          4.1560    0.8090   -0.2830 hc        1 83H      0.106500
     28 H7A         3.7280    1.2890   -1.9850 hc        1 83H      0.106500
     29 H12         5.4290   -0.5280   -1.9510 hc        1 83H      0.076000
     30 H12A        3.5770    2.3090   -4.8780 ha        1 83H      0.228000
     31 H27         4.8570   -0.5390    5.5200 hc        1 83H      0.079000
     32 H27A        3.7780    0.7710    3.7160 h1        1 83H      0.111500
     33 H28         3.1130    1.2210    5.3720 h1        1 83H      0.111500
     34 H28A        3.2600   -1.1860    6.0850 hc        1 83H      0.079000
     35 H28B        3.8990   -1.6460    4.4510 hc        1 83H      0.079000
     36 H26        -0.3700   -2.2680    4.4970 hc        1 83H      0.088833
     37 H26A       -2.0260   -1.7520    3.9630 hc        1 83H      0.088833
     38 H26B       -1.4260   -1.3110    5.6220 hc        1 83H      0.088833
     39 H25        -2.5020    0.6400    3.4600 hc        1 83H      0.088833
     40 H25A       -1.1910    1.8880    3.6040 hc        1 83H      0.088833
     41 H25B       -1.8990    1.1460    5.1020 hc        1 83H      0.088833
     42 H3         -1.6450   -0.3390    1.3190 ha        1 83H      0.144000
     43 HN7        -0.9170   -0.3700   -1.4330 hn        1 83H      0.268000
     44 H47         3.8860   -1.1230   -2.6970 hc        1 83H      0.076000
     45 H47A        4.3140   -1.5950   -1.0000 hc        1 83H      0.076000
     46 H48         0.8360   -0.8570  -10.6470 hc        1 83H      0.112333
     47 H48A       -0.1840    0.6530  -10.6800 hc        1 83H      0.112333
     48 H48B       -0.9710   -0.9730  -10.4420 hc        1 83H      0.112333
     49 HN13        0.1530   -0.4190   -4.9010 hn        1 83H      0.177000
     50 O24         0.6060    0.6200    6.0610 o         1 83H     -0.346000
@<TRIPOS>BOND
     1    1    2 1   
     2    1   19 1   
     3    1   21 1   
     4    2    3 1   
     5    2    6 1   
     6    3   20 1   
     7    4    6 1   
     8    4   22 1   
     9    4   27 1   
    10    4   28 1   
    11    5    6 1   
    12    5    7 1   
    13    5   21 1   
    14    7    8 1   
    15    7   25 1   
    16    8    9 1   
    17    9   30 1   
    18   10   23 1   
    19   10   24 1   
    20   11   12 1   
    21   11   15 1   
    22   11   50 1   
    23   12   13 1   
    24   12   20 1   
    25   13   14 1   
    26   13   32 1   
    27   13   33 1   
    28   14   31 1   
    29   14   34 1   
    30   14   35 1   
    31   15   16 1   
    32   15   17 1   
    33   15   18 1   
    34   16   36 1   
    35   16   37 1   
    36   16   38 1   
    37   17   39 1   
    38   17   40 1   
    39   17   41 1   
    40   18   19 1   
    41   18   20 1   
    42   19   42 1   
    43   20   26 1   
    44   21   43 1   
    45   22   29 1   
    46   22   44 1   
    47   22   45 1   
    48   23   46 1   
    49   23   47 1   
    50   23   48 1   
    51   25   49 1   
@<TRIPOS>SUBSTRUCTURE
     1 83H         1 TEMP              0 ****  ****    0 ROOT
