@<TRIPOS>MOLECULE
83H
   50    54     1     0     0
SMALL
bcc


@<TRIPOS>ATOM
      1 C4          0.1640    1.0830   -0.0200 ca        1 83H     -0.074200
      2 C5          0.1080   -0.3460   -0.2010 ca        1 83H     -0.060800
      3 C6          1.2820   -1.1020   -0.3040 ca        1 83H     -0.123000
      4 C7         -1.8230   -2.0650   -0.4110 c3        1 83H     -0.012200
      5 C8         -2.0250    0.4820   -0.0880 cc        1 83H      0.005700
      6 C9         -1.2950   -0.7050   -0.2370 cd        1 83H     -0.093400
      7 C10        -3.4570    0.6160   -0.0690 cc        1 83H     -0.052100
      8 C11        -4.4470   -0.3860   -0.0310 cd        1 83H     -0.211600
      9 C12        -4.3210   -1.8460   -0.0320 c3        1 83H     -0.002100
     10 C15        -5.7080    0.3430   -0.0190 cd        1 83H      0.307600
     11 C23         4.7360    0.1040   -0.1260 c         1 83H      0.702500
     12 N16         3.7980   -0.9330   -0.3110 n         1 83H     -0.378000
     13 C27         4.1190   -2.3310   -0.3560 c3        1 83H      0.102000
     14 C28         3.8980   -3.0990    0.9390 c3        1 83H     -0.122100
     15 C17         3.9760    1.4520    0.0350 c3        1 83H     -0.064700
     16 C26         4.3320    2.0720    1.3710 c3        1 83H     -0.079600
     17 C25         4.3430    2.3740   -1.1100 c3        1 83H     -0.079600
     18 C2          2.5330    1.0140   -0.0260 ca        1 83H     -0.114300
     19 C3          1.3900    1.7710    0.0710 ca        1 83H     -0.088000
     20 C1          2.4860   -0.4170   -0.2160 ca        1 83H      0.041600
     21 N7         -1.1460    1.5890   -0.0200 na        1 83H     -0.176400
     22 C47        -3.0020   -2.3730    0.4940 c3        1 83H     -0.075400
     23 C48        -7.0410   -0.2840    0.0370 c3        1 83H     -0.122400
     24 N14        -5.4670    1.6850   -0.0560 nc        1 83H     -0.500800
     25 N13        -4.1460    1.8460   -0.0510 na        1 83H     -0.022600
     26 H6          1.2390   -2.1900   -0.4500 ha        1 83H      0.145000
     27 H7         -2.1230   -2.2120   -1.4860 hc        1 83H      0.052200
     28 H7A        -1.0000   -2.8010   -0.1960 hc        1 83H      0.052200
     29 H12        -5.1530   -2.2750    0.5950 hc        1 83H      0.051200
     30 H12A       -4.4810   -2.2200   -1.0820 hc        1 83H      0.051200
     31 H27         3.4940   -2.8030   -1.1690 h1        1 83H      0.061700
     32 H27A        5.2070   -2.4110   -0.6500 h1        1 83H      0.061700
     33 H28         4.5370   -2.6960    1.7600 hc        1 83H      0.044700
     34 H28A        2.8310   -3.0460    1.2600 hc        1 83H      0.044700
     35 H28B        4.1690   -4.1690    0.7690 hc        1 83H      0.044700
     36 H26         5.4340    2.2530    1.4200 hc        1 83H      0.049367
     37 H26A        3.7970    3.0450    1.4900 hc        1 83H      0.049367
     38 H26B        4.0410    1.3970    2.2100 hc        1 83H      0.049367
     39 H25         4.0620    1.9170   -2.0890 hc        1 83H      0.049367
     40 H25A        3.8040    3.3460   -1.0000 hc        1 83H      0.049367
     41 H25B        5.4440    2.5630   -1.1030 hc        1 83H      0.049367
     42 H3          1.4310    2.8590    0.2090 ha        1 83H      0.141000
     43 HN7        -1.3830    2.4280    0.4440 hn        1 83H      0.283700
     44 H47        -3.0890   -3.4890    0.5930 hc        1 83H      0.048200
     45 H47A       -2.8100   -1.9600    1.5180 hc        1 83H      0.048200
     46 H48        -7.1650   -0.8120    1.0160 hc        1 83H      0.051033
     47 H48A       -7.8630    0.4650   -0.0720 hc        1 83H      0.051033
     48 H48B       -7.1310   -1.0380   -0.7850 hc        1 83H      0.051033
     49 HN13       -3.7580    2.7380   -0.2500 hn        1 83H      0.317700
     50 O24         5.9610   -0.0530   -0.1220 o         1 83H     -0.603500
@<TRIPOS>BOND
     1    1    2 ar  
     2    1   19 ar  
     3    1   21 1   
     4    2    3 ar  
     5    2    6 1   
     6    3   20 ar  
     7    3   26 1   
     8    4    6 1   
     9    4   22 1   
    10    4   27 1   
    11    4   28 1   
    12    5    6 2   
    13    5    7 1   
    14    5   21 1   
    15    7    8 2   
    16    7   25 1   
    17    8    9 1   
    18    8   10 1   
    19    9   22 1   
    20    9   29 1   
    21    9   30 1   
    22   10   23 1   
    23   10   24 2   
    24   11   12 1   
    25   11   15 1   
    26   11   50 2   
    27   12   13 1   
    28   12   20 1   
    29   13   14 1   
    30   13   31 1   
    31   13   32 1   
    32   14   33 1   
    33   14   34 1   
    34   14   35 1   
    35   15   16 1   
    36   15   17 1   
    37   15   18 1   
    38   16   36 1   
    39   16   37 1   
    40   16   38 1   
    41   17   39 1   
    42   17   40 1   
    43   17   41 1   
    44   18   19 ar  
    45   18   20 ar  
    46   19   42 1   
    47   21   43 1   
    48   22   44 1   
    49   22   45 1   
    50   23   46 1   
    51   23   47 1   
    52   23   48 1   
    53   24   25 1   
    54   25   49 1   
@<TRIPOS>SUBSTRUCTURE
     1 83H         1 TEMP              0 ****  ****    0 ROOT
