@<TRIPOS>MOLECULE
83T
   63    65     1     0     0
SMALL
bcc


@<TRIPOS>ATOM
      1 C01        -0.4630    2.2850   -0.4390 c3        1 83T      0.075100
      2 N05         1.0000    2.0680   -0.3710 n4        1 83T     -0.762000
      3 C07         1.3670    0.9800    0.5990 c3        1 83T      0.169100
      4 C10         2.8430    0.7880    0.6700 ca        1 83T     -0.187300
      5 C11         3.6110    1.5680    1.5440 ca        1 83T     -0.090000
      6 C13         4.9820    1.3570    1.6490 ca        1 83T     -0.115500
      7 C15         5.6090    0.3590    0.8860 cp        1 83T      0.013000
      8 C16         4.8340   -0.4240    0.0170 ca        1 83T     -0.115500
      9 C18         3.4620   -0.2100   -0.0920 ca        1 83T     -0.090000
     10 C20         7.0530    0.1520    0.9870 cp        1 83T     -0.094000
     11 C21         7.9200    1.2600    1.0400 ca        1 83T     -0.038000
     12 C23         9.2930    1.0970    1.1080 ca        1 83T     -0.177000
     13 C25         9.8680   -0.1990    1.1490 ca        1 83T      0.133600
     14 N26        11.2450   -0.4180    1.2680 n         1 83T     -0.410000
     15 C27        11.8350   -1.5420    0.5220 c3        1 83T      0.071700
     16 C29        13.0190   -2.1680    1.2650 c3        1 83T     -0.112100
     17 C33        10.8260   -2.6360    0.1430 c3        1 83T     -0.116400
     18 C36         9.5850   -2.6760    1.0350 c3        1 83T      0.219800
     19 N38         9.9210   -3.1370    2.4470 n4        1 83T     -0.648800
     20 C40        10.2570   -4.5930    2.4910 c         1 83T      0.615100
     21 O41        11.4080   -4.9940    2.3790 o         1 83T     -0.426000
     22 O42         9.1560   -5.3410    2.6520 os        1 83T     -0.421900
     23 C43         9.3680   -6.8060    2.7980 c3        1 83T      0.177100
     24 C45         9.8500   -7.0890    4.1990 c3        1 83T     -0.127100
     25 C49         8.0040   -7.3870    2.5040 c3        1 83T     -0.127100
     26 C53         8.9850   -1.3100    1.0940 ca        1 83T     -0.238300
     27 C54         7.6020   -1.1300    1.0100 ca        1 83T     -0.046000
     28 C56        12.1290    0.6920    1.5120 c         1 83T      0.657100
     29 C57        11.8530    1.5770    2.6940 c3        1 83T     -0.173100
     30 O61        13.1290    0.8310    0.8010 o         1 83T     -0.503100
     31 H011       -0.8480    2.5800    0.5750 hx        1 83T      0.113700
     32 H012       -0.9700    1.3380   -0.7680 hx        1 83T      0.113700
     33 H013       -0.6830    3.1040   -1.1770 hx        1 83T      0.113700
     34 H05         1.4660    2.9380   -0.0850 hn        1 83T      0.454300
     35 H071        0.9540    1.2720    1.6080 hx        1 83T      0.113700
     36 H072        0.8530    0.0340    0.2590 hx        1 83T      0.113700
     37 H11         3.1320    2.3410    2.1670 ha        1 83T      0.147500
     38 H18         2.8670   -0.8400   -0.7730 ha        1 83T      0.147500
     39 H13         5.5770    1.9710    2.3450 ha        1 83T      0.158500
     40 H16         5.3120   -1.2070   -0.5930 ha        1 83T      0.158500
     41 H21         7.5000    2.2800    1.0030 ha        1 83T      0.158000
     42 H54         6.9410   -2.0110    0.9530 ha        1 83T      0.144000
     43 H23         9.9390    1.9920    1.1040 ha        1 83T      0.168000
     44 H27        12.2520   -1.1210   -0.4490 h1        1 83T      0.102700
     45 H291       13.7880   -1.3930    1.5090 hc        1 83T      0.061367
     46 H292       12.7110   -2.6760    2.2080 hc        1 83T      0.061367
     47 H293       13.4970   -2.9260    0.5960 hc        1 83T      0.061367
     48 H331       11.3460   -3.6320    0.1410 hc        1 83T      0.100200
     49 H332       10.4550   -2.4510   -0.9030 hc        1 83T      0.100200
     50 H36         8.8450   -3.4330    0.6360 hx        1 83T      0.112700
     51 H38        10.7360   -2.6080    2.7890 hn        1 83T      0.475300
     52 H43        10.1300   -7.1080    2.0290 h1        1 83T      0.090700
     53 H451        9.9700   -8.1940    4.3260 hc        1 83T      0.072867
     54 H452        9.1170   -6.7210    4.9570 hc        1 83T      0.072867
     55 H453       10.8400   -6.6030    4.3800 hc        1 83T      0.072867
     56 H491        7.2500   -7.0290    3.2460 hc        1 83T      0.072867
     57 H492        8.0770   -8.5010    2.5690 hc        1 83T      0.072867
     58 H493        7.6650   -7.1040    1.4790 hc        1 83T      0.072867
     59 H571       11.8670    2.6450    2.3560 hc        1 83T      0.085033
     60 H572       10.8830    1.3590    3.1990 hc        1 83T      0.085033
     61 H573       12.6870    1.4350    3.4300 hc        1 83T      0.085033
     62 H052        1.3560    1.8180   -1.3020 hn        1 83T      0.454300
     63 H382        9.1130   -2.9540    3.0530 hn        1 83T      0.475300
@<TRIPOS>BOND
     1    1    2 1   
     2    1   31 1   
     3    1   32 1   
     4    1   33 1   
     5    2    3 1   
     6    2   34 1   
     7    2   62 1   
     8    3    4 1   
     9    3   35 1   
    10    3   36 1   
    11    4    5 ar  
    12    4    9 ar  
    13    5    6 ar  
    14    5   37 1   
    15    6    7 ar  
    16    6   39 1   
    17    7    8 ar  
    18    7   10 1   
    19    8    9 ar  
    20    8   40 1   
    21    9   38 1   
    22   10   11 ar  
    23   10   27 ar  
    24   11   12 ar  
    25   11   41 1   
    26   12   13 ar  
    27   12   43 1   
    28   13   14 1   
    29   13   26 ar  
    30   14   15 1   
    31   14   28 1   
    32   15   16 1   
    33   15   17 1   
    34   15   44 1   
    35   16   45 1   
    36   16   46 1   
    37   16   47 1   
    38   17   18 1   
    39   17   48 1   
    40   17   49 1   
    41   18   19 1   
    42   18   26 1   
    43   18   50 1   
    44   19   20 1   
    45   19   51 1   
    46   19   63 1   
    47   20   21 2   
    48   20   22 1   
    49   22   23 1   
    50   23   24 1   
    51   23   25 1   
    52   23   52 1   
    53   24   53 1   
    54   24   54 1   
    55   24   55 1   
    56   25   56 1   
    57   25   57 1   
    58   25   58 1   
    59   26   27 ar  
    60   27   42 1   
    61   28   29 1   
    62   28   30 2   
    63   29   59 1   
    64   29   60 1   
    65   29   61 1   
@<TRIPOS>SUBSTRUCTURE
     1 83T         1 TEMP              0 ****  ****    0 ROOT
