@<TRIPOS>MOLECULE
83T
   63    65     1     0     0
SMALL
bcc


@<TRIPOS>ATOM
      1 C01        -0.2840    1.7580   -0.7810 c3        1 83T      0.075100
      2 N05         1.1830    1.6210   -0.6440 ny        1 83T     -0.762000
      3 C07         1.5630    0.6490    0.4390 c3        1 83T      0.170100
      4 C10         3.0430    0.5400    0.5760 ca        1 83T     -0.189300
      5 C11         3.7400    1.4380    1.3930 ca        1 83T     -0.090000
      6 C13         5.1160    1.3130    1.5550 ca        1 83T     -0.117500
      7 C15         5.8190    0.2840    0.9070 cp        1 83T      0.016000
      8 C16         5.1130   -0.6190    0.0970 ca        1 83T     -0.117500
      9 C18         3.7360   -0.4910   -0.0690 ca        1 83T     -0.090000
     10 C20         7.2680    0.1730    1.0580 cp        1 83T     -0.101000
     11 C21         8.0690    1.3340    1.0400 ca        1 83T     -0.034000
     12 C23         9.4440    1.2510    1.1080 ca        1 83T     -0.187000
     13 C25        10.1010   -0.0070    1.2290 ca        1 83T      0.170600
     14 N26        11.4880   -0.1090    1.2340 n         1 83T     -0.408000
     15 C27        12.0370   -1.3830    0.7660 c3        1 83T      0.115700
     16 C29        13.5550   -1.4960    0.8940 c3        1 83T     -0.118100
     17 C33        11.4130   -2.5460    1.5550 c3        1 83T     -0.121400
     18 C36         9.8860   -2.5310    1.4700 c3        1 83T      0.230800
     19 N38         9.2950   -3.2110    2.7150 ny        1 83T     -0.657800
     20 C40         8.5230   -4.4420    2.3660 c         1 83T      0.622100
     21 O41         7.4650   -4.3920    1.7480 o         1 83T     -0.453000
     22 O42         9.1480   -5.5390    2.8080 os        1 83T     -0.412900
     23 C43         8.4750   -6.8440    2.5670 c3        1 83T      0.179100
     24 C45         9.5980   -7.8440    2.7100 c3        1 83T     -0.127600
     25 C49         7.3830   -7.0170    3.5930 c3        1 83T     -0.127600
     26 C53         9.2870   -1.1680    1.3190 ca        1 83T     -0.250300
     27 C54         7.8930   -1.0630    1.1940 ca        1 83T     -0.070000
     28 C56        12.3070    1.0740    1.1730 c         1 83T      0.673100
     29 C57        12.2280    2.0350    2.3260 c3        1 83T     -0.174100
     30 O61        13.0790    1.2320    0.2250 o         1 83T     -0.495100
     31 H011       -0.7340    0.7600   -1.0340 hx        1 83T      0.113033
     32 H012       -0.7210    2.1290    0.1850 hx        1 83T      0.113033
     33 H013       -0.5130    2.4920   -1.6020 hx        1 83T      0.113033
     34 H05         1.5850    1.3010   -1.5340 hn        1 83T      0.454300
     35 H071        1.1070   -0.3490    0.1750 hx        1 83T      0.112700
     36 H072        1.0990    1.0160    1.4010 hx        1 83T      0.112700
     37 H11         3.2020    2.2390    1.9260 ha        1 83T      0.147000
     38 H18         3.1970   -1.2150   -0.7020 ha        1 83T      0.147000
     39 H13         5.6550    2.0210    2.2060 ha        1 83T      0.159000
     40 H16         5.6510   -1.4300   -0.4200 ha        1 83T      0.159000
     41 H21         7.5900    2.3230    0.9370 ha        1 83T      0.156000
     42 H54         7.2800   -1.9830    1.1890 ha        1 83T      0.146000
     43 H23        10.0390    2.1780    1.0390 ha        1 83T      0.167000
     44 H27        11.7670   -1.5080   -0.3280 h1        1 83T      0.072700
     45 H291       14.0630   -0.8070    0.1740 hc        1 83T      0.071367
     46 H292       13.8610   -2.5430    0.6490 hc        1 83T      0.071367
     47 H293       13.8990   -1.2540    1.9280 hc        1 83T      0.071367
     48 H331       11.7770   -2.4810    2.6170 hc        1 83T      0.082200
     49 H332       11.7960   -3.5090    1.1230 hc        1 83T      0.082200
     50 H36         9.5570   -3.1660    0.5880 hx        1 83T      0.113700
     51 H38        10.0490   -3.4620    3.3680 hn        1 83T      0.472800
     52 H43         8.0630   -6.8150    1.5210 h1        1 83T      0.086700
     53 H451        9.1830   -8.8670    2.5270 hc        1 83T      0.074200
     54 H452       10.0360   -7.8090    3.7370 hc        1 83T      0.074200
     55 H453       10.4070   -7.6430    1.9670 hc        1 83T      0.074200
     56 H491        6.6040   -6.2250    3.4740 hc        1 83T      0.074200
     57 H492        7.7960   -6.9720    4.6300 hc        1 83T      0.074200
     58 H493        6.9020   -8.0160    3.4450 hc        1 83T      0.074200
     59 H571       13.1530    1.9060    2.9440 hc        1 83T      0.085700
     60 H572       11.3350    1.8750    2.9740 hc        1 83T      0.085700
     61 H573       12.2160    3.0800    1.9240 hc        1 83T      0.085700
     62 H052        1.5980    2.5360   -0.4280 hn        1 83T      0.454300
     63 H382        8.6530   -2.5540    3.1800 hn        1 83T      0.472800
@<TRIPOS>BOND
     1    1    2 1   
     2    1   31 1   
     3    1   32 1   
     4    1   33 1   
     5    2    3 1   
     6    2   34 1   
     7    2   62 1   
     8    3    4 1   
     9    3   35 1   
    10    3   36 1   
    11    4    5 ar  
    12    4    9 ar  
    13    5    6 ar  
    14    5   37 1   
    15    6    7 ar  
    16    6   39 1   
    17    7    8 ar  
    18    7   10 1   
    19    8    9 ar  
    20    8   40 1   
    21    9   38 1   
    22   10   11 ar  
    23   10   27 ar  
    24   11   12 ar  
    25   11   41 1   
    26   12   13 ar  
    27   12   43 1   
    28   13   14 1   
    29   13   26 ar  
    30   14   15 1   
    31   14   28 1   
    32   15   16 1   
    33   15   17 1   
    34   15   44 1   
    35   16   45 1   
    36   16   46 1   
    37   16   47 1   
    38   17   18 1   
    39   17   48 1   
    40   17   49 1   
    41   18   19 1   
    42   18   26 1   
    43   18   50 1   
    44   19   20 1   
    45   19   51 1   
    46   19   63 1   
    47   20   21 2   
    48   20   22 1   
    49   22   23 1   
    50   23   24 1   
    51   23   25 1   
    52   23   52 1   
    53   24   53 1   
    54   24   54 1   
    55   24   55 1   
    56   25   56 1   
    57   25   57 1   
    58   25   58 1   
    59   26   27 ar  
    60   27   42 1   
    61   28   29 1   
    62   28   30 2   
    63   29   59 1   
    64   29   60 1   
    65   29   61 1   
@<TRIPOS>SUBSTRUCTURE
     1 83T         1 TEMP              0 ****  ****    0 ROOT
