@<TRIPOS>MOLECULE
840
   57    62     1     0     0
SMALL
bcc


@<TRIPOS>ATOM
      1 C1         -1.2560    2.7410    0.7300 c         1 840      0.642100
      2 C2          0.1860    3.0600    0.3700 c3        1 840     -0.168400
      3 C3          0.9730    1.7660    0.2710 c3        1 840     -0.088400
      4 C4          2.4050    1.9500   -0.2280 c3        1 840     -0.108000
      5 C5          2.3420    2.2940   -1.7210 c         1 840      0.570300
      6 C6          2.3410    1.1870   -2.6930 ce        1 840     -0.269200
      7 C7          2.5720   -0.0960   -2.3780 c2        1 840     -0.042200
      8 C8          2.8550   -0.5220   -1.0050 c3        1 840     -0.070800
      9 C9          3.2650    0.6980   -0.0850 c3        1 840      0.004300
     10 C10         3.4370   -0.0100    1.2330 cx        1 840     -0.015200
     11 C11         4.6380   -0.7510    1.7550 cx        1 840      0.020600
     12 C12         3.8520   -1.5320    0.7560 cx        1 840     -0.246000
     13 C13         4.0510   -1.5060   -0.7310 c3        1 840     -0.025400
     14 C14         1.6970   -1.3650   -0.3380 c3        1 840      0.154100
     15 C15         2.3270   -1.7590    1.0500 cy        1 840      0.152800
     16 O16         2.2330   -0.5050    1.8440 os        1 840     -0.374600
     17 C17         1.7900   -2.9540    1.7460 c3        1 840     -0.080100
     18 C18         3.0850    3.0840    0.5320 c3        1 840     -0.086100
     19 O19         2.2660    3.4700   -2.1020 o         1 840     -0.553100
     20 O20        -1.7280    3.0840    1.8300 o         1 840     -0.597100
     21 C22        -3.1060   -1.4800    0.0100 ca        1 840     -0.238600
     22 C23        -2.3980   -0.3200   -0.3360 ca        1 840      0.177100
     23 C24        -2.8150    0.9720    0.1120 ca        1 840     -0.142400
     24 C25        -3.9920    1.0460    0.8900 ca        1 840      0.176100
     25 C26        -4.7220   -0.1130    1.2000 ca        1 840     -0.222000
     26 C27        -4.2740   -1.3520    0.7650 ca        1 840     -0.037000
     27 N28        -2.0620    2.1260   -0.2480 n         1 840     -0.418100
     28 O30        -4.5160    2.2220    1.3730 oh        1 840     -0.520100
     29 O32        -3.3630   -3.8530   -0.1250 o         1 840     -0.841300
     30 O33        -1.4770   -2.9790   -0.9130 o         1 840     -0.841300
     31 O34         1.4650   -2.4900   -1.1470 oh        1 840     -0.621800
     32 H2          0.2380    3.6270   -0.5960 hc        1 840      0.072200
     33 H2A         0.6060    3.7140    1.1790 hc        1 840      0.072200
     34 H3          1.0070    1.2750    1.2810 hc        1 840      0.085200
     35 H3A         0.4410    1.0690   -0.4340 hc        1 840      0.085200
     36 H6          2.1200    1.4880   -3.7310 ha        1 840      0.144000
     37 H7          2.5290   -0.9000   -3.1320 ha        1 840      0.149000
     38 H9          4.2990    1.0080   -0.4230 hc        1 840      0.052700
     39 H11         5.6360   -0.3970    1.4310 hc        1 840      0.082200
     40 H11A        4.6150   -1.0650    2.8160 hc        1 840      0.082200
     41 H13         3.8760   -2.4950   -1.2150 hc        1 840      0.066700
     42 H13A        5.0340   -1.0930   -1.0470 hc        1 840      0.066700
     43 H14         0.7620   -0.7730   -0.1720 h1        1 840      0.095700
     44 H17         2.3860   -3.1790    2.6620 hc        1 840      0.059700
     45 H17A        0.7260   -2.7760    2.0410 hc        1 840      0.059700
     46 H17B        1.8270   -3.8310    1.0520 hc        1 840      0.059700
     47 H18         2.9980    2.9050    1.6300 hc        1 840      0.043700
     48 H18A        4.1660    3.1470    0.2600 hc        1 840      0.043700
     49 H18B        2.6060    4.0600    0.2750 hc        1 840      0.043700
     50 H26        -5.6390   -0.0150    1.7960 ha        1 840      0.134000
     51 H27        -4.8290   -2.2730    1.0160 ha        1 840      0.158000
     52 HN28       -1.5750    1.9720   -1.1130 hn        1 840      0.296500
     53 HO30       -3.8150    2.8920    1.3980 ho        1 840      0.442000
     54 HO31       -1.1240   -1.2480   -1.4560 ho        1 840      0.487000
     55 HO34        0.5640   -2.8090   -0.9520 ho        1 840      0.474000
     56 C21        -2.6270   -2.8640   -0.3690 c         1 840      0.929200
     57 O31        -1.2720   -0.3360   -1.1210 oh        1 840     -0.576100
@<TRIPOS>BOND
     1    1    2 1   
     2    1   20 2   
     3    1   27 1   
     4    2    3 1   
     5    2   32 1   
     6    2   33 1   
     7    3    4 1   
     8    3   34 1   
     9    3   35 1   
    10    4    5 1   
    11    4    9 1   
    12    4   18 1   
    13    5    6 1   
    14    5   19 2   
    15    6    7 2   
    16    6   36 1   
    17    7    8 1   
    18    7   37 1   
    19    8    9 1   
    20    8   13 1   
    21    8   14 1   
    22    9   10 1   
    23    9   38 1   
    24   10   11 1   
    25   10   12 1   
    26   10   16 1   
    27   11   12 1   
    28   11   39 1   
    29   11   40 1   
    30   12   13 1   
    31   12   15 1   
    32   13   41 1   
    33   13   42 1   
    34   14   15 1   
    35   14   31 1   
    36   14   43 1   
    37   15   16 1   
    38   15   17 1   
    39   17   44 1   
    40   17   45 1   
    41   17   46 1   
    42   18   47 1   
    43   18   48 1   
    44   18   49 1   
    45   21   22 ar  
    46   21   26 ar  
    47   21   56 1   
    48   22   23 ar  
    49   22   57 1   
    50   23   24 ar  
    51   23   27 1   
    52   24   25 ar  
    53   24   28 1   
    54   25   26 ar  
    55   25   50 1   
    56   26   51 1   
    57   27   52 1   
    58   28   53 1   
    59   29   56 1   
    60   30   56 1   
    61   31   55 1   
    62   54   57 1   
@<TRIPOS>SUBSTRUCTURE
     1 840         1 TEMP              0 ****  ****    0 ROOT
