@<TRIPOS>MOLECULE
840
   57    55     1     0     0
SMALL
bcc


@<TRIPOS>ATOM
      1 C1         -1.5220    0.4600    2.7880 c2        1 840      0.266000
      2 C2          1.6180    2.9400    0.8110 c3        1 840     -0.295000
      3 C3          3.0440    2.9300    0.6070 c1        1 840     -0.004000
      4 C4          3.7380    1.9480   -0.2690 c3        1 840     -0.208000
      5 C5          2.8600    0.9920   -1.0890 c2        1 840      0.206000
      6 C6          1.0920   -4.1280    6.4260 c1        1 840      0.167000
      7 C7          2.0210   -3.4370    5.8110 c2        1 840     -0.467000
      8 C8          3.4290   -3.2890    6.1020 c2        1 840     -0.068000
      9 C9          4.5920    1.0970    0.6270 c2        1 840     -0.209000
     10 C10         4.1590    0.3840    1.6760 c2        1 840      0.007000
     11 C11         4.9780   -0.4830    2.5940 c3        1 840     -0.252000
     12 C12         4.0390   -1.0450    3.5860 c1        1 840      0.058000
     13 C13         4.0670   -3.9210    7.0900 c2        1 840     -0.258000
     14 C14         1.6640   -1.5990    3.0520 c1        1 840      0.036000
     15 C15         2.6910   -0.4990    3.2540 c3        1 840     -0.109000
     16 O16         2.8230    0.3520    2.0570 os        1 840     -0.237000
     17 C17         2.1740    0.3840    4.3910 c3        1 840     -0.190000
     18 C18         4.4870    2.7760   -1.2520 c1        1 840      0.026000
     19 O19         3.2750    0.4170   -2.0940 o         1 840     -0.293000
     20 O20        -1.0890    1.2560    3.6470 o         1 840     -0.417000
     21 C22        -3.2160   -2.0410    0.0070 c2        1 840     -0.079000
     22 C23        -2.1850   -1.5590    0.7420 c2        1 840     -0.060000
     23 C24        -1.4720   -0.3080    0.4450 c2        1 840      0.070000
     24 C25        -1.1580   -0.0430   -0.8560 c2        1 840     -0.122000
     25 C26        -4.9120   -2.4100   -1.5380 c1        1 840     -0.058000
     26 C27        -3.9100   -1.5140   -1.1350 c2        1 840     -0.501000
     27 N28        -1.0890    0.5560    1.4870 n         1 840     -0.320000
     28 O30        -0.4280    1.0870   -1.1860 oh        1 840     -0.303000
     29 O32        -4.8920   -3.5180   -0.6900 os        1 840     -0.210000
     30 O33        -3.7210   -4.2290    1.1160 o         1 840     -0.370000
     31 O34         1.1330   -1.5830    1.8590 oh        1 840     -0.196000
     32 H2         -2.2450   -0.3580    3.0060 h5        1 840      0.165000
     33 H2A         1.4470    2.2590    1.7010 hc        1 840      0.126333
     34 H3          1.2820    3.9680    1.1030 hc        1 840      0.126333
     35 H3A         0.9760    2.5790   -0.0350 hc        1 840      0.126333
     36 H6          1.8340    0.8330   -0.6870 h4        1 840      0.145000
     37 H7          1.6780   -2.8590    4.9040 ha        1 840      0.240000
     38 H9          5.6630    1.0770    0.3780 ha        1 840      0.138000
     39 H11         5.4830   -1.3170    2.0360 hc        1 840      0.159000
     40 H11A        5.7800    0.1060    3.1150 hc        1 840      0.159000
     41 H13         3.5720   -4.6200    7.7760 ha        1 840      0.106000
     42 H13A        5.1390   -3.7730    7.2700 ha        1 840      0.106000
     43 H14         3.9650   -2.5900    5.4280 ha        1 840      0.157000
     44 H17         2.0540   -0.2370    5.3110 hc        1 840      0.109000
     45 H17A        1.1840    0.8200    4.1010 hc        1 840      0.109000
     46 H17B        2.8920    1.2140    4.5820 hc        1 840      0.109000
     47 H18         4.4880    4.6860   -0.0950 ha        1 840      0.014500
     48 H18A        5.1430    4.6980   -0.2880 ha        1 840      0.014500
     49 H18B        5.5770    2.6020   -1.2560 ha        1 840      0.030000
     50 H26        -1.4370   -0.7180   -1.6770 h4        1 840      0.171000
     51 H27        -3.7020   -0.5530   -1.5890 ha        1 840      0.130000
     52 HN28       -0.4740    1.3000    1.2320 hn        1 840      0.230000
     53 HO30       -0.7830    1.4000   -2.0280 ho        1 840      0.215000
     54 HO31       -2.1670   -3.0440    1.9750 ho        1 840      0.247000
     55 HO34        0.4040   -2.2450    1.8200 ho        1 840      0.301000
     56 C21        -3.9000   -3.3560    0.2650 c2        1 840      0.287000
     57 O31        -1.6590   -2.2270    1.8490 oh        1 840     -0.331000
@<TRIPOS>BOND
     1    1   20 1   
     2    1   27 1   
     3    1   32 1   
     4    2    3 1   
     5    2   33 1   
     6    2   34 1   
     7    2   35 1   
     8    3    4 1   
     9    4    5 1   
    10    4    9 1   
    11    4   18 1   
    12    5   19 1   
    13    5   36 1   
    14    6    7 1   
    15    7    8 1   
    16    7   37 1   
    17    8   13 1   
    18    8   43 1   
    19    9   10 1   
    20    9   38 1   
    21   10   11 1   
    22   10   16 1   
    23   11   12 1   
    24   11   39 1   
    25   11   40 1   
    26   12   15 1   
    27   13   41 1   
    28   13   42 1   
    29   14   15 1   
    30   14   31 1   
    31   15   16 1   
    32   15   17 1   
    33   17   44 1   
    34   17   45 1   
    35   17   46 1   
    36   18   49 1   
    37   21   22 1   
    38   21   26 1   
    39   21   56 1   
    40   22   23 1   
    41   22   57 1   
    42   23   24 1   
    43   23   27 1   
    44   24   28 1   
    45   24   50 1   
    46   25   26 1   
    47   25   29 1   
    48   26   51 1   
    49   27   52 1   
    50   28   53 1   
    51   29   56 1   
    52   30   56 1   
    53   31   55 1   
    54   47   48 1   
    55   54   57 1   
@<TRIPOS>SUBSTRUCTURE
     1 840         1 TEMP              0 ****  ****    0 ROOT
