@<TRIPOS>MOLECULE
840
   58    59     1     0     0
SMALL
bcc


@<TRIPOS>ATOM
      1 C1          0.4460    0.1010    1.9110 c2        1 840      0.400000
      2 C2          1.8230    1.3570   -0.8370 c3        1 840     -0.289000
      3 C3          2.2880    0.7190    0.3530 c1        1 840     -0.090000
      4 C4          3.5110    1.0540    1.0940 c3        1 840     -0.157000
      5 C5          4.7200    1.4460    0.2540 c2        1 840      0.179000
      6 C6          4.3840   -2.7290   -0.5910 c1        1 840      0.135000
      7 C7          3.3800   -1.8940    0.0600 cx        1 840     -0.251500
      8 C8          4.0930   -1.4760    1.3190 cx        1 840     -0.109000
      9 C9          3.8720   -0.1390    2.0030 c3        1 840     -0.061000
     10 C10         2.8200   -0.3620    3.0400 c2        1 840      0.321000
     11 C11         1.3730   -0.3230    3.0200 c2        1 840     -0.189000
     12 C12         0.9200   -0.7180    4.2550 c2        1 840      0.005000
     13 C13         4.9750   -1.5950    0.1050 cx        1 840     -0.251500
     14 C14         2.2630    0.0930    6.2360 c1        1 840      0.104000
     15 C15         2.0960   -0.9810    5.1540 c3        1 840     -0.052000
     16 O16         3.2680   -0.7590    4.2410 os        1 840     -0.103000
     17 C17         2.2070   -2.3970    5.6720 c3        1 840     -0.217000
     18 C18         3.1950    2.2890    1.9590 c3        1 840     -0.218000
     19 O19         5.8720    1.3570    0.6700 o         1 840     -0.263000
     20 O20         0.0790    1.2910    1.8860 o         1 840     -0.351000
     21 C22        -3.5890   -0.6940   -0.1560 c2        1 840     -0.036000
     22 C23        -2.4650   -0.7000    0.7800 c2        1 840      0.142000
     23 C24        -1.1680   -0.8150    0.3170 c2        1 840     -0.157000
     24 C25        -0.9230   -0.7530   -1.1740 c3        1 840      0.023000
     25 C26        -2.0750   -1.1090   -2.0170 c1        1 840     -0.122000
     26 C27        -3.3590   -0.8670   -1.4950 c2        1 840     -0.209000
     27 N28        -0.0640   -0.9570    1.1840 n         1 840     -0.244000
     28 O30         0.2610   -1.4630   -1.5300 oh        1 840     -0.367000
     29 O32        -5.2480   -0.8180    1.5710 o         1 840     -0.516500
     30 O33        -5.8880   -0.1630   -0.4710 o         1 840     -0.516500
     31 O34         1.4150   -0.0830    7.2170 oh        1 840     -0.213000
     32 H2         -1.4640    0.8070    4.0660 ha        1 840      0.001500
     33 H2A        -1.8790    1.0100    3.5680 ha        1 840      0.001500
     34 H3          2.4850    2.1140   -1.3240 hc        1 840      0.147333
     35 H3A         0.8420    1.8540   -0.5560 hc        1 840      0.147333
     36 H6          4.4770    1.8560   -0.7510 h4        1 840      0.126000
     37 H7          2.4160   -1.5370   -0.3150 hc        1 840      0.201500
     38 H9          4.8460    0.1210    2.5280 hc        1 840      0.170000
     39 H11         5.4020   -1.9050    4.0850 ha        1 840      0.001500
     40 H11A        5.1540   -2.2720    4.5970 ha        1 840      0.001500
     41 H13        -0.1250   -0.8250    4.5800 ha        1 840      0.237000
     42 H13A        5.7660   -0.9110   -0.1930 hc        1 840      0.201500
     43 H14         4.2400   -2.2670    2.0950 hc        1 840      0.138000
     44 H17         1.4600   -2.5360    6.4940 hc        1 840      0.125667
     45 H17A        3.2370   -2.5740    6.0700 hc        1 840      0.125667
     46 H17B        2.0040   -3.1380    4.8620 hc        1 840      0.125667
     47 H18         4.0160    2.4460    2.6990 hc        1 840      0.112333
     48 H18A        2.2200    2.1550    2.4920 hc        1 840      0.112333
     49 H18B        3.1150    3.1940    1.3080 hc        1 840      0.112333
     50 H26        -0.7040    0.3410   -1.4240 h1        1 840      0.124000
     51 H27        -4.2270   -0.8830   -2.1810 ha        1 840      0.186000
     52 HN28        0.5930   -1.6470    0.8800 hn        1 840      0.236000
     53 HO30        0.0000   -2.1390   -2.1720 ho        1 840      0.237000
     54 HO31       -3.6150   -0.6020    2.3380 ho        1 840      0.299000
     55 HO34        1.5530    0.6270    7.8800 ho        1 840      0.303000
     56 O31        -2.6510   -0.6000    2.1260 oh        1 840     -0.301000
     57 H282        1.5430    0.5520   -1.5840 hc        1 840      0.147333
     58 C21        -5.0290   -0.5460    0.3540 c2        1 840      0.353000
@<TRIPOS>BOND
     1    1   11 1   
     2    1   20 1   
     3    1   27 1   
     4    2    3 1   
     5    2   34 1   
     6    2   35 1   
     7    2   57 1   
     8    3    4 1   
     9    4    5 1   
    10    4    9 1   
    11    4   18 1   
    12    5   19 1   
    13    5   36 1   
    14    6    7 1   
    15    6   13 1   
    16    7    8 1   
    17    7   13 1   
    18    7   37 1   
    19    8    9 1   
    20    8   13 1   
    21    8   43 1   
    22    9   10 1   
    23    9   38 1   
    24   10   11 1   
    25   10   16 1   
    26   11   12 1   
    27   12   15 1   
    28   12   41 1   
    29   13   42 1   
    30   14   15 1   
    31   14   31 1   
    32   15   16 1   
    33   15   17 1   
    34   17   44 1   
    35   17   45 1   
    36   17   46 1   
    37   18   47 1   
    38   18   48 1   
    39   18   49 1   
    40   21   22 1   
    41   21   26 1   
    42   21   58 1   
    43   22   23 1   
    44   22   56 1   
    45   23   24 1   
    46   23   27 1   
    47   24   25 1   
    48   24   28 1   
    49   24   50 1   
    50   25   26 1   
    51   26   51 1   
    52   27   52 1   
    53   28   53 1   
    54   29   58 1   
    55   30   58 1   
    56   31   55 1   
    57   32   33 1   
    58   39   40 1   
    59   54   56 1   
@<TRIPOS>SUBSTRUCTURE
     1 840         1 TEMP              0 ****  ****    0 ROOT
