@<TRIPOS>MOLECULE
840
   57    58     1     0     0
SMALL
bcc


@<TRIPOS>ATOM
      1 C1         -0.2260   -0.2960   -1.0460 c2        1 840      0.275000
      2 C2          3.6730   -1.0190   -0.5160 c3        1 840     -0.277000
      3 C3          4.1290   -1.1250    0.8390 c1        1 840     -0.062000
      4 C4          4.5740    0.0230    1.6560 c3        1 840     -0.113000
      5 C5          5.7710   -0.4140    2.5180 c2        1 840      0.338000
      6 C6          6.1530   -1.8220    2.4260 c2        1 840     -0.558000
      7 C7          7.2210   -2.4570    2.8320 c1        1 840      0.229000
      8 C8          3.1150   -0.3640    3.8810 c3        1 840     -0.146000
      9 C9          3.4760    0.5090    2.6050 c3        1 840     -0.020000
     10 C10         2.0460    0.5810    2.0820 c2        1 840     -0.009000
     11 C11         1.2440    0.9120    3.1660 cu        1 840     -0.162000
     12 C12         0.6020   -0.3100    3.7040 cx        1 840     -0.124000
     13 C13         1.8280    0.3540    4.4170 cx        1 840     -0.123000
     14 C14         2.5660   -1.7350    3.3880 c3        1 840     -0.008000
     15 C15         1.1810   -1.3940    2.7380 c3        1 840      0.047000
     16 O16         1.5530   -0.5990    1.5020 os        1 840     -0.228000
     17 C17         0.3200   -2.5460    2.3450 c3        1 840     -0.231000
     18 C18         5.0400    1.2180    0.8190 c3        1 840     -0.224000
     19 O19         6.3740    0.3990    3.2270 o         1 840     -0.311000
     20 O20         0.7540   -0.1930   -1.8080 o         1 840     -0.403000
     21 C22        -2.8560   -0.0600    1.8220 c2        1 840     -0.138000
     22 C23        -2.5980   -0.6250    0.6150 c2        1 840      0.034000
     23 C24        -2.6000    0.1790   -0.6360 c2        1 840      0.076000
     24 C25        -3.7530    0.8410   -0.9630 c2        1 840     -0.117000
     25 C26        -3.5460    2.1670    0.9640 c1        1 840      0.031000
     26 C27        -3.1790    1.3490    1.9280 c2        1 840     -0.370000
     27 N28        -1.4370    0.2700   -1.4000 ns        1 840     -0.315000
     28 O30        -3.8220    1.6540   -2.0810 oh        1 840     -0.298000
     29 O32        -2.6220   -0.1860    4.1990 o         1 840     -0.564000
     30 O33        -2.7970   -2.1000    3.0760 o         1 840     -0.564000
     31 O34         2.4630   -2.6690    4.4340 oh        1 840     -0.311000
     32 H2         -0.1960   -0.8280   -0.0640 h5        1 840      0.183000
     33 H2A         3.9110   -1.9570   -1.0810 hc        1 840      0.131000
     34 H3          2.5380   -0.9380   -0.4810 hc        1 840      0.131000
     35 H3A         4.0380   -0.1350   -1.0990 hc        1 840      0.131000
     36 H6          5.3610   -2.4480    1.9110 ha        1 840      0.267000
     37 H7          3.9500   -0.4490    4.6010 hc        1 840      0.130000
     38 H9          3.7960    1.5220    2.9780 hc        1 840      0.129000
     39 H11         3.9370    1.8510    5.2850 ha        1 840      0.000000
     40 H11A        4.2870    2.3620    5.5610 ha        1 840      0.000000
     41 H13        -0.4020   -0.4260    4.1430 hc        1 840      0.228000
     42 H13A        1.8040    0.7560    5.4290 hc        1 840      0.153000
     43 H14         1.7560   -2.3670    5.0200 ho        1 840      0.207000
     44 H17         0.7960   -3.5040    2.6680 hc        1 840      0.114667
     45 H17A        0.1750   -2.5690    1.2360 hc        1 840      0.114667
     46 H17B       -0.6940   -2.4610    2.8240 hc        1 840      0.114667
     47 H18         4.1640    1.6750    0.2990 hc        1 840      0.089333
     48 H18A        5.5160    1.9870    1.4730 hc        1 840      0.089333
     49 H18B        5.7850    0.8870    0.0570 hc        1 840      0.089333
     50 H26        -4.7100    0.6630   -0.4480 h4        1 840      0.162000
     51 H27        -3.0930    1.7290    2.9750 ha        1 840      0.220000
     52 HN28       -1.5080    0.7800   -2.2550 hn        1 840      0.237000
     53 HO30       -3.9240    2.5530   -1.7290 ho        1 840      0.222000
     54 HO31       -2.3970   -2.4350    1.2340 ho        1 840      0.278000
     55 HO34        3.2560   -2.2050    2.6330 h1        1 840      0.162000
     56 C21        -2.7670   -0.8300    3.1240 c2        1 840      0.363000
     57 O31        -2.2550   -1.9360    0.4000 oh        1 840     -0.300000
@<TRIPOS>BOND
     1    1   20 1   
     2    1   27 1   
     3    1   32 1   
     4    2    3 1   
     5    2   33 1   
     6    2   34 1   
     7    2   35 1   
     8    3    4 1   
     9    4    5 1   
    10    4    9 1   
    11    4   18 1   
    12    5    6 1   
    13    5   19 1   
    14    6    7 1   
    15    6   36 1   
    16    8    9 1   
    17    8   13 1   
    18    8   14 1   
    19    8   37 1   
    20    9   10 1   
    21    9   38 1   
    22   10   11 1   
    23   10   16 1   
    24   11   12 1   
    25   11   13 1   
    26   12   13 1   
    27   12   15 1   
    28   12   41 1   
    29   13   42 1   
    30   14   15 1   
    31   14   31 1   
    32   14   55 1   
    33   15   16 1   
    34   15   17 1   
    35   17   44 1   
    36   17   45 1   
    37   17   46 1   
    38   18   47 1   
    39   18   48 1   
    40   18   49 1   
    41   21   22 1   
    42   21   26 1   
    43   21   56 1   
    44   22   23 1   
    45   22   57 1   
    46   23   24 1   
    47   23   27 1   
    48   24   28 1   
    49   24   50 1   
    50   25   26 1   
    51   26   51 1   
    52   27   52 1   
    53   28   53 1   
    54   29   56 1   
    55   30   56 1   
    56   31   43 1   
    57   39   40 1   
    58   54   57 1   
@<TRIPOS>SUBSTRUCTURE
     1 840         1 TEMP              0 ****  ****    0 ROOT
