@<TRIPOS>MOLECULE
842
   69    72     1     0     0
SMALL
bcc


@<TRIPOS>ATOM
      1 C1          0.2850   -1.4760    1.3750 c3        1 842     -0.196100
      2 C2          0.9260   -0.1370    1.3120 c         1 842      0.574100
      3 N3          2.2980   -0.0170    1.9680 n4        1 842     -0.691800
      4 C4          3.4450    0.1670    1.0140 c3        1 842      0.089500
      5 C5          3.2690    1.3610    0.0330 c3        1 842      0.121100
      6 C6          3.0620    2.6880    0.8060 c3        1 842      0.086800
      7 N7          3.5370    3.8830    0.0700 n4        1 842     -0.758000
      8 C8          3.2620    5.2290    0.7750 c3        1 842      0.223500
      9 C9          4.1970    6.2900    0.1460 c3        1 842     -0.104900
     10 C10         3.9030    6.5450   -1.3150 c3        1 842     -0.095400
     11 C11         2.4560    6.9230   -1.5440 c3        1 842     -0.095400
     12 C12         1.5010    5.9120   -0.9450 c3        1 842     -0.095400
     13 C13         1.8040    5.6500    0.5160 c3        1 842     -0.104900
     14 C14         3.5880    5.1000    2.2450 ca        1 842     -0.149300
     15 C15         4.8540    4.6200    2.6090 ca        1 842     -0.166000
     16 C16         5.2080    4.4890    3.9670 ca        1 842      0.063800
     17 C17         4.3000    4.9280    4.9600 ca        1 842     -0.121000
     18 C18         3.0630    5.4340    4.5820 ca        1 842     -0.095000
     19 C19         2.6900    5.5000    3.2370 ca        1 842     -0.121000
     20 N20         6.4400    3.9070    4.3340 na        1 842      0.106300
     21 N21         7.0790    2.9810    3.5700 nc        1 842     -0.558800
     22 C22         8.2470    2.7150    4.1890 cd        1 842      0.343200
     23 C23         8.3810    3.5110    5.4000 cd        1 842     -0.264300
     24 C24         7.2140    4.2660    5.4640 cc        1 842     -0.104300
     25 O25         0.4970    0.9000    0.8300 o         1 842     -0.439100
     26 C26         3.7360   -1.1130    0.2160 c3        1 842     -0.061100
     27 C27         3.7810   -2.3420    1.0560 ca        1 842     -0.104300
     28 C28         3.1530   -3.5000    0.5970 ca        1 842     -0.217500
     29 C29         3.2590   -4.6940    1.3430 ca        1 842      0.194900
     30 C30         3.9760   -4.7250    2.5500 ca        1 842     -0.179000
     31 C31         4.5980   -3.5470    2.9970 ca        1 842      0.194900
     32 C32         4.5010   -2.3540    2.2540 ca        1 842     -0.217500
     33 F33         2.6570   -5.8110    0.8890 f         1 842     -0.095900
     34 F34         5.2950   -3.5500    4.1520 f         1 842     -0.095900
     35 O35         4.4660    1.4920   -0.7050 oh        1 842     -0.591800
     36 H1         -0.6230   -1.4730    0.7120 hc        1 842      0.129700
     37 H1A         0.9870   -2.2850    1.0340 hc        1 842      0.129700
     38 H1B        -0.0460   -1.6970    2.4250 hc        1 842      0.129700
     39 HN3         2.4890   -0.8800    2.5060 hn        1 842      0.470300
     40 H4          4.3550    0.3890    1.6600 hx        1 842      0.134700
     41 H5          2.3910    1.1770   -0.6490 h1        1 842      0.087700
     42 H6          1.9600    2.8120    1.0150 hx        1 842      0.116700
     43 H6A         3.6290    2.6510    1.7830 hx        1 842      0.116700
     44 HN7         3.0970    3.9190   -0.8570 hn        1 842      0.461300
     45 H9          5.2720    5.9990    0.2860 hc        1 842      0.086950
     46 H9A         4.0360    7.2370    0.7330 hc        1 842      0.086950
     47 H10         4.1730    5.6510   -1.9370 hc        1 842      0.059700
     48 H10A        4.5620    7.3870   -1.6670 hc        1 842      0.059700
     49 H11         2.2600    7.9320   -1.0900 hc        1 842      0.079200
     50 H11A        2.2620    7.0140   -2.6460 hc        1 842      0.079200
     51 H12         0.4520    6.3120   -1.0200 hc        1 842      0.059700
     52 H12A        1.5150    4.9630   -1.5420 hc        1 842      0.059700
     53 H13         1.6430    6.6120    1.0790 hc        1 842      0.086950
     54 H13A        1.0950    4.8880    0.9300 hc        1 842      0.086950
     55 H15         5.5970    4.3670    1.8350 ha        1 842      0.150000
     56 H17         4.5670    4.8750    6.0290 ha        1 842      0.172000
     57 H18         2.3620    5.7890    5.3570 ha        1 842      0.171000
     58 H19         1.6900    5.8900    2.9920 ha        1 842      0.155000
     59 H22         8.9660    1.9910    3.7970 h4        1 842      0.061100
     60 H23         9.2200    3.5030    6.0900 ha        1 842      0.195000
     61 H24         6.8740    5.0140    6.1820 h4        1 842      0.194000
     62 H26         4.7490   -0.9790   -0.2640 hc        1 842      0.097200
     63 H26A        2.9810   -1.2270   -0.6080 hc        1 842      0.097200
     64 H28         2.6130   -3.5180   -0.3630 ha        1 842      0.158500
     65 H30         4.0670   -5.6620    3.1270 ha        1 842      0.203000
     66 H32         5.0580   -1.4700    2.5990 ha        1 842      0.158500
     67 HO35        4.4600    0.8410   -1.4240 ho        1 842      0.459000
     68 H321        2.2840    0.7810    2.6130 hn        1 842      0.470300
     69 H72         4.5550    3.7950   -0.0690 hn        1 842      0.461300
@<TRIPOS>BOND
     1    1    2 1   
     2    1   36 1   
     3    1   37 1   
     4    1   38 1   
     5    2    3 1   
     6    2   25 2   
     7    3    4 1   
     8    3   39 1   
     9    3   68 1   
    10    4    5 1   
    11    4   26 1   
    12    4   40 1   
    13    5    6 1   
    14    5   35 1   
    15    5   41 1   
    16    6    7 1   
    17    6   42 1   
    18    6   43 1   
    19    7    8 1   
    20    7   44 1   
    21    7   69 1   
    22    8    9 1   
    23    8   13 1   
    24    8   14 1   
    25    9   10 1   
    26    9   45 1   
    27    9   46 1   
    28   10   11 1   
    29   10   47 1   
    30   10   48 1   
    31   11   12 1   
    32   11   49 1   
    33   11   50 1   
    34   12   13 1   
    35   12   51 1   
    36   12   52 1   
    37   13   53 1   
    38   13   54 1   
    39   14   15 ar  
    40   14   19 ar  
    41   15   16 ar  
    42   15   55 1   
    43   16   17 ar  
    44   16   20 1   
    45   17   18 ar  
    46   17   56 1   
    47   18   19 ar  
    48   18   57 1   
    49   19   58 1   
    50   20   21 1   
    51   20   24 1   
    52   21   22 2   
    53   22   23 1   
    54   22   59 1   
    55   23   24 2   
    56   23   60 1   
    57   24   61 1   
    58   26   27 1   
    59   26   62 1   
    60   26   63 1   
    61   27   28 ar  
    62   27   32 ar  
    63   28   29 ar  
    64   28   64 1   
    65   29   30 ar  
    66   29   33 1   
    67   30   31 ar  
    68   30   65 1   
    69   31   32 ar  
    70   31   34 1   
    71   32   66 1   
    72   35   67 1   
@<TRIPOS>SUBSTRUCTURE
     1 842         1 TEMP              0 ****  ****    0 ROOT
