@<TRIPOS>MOLECULE
842
   69    72     1     0     0
SMALL
bcc


@<TRIPOS>ATOM
      1 C1          0.2850   -1.4720    1.4320 c3        1 842     -0.196100
      2 C2          0.9270   -0.1340    1.3510 c         1 842      0.574100
      3 N3          2.3050   -0.0100    1.9920 n4        1 842     -0.691800
      4 C4          3.4430    0.1660    1.0260 c3        1 842      0.089500
      5 C5          3.2580    1.3520    0.0380 c3        1 842      0.121100
      6 C6          3.0590    2.6850    0.8020 c3        1 842      0.086800
      7 N7          3.5330    3.8740    0.0560 n4        1 842     -0.758000
      8 C8          3.2640    5.2260    0.7510 c3        1 842      0.223500
      9 C9          4.2010    6.2790    0.1140 c3        1 842     -0.104900
     10 C10         3.9060    6.5250   -1.3490 c3        1 842     -0.095400
     11 C11         2.4600    6.9060   -1.5780 c3        1 842     -0.095400
     12 C12         1.5030    5.9030   -0.9720 c3        1 842     -0.095400
     13 C13         1.8070    5.6490    0.4910 c3        1 842     -0.104900
     14 C14         3.5900    5.1060    2.2220 ca        1 842     -0.149300
     15 C15         4.8550    4.6230    2.5890 ca        1 842     -0.166000
     16 C16         5.2090    4.5000    3.9470 ca        1 842      0.063800
     17 C17         4.3040    4.9510    4.9370 ca        1 842     -0.121000
     18 C18         3.0700    5.4600    4.5570 ca        1 842     -0.095000
     19 C19         2.6950    5.5170    3.2120 ca        1 842     -0.121000
     20 N20         6.4390    3.9140    4.3170 na        1 842      0.106300
     21 N21         7.0700    2.9780    3.5600 nc        1 842     -0.558800
     22 C22         8.2380    2.7090    4.1800 cd        1 842      0.343200
     23 C23         8.3790    3.5160    5.3830 cd        1 842     -0.264300
     24 C24         7.2160    4.2790    5.4420 cc        1 842     -0.104300
     25 O25         0.4930    0.8990    0.8640 o         1 842     -0.439100
     26 C26         3.7240   -1.1210    0.2350 c3        1 842     -0.061100
     27 C27         3.7770   -2.3430    1.0850 ca        1 842     -0.104300
     28 C28         3.1440   -3.5050    0.6410 ca        1 842     -0.217500
     29 C29         3.2570   -4.6930    1.3960 ca        1 842      0.194900
     30 C30         3.9870   -4.7150    2.5960 ca        1 842     -0.179000
     31 C31         4.6140   -3.5330    3.0270 ca        1 842      0.194900
     32 C32         4.5100   -2.3460    2.2750 ca        1 842     -0.217500
     33 F33         2.6500   -5.8130    0.9570 f         1 842     -0.095900
     34 F34         5.3220   -3.5280    4.1750 f         1 842     -0.095900
     35 O35         4.4490    1.4760   -0.7120 oh        1 842     -0.592800
     36 H1          0.9830   -2.2840    1.0910 hc        1 842      0.129700
     37 H1A        -0.6290   -1.4740    0.7780 hc        1 842      0.129700
     38 H1B        -0.0360   -1.6840    2.4860 hc        1 842      0.129700
     39 HN3         2.5010   -0.8690    2.5360 hn        1 842      0.470300
     40 H4          4.3590    0.3920    1.6620 hx        1 842      0.134700
     41 H5          2.3730    1.1630   -0.6350 h1        1 842      0.087700
     42 H6          3.6300    2.6530    1.7760 hx        1 842      0.116700
     43 H6A         1.9580    2.8140    1.0160 hx        1 842      0.116700
     44 HN7         4.5500    3.7830   -0.0860 hn        1 842      0.461300
     45 H9          4.0440    7.2300    0.6950 hc        1 842      0.087200
     46 H9A         5.2750    5.9860    0.2540 hc        1 842      0.087200
     47 H10         4.5670    7.3620   -1.7070 hc        1 842      0.059950
     48 H10A        4.1720    5.6260   -1.9640 hc        1 842      0.059950
     49 H11         2.2680    7.9180   -1.1310 hc        1 842      0.079200
     50 H11A        2.2650    6.9900   -2.6800 hc        1 842      0.079200
     51 H12         0.4550    6.3050   -1.0480 hc        1 842      0.059950
     52 H12A        1.5130    4.9490   -1.5620 hc        1 842      0.059950
     53 H13         1.6480    6.6150    1.0470 hc        1 842      0.087200
     54 H13A        1.0950    4.8920    0.9110 hc        1 842      0.087200
     55 H15         5.5960    4.3620    1.8160 ha        1 842      0.150000
     56 H17         4.5720    4.9040    6.0070 ha        1 842      0.172000
     57 H18         2.3710    5.8250    5.3300 ha        1 842      0.171000
     58 H19         1.6960    5.9100    2.9650 ha        1 842      0.155000
     59 H22         8.9520    1.9780    3.7930 h4        1 842      0.061100
     60 H23         9.2190    3.5090    6.0720 ha        1 842      0.195000
     61 H24         6.8830    5.0350    6.1540 h4        1 842      0.195000
     62 H26         4.7330   -0.9910   -0.2560 hc        1 842      0.097200
     63 H26A        2.9610   -1.2420   -0.5800 hc        1 842      0.097200
     64 H28         2.5940   -3.5300   -0.3120 ha        1 842      0.158500
     65 H30         4.0830   -5.6470    3.1790 ha        1 842      0.203000
     66 H32         5.0710   -1.4600    2.6080 ha        1 842      0.158500
     67 HO35        4.4350    0.8200   -1.4270 ho        1 842      0.459000
     68 H321        2.2970    0.7930    2.6310 hn        1 842      0.470300
     69 H72         3.0900    3.9030   -0.8700 hn        1 842      0.461300
@<TRIPOS>BOND
     1    1    2 1   
     2    1   36 1   
     3    1   37 1   
     4    1   38 1   
     5    2    3 1   
     6    2   25 2   
     7    3    4 1   
     8    3   39 1   
     9    3   68 1   
    10    4    5 1   
    11    4   26 1   
    12    4   40 1   
    13    5    6 1   
    14    5   35 1   
    15    5   41 1   
    16    6    7 1   
    17    6   42 1   
    18    6   43 1   
    19    7    8 1   
    20    7   44 1   
    21    7   69 1   
    22    8    9 1   
    23    8   13 1   
    24    8   14 1   
    25    9   10 1   
    26    9   45 1   
    27    9   46 1   
    28   10   11 1   
    29   10   47 1   
    30   10   48 1   
    31   11   12 1   
    32   11   49 1   
    33   11   50 1   
    34   12   13 1   
    35   12   51 1   
    36   12   52 1   
    37   13   53 1   
    38   13   54 1   
    39   14   15 ar  
    40   14   19 ar  
    41   15   16 ar  
    42   15   55 1   
    43   16   17 ar  
    44   16   20 1   
    45   17   18 ar  
    46   17   56 1   
    47   18   19 ar  
    48   18   57 1   
    49   19   58 1   
    50   20   21 1   
    51   20   24 1   
    52   21   22 2   
    53   22   23 1   
    54   22   59 1   
    55   23   24 2   
    56   23   60 1   
    57   24   61 1   
    58   26   27 1   
    59   26   62 1   
    60   26   63 1   
    61   27   28 ar  
    62   27   32 ar  
    63   28   29 ar  
    64   28   64 1   
    65   29   30 ar  
    66   29   33 1   
    67   30   31 ar  
    68   30   65 1   
    69   31   32 ar  
    70   31   34 1   
    71   32   66 1   
    72   35   67 1   
@<TRIPOS>SUBSTRUCTURE
     1 842         1 TEMP              0 ****  ****    0 ROOT
