@<TRIPOS>MOLECULE
842
   67    70     1     0     0
SMALL
bcc


@<TRIPOS>ATOM
      1 C1          3.2200   -3.8960    1.2380 c3        1 842     -0.177100
      2 C2          2.6080   -2.9710    0.2130 c         1 842      0.654100
      3 N3          2.0970   -1.7690    0.6770 n         1 842     -0.566900
      4 C4          1.6010   -0.7260   -0.1880 c3        1 842      0.091700
      5 C5          0.3720   -1.1660   -1.0350 c3        1 842      0.114100
      6 C6         -0.7450   -1.7170   -0.1280 c3        1 842      0.136800
      7 N7         -2.0000   -1.9210   -0.8230 n3        1 842     -0.811200
      8 C8         -3.2100   -1.7020   -0.0200 c3        1 842      0.237500
      9 C9         -4.4680   -1.7020   -0.9330 c3        1 842     -0.064900
     10 C10        -4.6820   -3.0340   -1.6190 c3        1 842     -0.072900
     11 C11        -4.7810   -4.1680   -0.6200 c3        1 842     -0.073400
     12 C12        -3.5810   -4.1930    0.3030 c3        1 842     -0.072900
     13 C13        -3.3950   -2.8570    0.9920 c3        1 842     -0.064900
     14 C14        -3.2080   -0.3500    0.6990 ca        1 842     -0.091300
     15 C15        -2.9470    0.7980   -0.0610 ca        1 842     -0.137000
     16 C16        -2.9260    2.0680    0.5460 ca        1 842      0.022800
     17 C17        -3.1950    2.1880    1.9250 ca        1 842     -0.149000
     18 C18        -3.4630    1.0430    2.6650 ca        1 842     -0.116000
     19 C19        -3.4590   -0.2170    2.0660 ca        1 842     -0.129000
     20 N20        -2.6260    3.2300   -0.2190 na        1 842      0.143300
     21 N21        -1.7660    3.2390   -1.2590 nc        1 842     -0.514800
     22 C22        -1.7350    4.5100   -1.7240 cd        1 842      0.305200
     23 C23        -2.6170    5.3570   -0.9470 cd        1 842     -0.297300
     24 C24        -3.1730    4.5060    0.0120 cc        1 842     -0.130300
     25 O25         2.5350   -3.2950   -0.9890 o         1 842     -0.604100
     26 C26         2.6600   -0.1590   -1.1550 c3        1 842     -0.078100
     27 C27         3.7460    0.5660   -0.4420 ca        1 842     -0.025300
     28 C28         5.0440    0.0510   -0.4330 ca        1 842     -0.186000
     29 C29         6.0680    0.7500    0.2310 ca        1 842      0.153400
     30 C30         5.8060    1.9630    0.8880 ca        1 842     -0.213000
     31 C31         4.4960    2.4680    0.8650 ca        1 842      0.153400
     32 C32         3.4670    1.7760    0.2020 ca        1 842     -0.186000
     33 F33         7.3260    0.2470    0.2390 f         1 842     -0.135900
     34 F34         4.2230    3.6380    1.4900 f         1 842     -0.135900
     35 O35        -0.0840   -0.0720   -1.8100 oh        1 842     -0.596800
     36 H1          4.1000   -3.4130    1.7260 hc        1 842      0.067033
     37 H1A         2.4700   -4.1650    2.0210 hc        1 842      0.067033
     38 H1B         3.5560   -4.8290    0.7240 hc        1 842      0.067033
     39 HN3         2.3340   -1.4920    1.6000 hn        1 842      0.309500
     40 H4          1.2610    0.1190    0.4860 h1        1 842      0.050700
     41 H5          0.6890   -1.9380   -1.7940 h1        1 842      0.119700
     42 H6         -0.4220   -2.7240    0.2620 h1        1 842      0.043200
     43 H6A        -0.8540   -1.0270    0.7590 h1        1 842      0.043200
     44 HN7        -2.0390   -1.3620   -1.6570 hn        1 842      0.374800
     45 H9         -5.3530   -1.4630   -0.2880 hc        1 842      0.042200
     46 H9A        -4.3790   -0.8910   -1.7020 hc        1 842      0.042200
     47 H10        -5.6270   -2.9840   -2.2230 hc        1 842      0.047700
     48 H10A       -3.8400   -3.2370   -2.3310 hc        1 842      0.047700
     49 H11        -5.7180   -4.0510   -0.0130 hc        1 842      0.036200
     50 H11A       -4.8550   -5.1430   -1.1670 hc        1 842      0.036200
     51 H12        -3.7260   -4.9870    1.0830 hc        1 842      0.047700
     52 H12A       -2.6610   -4.4580   -0.2800 hc        1 842      0.047700
     53 H13        -2.5120   -2.9030    1.6800 hc        1 842      0.042200
     54 H13A       -4.3120   -2.6450    1.6030 hc        1 842      0.042200
     55 H15        -2.7560    0.7060   -1.1440 ha        1 842      0.160000
     56 H17        -3.1840    3.1720    2.4190 ha        1 842      0.142000
     57 H18        -3.6730    1.1330    3.7420 ha        1 842      0.138000
     58 H19        -3.6530   -1.0950    2.7000 ha        1 842      0.143000
     59 H22        -1.1120    4.7990   -2.5720 h4        1 842      0.047100
     60 H23        -2.7970    6.4150   -1.0910 ha        1 842      0.169000
     61 H24        -3.8970    4.6880    0.8050 h4        1 842      0.179000
     62 H26         3.0800   -0.9990   -1.7730 hc        1 842      0.088200
     63 H26A        2.1390    0.5490   -1.8570 hc        1 842      0.088200
     64 H28         5.2770   -0.8930   -0.9480 ha        1 842      0.157000
     65 H30         6.6090    2.5070    1.4040 ha        1 842      0.165000
     66 H32         2.4510    2.1970    0.1860 ha        1 842      0.157000
     67 HO35       -0.4030    0.6130   -1.2060 ho        1 842      0.407000
@<TRIPOS>BOND
     1    1    2 1   
     2    1   36 1   
     3    1   37 1   
     4    1   38 1   
     5    2    3 1   
     6    2   25 2   
     7    3    4 1   
     8    3   39 1   
     9    4    5 1   
    10    4   26 1   
    11    4   40 1   
    12    5    6 1   
    13    5   35 1   
    14    5   41 1   
    15    6    7 1   
    16    6   42 1   
    17    6   43 1   
    18    7    8 1   
    19    7   44 1   
    20    8    9 1   
    21    8   13 1   
    22    8   14 1   
    23    9   10 1   
    24    9   45 1   
    25    9   46 1   
    26   10   11 1   
    27   10   47 1   
    28   10   48 1   
    29   11   12 1   
    30   11   49 1   
    31   11   50 1   
    32   12   13 1   
    33   12   51 1   
    34   12   52 1   
    35   13   53 1   
    36   13   54 1   
    37   14   15 ar  
    38   14   19 ar  
    39   15   16 ar  
    40   15   55 1   
    41   16   17 ar  
    42   16   20 1   
    43   17   18 ar  
    44   17   56 1   
    45   18   19 ar  
    46   18   57 1   
    47   19   58 1   
    48   20   21 1   
    49   20   24 1   
    50   21   22 2   
    51   22   23 1   
    52   22   59 1   
    53   23   24 2   
    54   23   60 1   
    55   24   61 1   
    56   26   27 1   
    57   26   62 1   
    58   26   63 1   
    59   27   28 ar  
    60   27   32 ar  
    61   28   29 ar  
    62   28   64 1   
    63   29   30 ar  
    64   29   33 1   
    65   30   31 ar  
    66   30   65 1   
    67   31   32 ar  
    68   31   34 1   
    69   32   66 1   
    70   35   67 1   
@<TRIPOS>SUBSTRUCTURE
     1 842         1 TEMP              0 ****  ****    0 ROOT
