@<TRIPOS>MOLECULE
842
   67    62     1     0     0
SMALL
bcc


@<TRIPOS>ATOM
      1 C1         -2.5880    2.0630   -3.2220 c3        1 842     -0.247000
      2 C2         -1.8320    0.7770   -3.0700 c2        1 842      0.302000
      3 N3         -2.2150   -0.1720   -2.0400 n         1 842     -0.371000
      4 C4         -1.5840   -1.4120   -1.9670 c3        1 842      0.037000
      5 C5         -0.1510   -1.2290   -1.4770 c3        1 842      0.036000
      6 C6         -0.1610   -0.7080   -0.0160 c3        1 842     -0.105000
      7 N7          1.1570   -0.0830    0.2980 n3        1 842     -0.301000
      8 C8          1.0160    0.8310    1.4860 c3        1 842      0.073000
      9 C9          1.9260    2.0490    1.2800 c3        1 842     -0.165000
     10 C10         1.4440    2.9490    0.1560 c3        1 842     -0.162500
     11 C11        -0.0330    3.3410    0.3110 c3        1 842     -0.155000
     12 C12        -0.9400    2.1210    0.5180 c3        1 842     -0.162500
     13 C13        -0.4530    1.2180    1.6430 c3        1 842     -0.165000
     14 C14         1.4650    0.0960    2.7210 c2        1 842     -0.049000
     15 C15         2.8270    0.1090    3.0860 c2        1 842     -0.134000
     16 C16         3.2220   -0.4400    4.2840 c1        1 842      0.066000
     17 C17         2.2800   -1.0070    5.1330 c1        1 842     -0.122000
     18 C18         0.9350   -1.0200    4.7720 c1        1 842     -0.122000
     19 C19         0.5330   -0.4650    3.5620 c1        1 842     -0.136000
     20 N20         4.5550   -0.4810    4.6120 n2        1 842     -0.080000
     21 N21         5.4460   -1.4870    4.2850 n2        1 842     -0.080000
     22 C22         6.6650   -1.1650    4.8280 c1        1 842     -0.138500
     23 C23         6.5300    0.0340    5.4880 c1        1 842     -0.234000
     24 C24         5.2230    0.4510    5.3510 c1        1 842     -0.138500
     25 O25        -0.8040    0.5730   -3.7560 o         1 842     -0.385000
     26 C26        -1.5660   -2.0620   -3.3650 c3        1 842     -0.160000
     27 C27        -2.9350   -1.9740   -3.9780 c2        1 842     -0.026000
     28 C28        -3.0850   -2.0480   -5.3800 c2        1 842     -0.190000
     29 C29        -4.3620   -1.9550   -5.9560 c1        1 842      0.118000
     30 C30        -5.4880   -1.7890   -5.1380 c1        1 842     -0.211000
     31 C31        -5.3360   -1.7160   -3.7370 c1        1 842      0.121000
     32 C32        -4.0530   -1.8090   -3.1630 c2        1 842     -0.184000
     33 F33        -4.5130   -2.1130   -7.2840 f         1 842     -0.100000
     34 F34        -6.3590   -1.4400   -2.9900 f         1 842     -0.098000
     35 O35         0.5200   -2.4480   -1.5280 oh        1 842     -0.345000
     36 H1         -2.5480    2.5640   -2.3880 hc        1 842      0.107000
     37 H1A        -2.1880    2.5910   -3.9370 hc        1 842      0.107000
     38 H1B        -3.5440    1.8640   -3.4480 hc        1 842      0.107000
     39 HN3        -2.8410    0.0590   -1.4130 hn        1 842      0.223000
     40 H4         -2.0660   -1.9850   -1.3500 h1        1 842      0.105000
     41 H5          0.3000   -0.5930   -2.0400 h1        1 842      0.112000
     42 H6         -0.3240   -1.4680    0.6070 h1        1 842      0.086500
     43 H6A        -0.8720   -0.0420    0.0900 h1        1 842      0.086500
     44 HN7         1.4460    0.3950   -0.4180 hn        1 842      0.177000
     45 H9          2.8520    1.7290    1.0670 hc        1 842      0.086500
     46 H9A         1.9540    2.5850    2.1420 hc        1 842      0.086500
     47 H10         1.5630    2.4650   -0.7200 hc        1 842      0.086250
     48 H10A        1.9920    3.7660    0.1450 hc        1 842      0.086250
     49 H11        -0.3120    3.8040   -0.4750 hc        1 842      0.079000
     50 H11A       -0.1280    3.9560    1.1010 hc        1 842      0.079000
     51 H12        -0.9730    1.5880   -0.3380 hc        1 842      0.086250
     52 H12A       -1.8330    2.4290    0.7300 hc        1 842      0.086250
     53 H13        -0.5680    1.6930    2.5120 hc        1 842      0.086500
     54 H13A       -1.0070    0.3860    1.6510 hc        1 842      0.086500
     55 H15         3.4930    0.5110    2.4870 ha        1 842      0.151000
     56 H17         2.5760   -1.4170    6.0290 ha        1 842      0.148000
     57 H18         0.2560   -1.4290    5.3860 ha        1 842      0.148000
     58 H19        -0.4320   -0.4750    3.3030 ha        1 842      0.138000
     59 H22         7.4720   -1.6860    4.7590 DU        1 842      0.175000
     60 H23         7.2150    0.4950    5.9570 DU        1 842      0.175000
     61 H24         4.8570    1.2360    5.7030 DU        1 842      0.175000
     62 H26        -1.3080   -2.9940   -3.2850 hc        1 842      0.120000
     63 H26A       -0.9350   -1.6020   -3.9220 hc        1 842      0.120000
     64 H28        -2.3020   -2.1640   -5.9480 ha        1 842      0.154000
     65 H30        -6.3810   -1.7250   -5.5400 ha        1 842      0.167000
     66 H32        -3.9450   -1.7580   -2.1800 ha        1 842      0.161000
     67 HO35        1.2470   -2.3630   -2.0100 ho        1 842      0.223000
@<TRIPOS>BOND
     1    1    2 1   
     2    1   36 1   
     3    1   37 1   
     4    1   38 1   
     5    2    3 1   
     6    2   25 1   
     7    3    4 1   
     8    3   39 1   
     9    4    5 1   
    10    4   26 1   
    11    4   40 1   
    12    5    6 1   
    13    5   35 1   
    14    5   41 1   
    15    6    7 1   
    16    6   42 1   
    17    6   43 1   
    18    7    8 1   
    19    7   44 1   
    20    8    9 1   
    21    8   13 1   
    22    8   14 1   
    23    9   10 1   
    24    9   45 1   
    25    9   46 1   
    26   10   11 1   
    27   10   47 1   
    28   10   48 1   
    29   11   12 1   
    30   11   49 1   
    31   11   50 1   
    32   12   13 1   
    33   12   51 1   
    34   12   52 1   
    35   13   53 1   
    36   13   54 1   
    37   14   15 1   
    38   14   19 1   
    39   15   16 1   
    40   15   55 1   
    41   17   18 1   
    42   17   56 1   
    43   18   57 1   
    44   19   58 1   
    45   20   21 1   
    46   20   24 1   
    47   21   22 1   
    48   22   23 1   
    49   23   24 1   
    50   26   27 1   
    51   26   62 1   
    52   26   63 1   
    53   27   28 1   
    54   27   32 1   
    55   28   29 1   
    56   28   64 1   
    57   29   33 1   
    58   30   31 1   
    59   30   65 1   
    60   31   32 1   
    61   32   66 1   
    62   35   67 1   
@<TRIPOS>SUBSTRUCTURE
     1 842         1 TEMP              0 ****  ****    0 ROOT
