@<TRIPOS>MOLECULE
842
   69    72     1     0     0
SMALL
bcc


@<TRIPOS>ATOM
      1 C1          0.2920   -1.4770    1.4360 c3        1 842     -0.196100
      2 C2          0.9310   -0.1380    1.3550 c         1 842      0.574100
      3 N3          2.3120   -0.0140    1.9900 ny        1 842     -0.691800
      4 C4          3.4450    0.1670    1.0200 c3        1 842      0.089500
      5 C5          3.2540    1.3560    0.0360 c3        1 842      0.121100
      6 C6          3.0560    2.6860    0.8050 c3        1 842      0.086800
      7 N7          3.5260    3.8780    0.0610 ny        1 842     -0.758000
      8 C8          3.2560    5.2280    0.7620 c3        1 842      0.223500
      9 C9          4.1900    6.2840    0.1260 c3        1 842     -0.104900
     10 C10         3.8910    6.5340   -1.3360 c3        1 842     -0.095400
     11 C11         2.4440    6.9130   -1.5600 c3        1 842     -0.095400
     12 C12         1.4900    5.9070   -0.9540 c3        1 842     -0.095400
     13 C13         1.7980    5.6490    0.5070 c3        1 842     -0.104900
     14 C14         3.5870    5.1040    2.2310 ca        1 842     -0.149300
     15 C15         4.8530    4.6220    2.5930 ca        1 842     -0.166000
     16 C16         5.2110    4.4950    3.9500 ca        1 842      0.063800
     17 C17         4.3090    4.9410    4.9440 ca        1 842     -0.121000
     18 C18         3.0720    5.4490    4.5680 ca        1 842     -0.095000
     19 C19         2.6930    5.5100    3.2250 ca        1 842     -0.121000
     20 N20         6.4430    3.9100    4.3140 na        1 842      0.106300
     21 N21         7.0740    2.9770    3.5530 nc        1 842     -0.558800
     22 C22         8.2440    2.7090    4.1690 cd        1 842      0.343200
     23 C23         8.3870    3.5120    5.3740 cd        1 842     -0.264300
     24 C24         7.2230    4.2730    5.4390 cc        1 842     -0.104300
     25 O25         0.4940    0.8960    0.8740 o         1 842     -0.439100
     26 C26         3.7240   -1.1170    0.2230 c3        1 842     -0.061100
     27 C27         3.7840   -2.3420    1.0680 ca        1 842     -0.104300
     28 C28         3.1500   -3.5030    0.6250 ca        1 842     -0.217500
     29 C29         3.2670   -4.6930    1.3740 ca        1 842      0.194900
     30 C30         4.0030   -4.7180    2.5710 ca        1 842     -0.179000
     31 C31         4.6320   -3.5370    3.0020 ca        1 842      0.194900
     32 C32         4.5220   -2.3470    2.2550 ca        1 842     -0.217500
     33 F33         2.6590   -5.8130    0.9350 f         1 842     -0.095900
     34 F34         5.3460   -3.5340    4.1460 f         1 842     -0.095900
     35 O35         4.4410    1.4840   -0.7190 oh        1 842     -0.592800
     36 H1         -0.0240   -1.6930    2.4910 hc        1 842      0.129700
     37 H1A        -0.6260   -1.4780    0.7860 hc        1 842      0.129700
     38 H1B         0.9880   -2.2870    1.0890 hc        1 842      0.129700
     39 HN3         2.5120   -0.8740    2.5300 hn        1 842      0.470300
     40 H4          4.3640    0.3920    1.6510 hx        1 842      0.134700
     41 H5          2.3660    1.1680   -0.6330 h1        1 842      0.087700
     42 H6          3.6310    2.6520    1.7770 hx        1 842      0.116700
     43 H6A         1.9560    2.8130    1.0250 hx        1 842      0.116700
     44 HN7         3.0790    3.9090   -0.8630 hn        1 842      0.461300
     45 H9          4.0330    7.2330    0.7090 hc        1 842      0.087200
     46 H9A         5.2650    5.9920    0.2620 hc        1 842      0.087200
     47 H10         4.5500    7.3740   -1.6940 hc        1 842      0.059950
     48 H10A        4.1570    5.6370   -1.9550 hc        1 842      0.059950
     49 H11         2.2450    7.0010   -2.6620 hc        1 842      0.079200
     50 H11A        2.2510    7.9240   -1.1100 hc        1 842      0.079200
     51 H12         1.5000    4.9550   -1.5480 hc        1 842      0.059950
     52 H12A        0.4410    6.3080   -1.0260 hc        1 842      0.059950
     53 H13         1.6390    6.6130    1.0670 hc        1 842      0.087200
     54 H13A        1.0890    4.8900    0.9270 hc        1 842      0.087200
     55 H15         5.5930    4.3640    1.8170 ha        1 842      0.150000
     56 H17         4.5800    4.8920    6.0130 ha        1 842      0.172000
     57 H18         2.3750    5.8100    5.3440 ha        1 842      0.171000
     58 H19         1.6930    5.9020    2.9820 ha        1 842      0.155000
     59 H22         8.9590    1.9810    3.7770 h4        1 842      0.061100
     60 H23         9.2290    3.5050    6.0600 ha        1 842      0.195000
     61 H24         6.8900    5.0260    6.1540 h4        1 842      0.195000
     62 H26         4.7300   -0.9850   -0.2730 hc        1 842      0.097200
     63 H26A        2.9570   -1.2360   -0.5890 hc        1 842      0.097200
     64 H28         2.5940   -3.5260   -0.3270 ha        1 842      0.158500
     65 H30         4.1040   -5.6520    3.1500 ha        1 842      0.203000
     66 H32         5.0830   -1.4620    2.5870 ha        1 842      0.158500
     67 HO35        4.4240    0.8300   -1.4360 ho        1 842      0.459000
     68 H321        2.3060    0.7870    2.6320 hn        1 842      0.470300
     69 H72         4.5420    3.7890   -0.0840 hn        1 842      0.461300
@<TRIPOS>BOND
     1    1    2 1   
     2    1   36 1   
     3    1   37 1   
     4    1   38 1   
     5    2    3 1   
     6    2   25 2   
     7    3    4 1   
     8    3   39 1   
     9    3   68 1   
    10    4    5 1   
    11    4   26 1   
    12    4   40 1   
    13    5    6 1   
    14    5   35 1   
    15    5   41 1   
    16    6    7 1   
    17    6   42 1   
    18    6   43 1   
    19    7    8 1   
    20    7   44 1   
    21    7   69 1   
    22    8    9 1   
    23    8   13 1   
    24    8   14 1   
    25    9   10 1   
    26    9   45 1   
    27    9   46 1   
    28   10   11 1   
    29   10   47 1   
    30   10   48 1   
    31   11   12 1   
    32   11   49 1   
    33   11   50 1   
    34   12   13 1   
    35   12   51 1   
    36   12   52 1   
    37   13   53 1   
    38   13   54 1   
    39   14   15 ar  
    40   14   19 ar  
    41   15   16 ar  
    42   15   55 1   
    43   16   17 ar  
    44   16   20 1   
    45   17   18 ar  
    46   17   56 1   
    47   18   19 ar  
    48   18   57 1   
    49   19   58 1   
    50   20   21 1   
    51   20   24 1   
    52   21   22 2   
    53   22   23 1   
    54   22   59 1   
    55   23   24 2   
    56   23   60 1   
    57   24   61 1   
    58   26   27 1   
    59   26   62 1   
    60   26   63 1   
    61   27   28 ar  
    62   27   32 ar  
    63   28   29 ar  
    64   28   64 1   
    65   29   30 ar  
    66   29   33 1   
    67   30   31 ar  
    68   30   65 1   
    69   31   32 ar  
    70   31   34 1   
    71   32   66 1   
    72   35   67 1   
@<TRIPOS>SUBSTRUCTURE
     1 842         1 TEMP              0 ****  ****    0 ROOT
