@<TRIPOS>MOLECULE
843
   73    75     1     0     0
SMALL
bcc


@<TRIPOS>ATOM
      1 C1         -0.8580    0.7610    1.0850 ca        1 843     -0.064500
      2 C2          0.2580    1.1410    0.3870 ca        1 843     -0.323000
      3 C3          1.4970    0.4040    0.4940 ca        1 843      0.310000
      4 C4          1.4880   -0.7140    1.4070 ca        1 843     -0.323000
      5 C5          0.3490   -1.0710    2.0880 ca        1 843     -0.064500
      6 C6         -0.8570   -0.3680    1.9300 ca        1 843     -0.343000
      7 P7          3.3290    2.0500   -1.8660 p3        1 843      2.508000
      8 O8          3.4670    0.9850   -2.8810 o         1 843     -1.176000
      9 O9          4.5370    2.5630   -1.1850 o         1 843     -1.176000
     10 O10         2.1210    2.9130   -1.9110 o         1 843     -1.176000
     11 C11        -2.1030   -0.8130    2.5850 c3        1 843     -0.083000
     12 C12        -2.6110   -2.1490    1.9860 c3        1 843     -0.010000
     13 C13        -4.0700   -2.4110    2.4130 c2        1 843      0.313000
     14 N14        -5.0170   -1.4590    2.1150 n         1 843     -0.371000
     15 N15        -2.3400   -2.3330    0.5750 n         1 843     -0.316000
     16 C16        -2.7780   -1.4680   -0.4350 c2        1 843      0.309000
     17 C17        -1.8540   -1.2660   -1.6120 c3        1 843     -0.261000
     18 O18        -3.9070   -0.9290   -0.4260 o         1 843     -0.418000
     19 O19        -4.3480   -3.4230    3.0930 o         1 843     -0.414000
     20 C20        -6.3990   -1.5780    2.5040 c3        1 843      0.033000
     21 C21        -6.6540   -1.6130    4.0170 c3        1 843     -0.169000
     22 C22        -5.9660   -0.5370    4.8220 c3        1 843     -0.155000
     23 C23        -6.4710    0.8570    4.5310 c3        1 843     -0.170000
     24 C24        -6.1260    1.3270    3.1180 c3        1 843     -0.023000
     25 N25        -7.0260    0.8610    2.0880 n         1 843     -0.326000
     26 C26        -7.2600   -0.4800    1.8380 c2        1 843      0.300000
     27 C27        -7.4710    1.8560    1.1280 c3        1 843      0.019000
     28 C28        -6.3450    2.5700    0.4340 ca        1 843     -0.135000
     29 O29        -8.1870   -0.8340    1.0790 o         1 843     -0.382000
     30 O30         2.5280    0.7170   -0.1810 o         1 843     -0.532000
     31 C54        -6.2070    3.9560    0.5390 ca        1 843     -0.122000
     32 C55        -5.1340    4.6060   -0.0680 ca        1 843     -0.125500
     33 C56        -4.1700    3.8780   -0.7810 cp        1 843     -0.005000
     34 C57        -4.3310    2.4890   -0.9070 ca        1 843     -0.125500
     35 C58        -5.4090    1.8430   -0.3100 ca        1 843     -0.122000
     36 C63        -2.9990    4.5330   -1.3600 cq        1 843     -0.071000
     37 C64        -1.7490    3.8980   -1.3140 ca        1 843     -0.131000
     38 C65        -0.6200    4.5010   -1.8690 ca        1 843     -0.131000
     39 C66        -0.7410    5.7540   -2.4720 ca        1 843     -0.132000
     40 C67        -1.9790    6.3970   -2.5190 ca        1 843     -0.131000
     41 C68        -3.1050    5.7930   -1.9650 ca        1 843     -0.131000
     42 H1         -1.7890    1.3440    0.9840 ha        1 843      0.076500
     43 H2          0.2630    2.0230   -0.2720 ha        1 843      0.132500
     44 H4          2.4250   -1.2690    1.5370 ha        1 843      0.132500
     45 H5          0.3680   -1.9340    2.7730 ha        1 843      0.076500
     46 H111       -1.9450   -0.9890    3.6820 hc        1 843      0.066500
     47 H112       -2.8860   -0.0160    2.4820 hc        1 843      0.066500
     48 H12        -2.0240   -2.9790    2.4980 h1        1 843      0.116000
     49 H14        -4.7910   -0.7740    1.4220 hn        1 843      0.267000
     50 H15        -1.3610   -2.5450    0.4650 hn        1 843      0.219000
     51 H171       -1.0390   -0.5570   -1.2970 hc        1 843      0.119333
     52 H172       -2.4240   -0.8120   -2.4570 hc        1 843      0.119333
     53 H173       -1.3900   -2.2220   -1.9510 hc        1 843      0.119333
     54 H20        -6.8020   -2.5610    2.0950 h1        1 843      0.114000
     55 H211       -7.7630   -1.5570    4.1730 hc        1 843      0.094000
     56 H212       -6.2970   -2.6130    4.3900 hc        1 843      0.094000
     57 H221       -6.1320   -0.7550    5.9120 hc        1 843      0.085000
     58 H222       -4.8580   -0.5790    4.6460 hc        1 843      0.085000
     59 H231       -5.9830    1.5720    5.2450 hc        1 843      0.078500
     60 H232       -7.5770    0.9090    4.7070 hc        1 843      0.078500
     61 H241       -6.1630    2.4560    3.1090 h1        1 843      0.098000
     62 H242       -5.0600    1.0370    2.8820 h1        1 843      0.098000
     63 H271       -8.1160    1.3470    0.3530 h1        1 843      0.096000
     64 H272       -8.1110    2.6060    1.6760 h1        1 843      0.096000
     65 H54        -6.9410    4.5390    1.1150 ha        1 843      0.136000
     66 H55        -5.0260    5.6960    0.0320 ha        1 843      0.142000
     67 H57        -3.5870    1.8980   -1.4670 ha        1 843      0.142000
     68 H58        -5.5020    0.7480   -0.4090 ha        1 843      0.136000
     69 H64        -1.6440    2.9140   -0.8240 ha        1 843      0.131000
     70 H65         0.3690    3.9750   -1.8320 ha        1 843      0.181500
     71 H66         0.1470    6.2300   -2.9120 ha        1 843      0.130000
     72 H67        -2.0700    7.3830   -2.9950 ha        1 843      0.181500
     73 H68        -4.0800    6.2970   -2.0110 ha        1 843      0.131000
@<TRIPOS>BOND
     1    1    2 1   
     2    1    6 1   
     3    1   42 1   
     4    2    3 1   
     5    2   43 1   
     6    3    4 1   
     7    3   30 1   
     8    4    5 1   
     9    4   44 1   
    10    5    6 1   
    11    5   45 1   
    12    6   11 1   
    13    7    8 1   
    14    7    9 1   
    15    7   10 1   
    16   11   12 1   
    17   11   46 1   
    18   11   47 1   
    19   12   13 1   
    20   12   15 1   
    21   12   48 1   
    22   13   14 1   
    23   13   19 1   
    24   14   20 1   
    25   14   49 1   
    26   15   16 1   
    27   15   50 1   
    28   16   17 1   
    29   16   18 1   
    30   17   51 1   
    31   17   52 1   
    32   17   53 1   
    33   20   21 1   
    34   20   26 1   
    35   20   54 1   
    36   21   22 1   
    37   21   55 1   
    38   21   56 1   
    39   22   23 1   
    40   22   57 1   
    41   22   58 1   
    42   23   24 1   
    43   23   59 1   
    44   23   60 1   
    45   24   25 1   
    46   24   61 1   
    47   24   62 1   
    48   25   26 1   
    49   25   27 1   
    50   26   29 1   
    51   27   28 1   
    52   27   63 1   
    53   27   64 1   
    54   28   31 1   
    55   28   35 1   
    56   31   32 1   
    57   31   65 1   
    58   32   33 1   
    59   32   66 1   
    60   33   34 1   
    61   33   36 1   
    62   34   35 1   
    63   34   67 1   
    64   35   68 1   
    65   36   37 1   
    66   36   41 1   
    67   37   38 1   
    68   37   69 1   
    69   38   39 1   
    70   38   70 1   
    71   39   40 1   
    72   39   71 1   
    73   40   41 1   
    74   40   72 1   
    75   41   73 1   
@<TRIPOS>SUBSTRUCTURE
     1 843         1 TEMP              0 ****  ****    0 ROOT
