@<TRIPOS>MOLECULE
843
   73    66     1     0     0
SMALL
bcc


@<TRIPOS>ATOM
      1 C1         -0.3320   -7.2530   -0.2530 c1        1 843     -0.064000
      2 C2         -1.2840   -8.1830   -0.6500 c1        1 843     -0.322000
      3 C3         -1.9670   -8.0100   -1.8520 c1        1 843      0.314000
      4 C4         -1.6950   -6.9050   -2.6560 c1        1 843     -0.148833
      5 C5         -0.7400   -5.9730   -2.2580 c1        1 843     -0.148833
      6 C6         -0.0590   -6.1440   -1.0600 c1        1 843     -0.342000
      7 P7         -2.6780  -10.2140   -3.0210 p3        1 843      2.492000
      8 O8         -3.8650  -11.1440   -3.0070 os        1 843     -1.164000
      9 O9         -1.4930  -10.9020   -2.3880 o         1 843     -1.170500
     10 O10        -2.3440   -9.8450   -4.4510 o         1 843     -1.170500
     11 C11        -0.1100   -4.9210   -0.1570 c3        1 843     -0.061000
     12 C12         0.9270   -3.9030   -0.6180 c3        1 843      0.006000
     13 C13         0.3790   -2.4950   -0.4190 c2        1 843      0.308000
     14 N14         1.2720   -1.3960   -0.2890 n         1 843     -0.379000
     15 N15         2.1120   -4.0600    0.1400 n         1 843     -0.347000
     16 C16         3.3870   -4.2010   -0.5320 c2        1 843      0.305000
     17 C17         4.6160   -4.6620    0.2490 c3        1 843     -0.265000
     18 O18         3.4790   -3.9510   -1.7280 o         1 843     -0.452000
     19 O19        -0.8020   -2.3070   -0.4280 o         1 843     -0.409000
     20 C20         0.6950    0.0920   -0.1530 c3        1 843      0.003000
     21 C21        -0.4870    0.1040    0.8630 c3        1 843     -0.173000
     22 C22         0.0990    0.3050    2.4780 c3        1 843     -0.169000
     23 C23         0.7480    1.9360    2.7330 c3        1 843     -0.193000
     24 C24         1.4530    2.4620    1.4540 c3        1 843     -0.050000
     25 N25         0.9880    1.9610    0.4970 n         1 843     -0.320000
     26 C26         1.4980    0.7770    0.3070 c2        1 843      0.277000
     27 C27         0.1720    2.6760   -0.4940 c3        1 843     -0.019000
     28 C28        -0.0240    4.1620   -0.0360 c2        1 843     -0.063000
     29 O29         2.3520    0.3330    1.0330 o         1 843     -0.272000
     30 O30        -3.0280   -8.8960   -2.1990 os        1 843     -0.538000
     31 C54         0.0660    5.0630   -1.0960 c2        1 843     -0.105000
     32 C55        -0.2930    6.4010   -0.9090 c1        1 843     -0.123000
     33 C56        -0.7450    6.8380    0.3460 c1        1 843     -0.038500
     34 C57        -0.8350    5.9410    1.4030 c1        1 843     -0.122500
     35 C58        -0.4740    4.5970    1.2150 c1        1 843     -0.131000
     36 C63        -1.1930    8.1590    0.5090 c1        1 843     -0.038500
     37 C64        -0.4110    9.2160    0.0630 c1        1 843     -0.148833
     38 C65        -0.8060   10.5210    0.3060 c1        1 843     -0.148833
     39 C66        -1.9870   10.7740    0.9970 c1        1 843     -0.148833
     40 C67        -2.7650    9.7260    1.4410 c1        1 843     -0.148833
     41 C68        -2.3680    8.4110    1.1960 c1        1 843     -0.122500
     42 H1          0.1170   -7.3470    0.6350 ha        1 843      0.076000
     43 H2         -1.5260   -8.9230   -0.0490 ha        1 843      0.117000
     44 H4         -2.1420   -6.8110   -3.5330 ha        1 843      0.117167
     45 H5         -0.5150   -5.2190   -2.8480 ha        1 843      0.117167
     46 H111        0.0830   -5.1870    0.7600 hc        1 843      0.072000
     47 H112       -1.0050   -4.5190   -0.2010 hc        1 843      0.072000
     48 H12         1.1240   -4.0440   -1.5610 h1        1 843      0.111000
     49 H14         2.1620   -1.5320   -0.3410 hn        1 843      0.270000
     50 H15         2.0750   -4.0530    1.0530 hn        1 843      0.255000
     51 H171        5.4190   -4.2600   -0.1390 hc        1 843      0.135667
     52 H172        4.5330   -4.3850    1.1800 hc        1 843      0.135667
     53 H173        4.6840   -5.6300    0.2030 hc        1 843      0.135667
     54 H20         0.4540    0.2880   -1.0920 h1        1 843      0.135000
     55 H211       -1.0890    0.8390    0.6460 hc        1 843      0.096000
     56 H212       -0.9760   -0.7440    0.7990 hc        1 843      0.096000
     57 H221        0.7940   -0.3390    2.6430 hc        1 843      0.095000
     58 H222       -0.6240    0.1530    3.0970 hc        1 843      0.095000
     59 H231        1.3980    1.9140    3.4760 hc        1 843      0.076500
     60 H232        0.0100    2.5430    2.9670 hc        1 843      0.076500
     61 H241        1.3410    3.4310    1.3980 h1        1 843      0.095500
     62 H242        2.4130    2.2470    1.4990 h1        1 843      0.095500
     63 H271       -0.7010    2.2410   -0.5730 h1        1 843      0.091000
     64 H272        0.6310    2.6600   -1.3740 h1        1 843      0.091000
     65 H54         0.3870    4.7530   -1.9880 ha        1 843      0.157000
     66 H55        -0.2570    7.0280   -1.6610 ha        1 843      0.131000
     67 H57        -1.0940    6.2610    2.2990 ha        1 843      0.132000
     68 H58        -0.5370    3.9700    1.9540 ha        1 843      0.133000
     69 H64         0.4130    9.0410   -0.4200 ha        1 843      0.117167
     70 H65        -0.2570   11.2610   -0.0070 ha        1 843      0.117167
     71 H66        -2.2660   11.6970    1.1690 ha        1 843      0.117167
     72 H67        -3.5900    9.9030    1.9230 ha        1 843      0.117167
     73 H68        -2.9160    7.6710    1.5090 ha        1 843      0.132000
@<TRIPOS>BOND
     1    1    6 1   
     2    1   42 1   
     3    2    3 1   
     4    2   43 1   
     5    3   30 1   
     6    4    5 1   
     7    4   44 1   
     8    5   45 1   
     9    6   11 1   
    10    7    9 1   
    11    7   10 1   
    12    7   30 1   
    13   11   12 1   
    14   11   46 1   
    15   11   47 1   
    16   12   13 1   
    17   12   15 1   
    18   12   48 1   
    19   13   14 1   
    20   13   19 1   
    21   14   20 1   
    22   14   49 1   
    23   15   16 1   
    24   15   50 1   
    25   16   17 1   
    26   16   18 1   
    27   17   51 1   
    28   17   52 1   
    29   17   53 1   
    30   20   21 1   
    31   20   26 1   
    32   20   54 1   
    33   21   22 1   
    34   21   55 1   
    35   21   56 1   
    36   22   23 1   
    37   22   57 1   
    38   22   58 1   
    39   23   24 1   
    40   23   59 1   
    41   23   60 1   
    42   24   25 1   
    43   24   61 1   
    44   24   62 1   
    45   25   26 1   
    46   25   27 1   
    47   26   29 1   
    48   27   28 1   
    49   27   63 1   
    50   27   64 1   
    51   28   31 1   
    52   28   35 1   
    53   31   32 1   
    54   31   65 1   
    55   32   66 1   
    56   33   34 1   
    57   34   67 1   
    58   35   68 1   
    59   36   41 1   
    60   37   38 1   
    61   37   69 1   
    62   38   70 1   
    63   39   40 1   
    64   39   71 1   
    65   40   72 1   
    66   41   73 1   
@<TRIPOS>SUBSTRUCTURE
     1 843         1 TEMP              0 ****  ****    0 ROOT
