@<TRIPOS>MOLECULE
843
   75    78     1     0     0
SMALL
bcc


@<TRIPOS>ATOM
      1 C1          0.0000    0.0000    0.0000 ca        1 843     -0.098500
      2 C2          1.3810    0.0000    0.0000 ca        1 843     -0.125500
      3 C3          2.0750    0.0000    1.2020 ca        1 843      0.243100
      4 C4          1.3770    0.0000    2.4010 ca        1 843     -0.125500
      5 C5         -0.0040    0.0060    2.3960 ca        1 843     -0.098500
      6 C6         -0.6920    0.0010    1.1970 ca        1 843     -0.224300
      7 P7          3.8980    1.5410    1.2040 p5        1 843      0.807900
      8 O8          5.5070    1.6170    1.2070 o         1 843     -0.451500
      9 O9          3.3710    2.2150    2.4110 o         1 843     -0.451500
     10 O10         3.3290    2.2730   -0.1110 o         1 843     -0.451500
     11 C11        -2.1990   -0.0000    1.1950 c3        1 843      0.023900
     12 C12        -2.7080   -1.4420    1.1940 c3        1 843     -0.024500
     13 C13        -4.2140   -1.4430    1.1920 c         1 843     -0.024900
     14 N14        -4.8910   -1.4430    2.3570 ny        1 843      0.180200
     15 N15        -2.2180   -2.1340   -0.0010 ny        1 843      0.127200
     16 C16        -2.5400   -1.6740   -1.2260 c         1 843      0.296100
     17 C17        -2.0380   -2.3840   -2.4550 c3        1 843     -0.055100
     18 O18        -3.2390   -0.6870   -1.3390 o         1 843     -0.409100
     19 O19        -4.8200   -1.4430    0.1400 o         1 843     -0.635100
     20 C20        -6.3560   -1.4430    2.3550 c3        1 843     -0.100500
     21 C21        -6.8720   -1.8580    3.7340 c3        1 843     -0.031400
     22 C22        -5.9570   -1.3410    4.8290 c3        1 843     -0.051400
     23 C23        -5.9510    0.1710    4.9590 c3        1 843     -0.056400
     24 C24        -5.3250    0.8230    3.7240 c3        1 843      0.005000
     25 N25        -6.3710    1.0020    2.7040 n         1 843     -0.145800
     26 C26        -6.8650   -0.0510    2.0450 c         1 843      0.626500
     27 C27        -6.8750    2.3440    2.4080 c3        1 843      0.120300
     28 C28        -6.0480    2.9580    1.3070 ca        1 843     -0.157300
     29 O29        -7.7220    0.1110    1.2040 o         1 843     -0.615500
     30 O30         3.4330   -0.0000    1.2040 os        1 843     -0.353500
     31 C54        -4.9270    3.7050    1.6220 ca        1 843     -0.081000
     32 C55        -4.1630    4.2650    0.6180 ca        1 843     -0.093000
     33 C56        -4.5290    4.0870   -0.7140 cp        1 843     -0.008000
     34 C57        -5.6630    3.3390   -1.0250 ca        1 843     -0.093000
     35 C58        -6.4170    2.7790   -0.0140 ca        1 843     -0.081000
     36 C63        -3.7160    4.6910   -1.7980 cp        1 843     -0.048000
     37 C64        -3.4740    3.9800   -2.9710 ca        1 843     -0.089000
     38 C65        -2.7230    4.5500   -3.9780 ca        1 843     -0.097500
     39 C66        -2.1980    5.8190   -3.8190 ca        1 843     -0.090000
     40 C67        -2.4300    6.5280   -2.6550 ca        1 843     -0.097500
     41 C68        -3.1860    5.9700   -1.6440 ca        1 843     -0.089000
     42 H1         -0.5400    0.0660   -0.9370 ha        1 843      0.092000
     43 H2          1.9230   -0.0000   -0.9380 ha        1 843      0.132000
     44 H4          1.9150   -0.0460    3.3400 ha        1 843      0.132000
     45 H5         -0.5490    0.0060    3.3330 ha        1 843      0.092000
     46 H111       -2.5610    0.5100    2.0790 hc        1 843      0.051200
     47 H112       -2.5590    0.5110    0.3100 hc        1 843      0.051200
     48 H12        -2.3490   -1.9530    2.0790 hx        1 843      0.036700
     49 H14        -4.6000   -0.6300    2.8620 hn        1 843      0.217300
     50 H15        -1.2190   -2.1380    0.0550 hn        1 843      0.244300
     51 H171       -2.8390   -2.9740   -2.8850 hc        1 843      0.038033
     52 H172       -1.2150   -3.0350   -2.1850 hc        1 843      0.038033
     53 H173       -1.6970   -1.6550   -3.1800 hc        1 843      0.038033
     54 H20        -6.7220   -2.1370    1.6080 hx        1 843      0.116700
     55 H211       -6.9140   -2.9400    3.7870 hc        1 843      0.047200
     56 H212       -7.8660   -1.4500    3.8780 hc        1 843      0.047200
     57 H221       -6.2760   -1.7660    5.7730 hc        1 843      0.021700
     58 H222       -4.9470   -1.6720    4.6180 hc        1 843      0.021700
     59 H231       -5.3790    0.4490    5.8350 hc        1 843      0.043200
     60 H232       -6.9710    0.5220    5.0660 hc        1 843      0.043200
     61 H241       -4.9120    1.7880    3.9940 h1        1 843      0.045700
     62 H242       -4.5430    0.1830    3.3330 h1        1 843      0.045700
     63 H271       -6.8060    2.9600    3.2970 h1        1 843      0.039700
     64 H272       -7.9090    2.2810    2.0910 h1        1 843      0.039700
     65 H54        -4.6430    3.8430    2.6580 ha        1 843      0.111000
     66 H55        -3.2840    4.8480    0.8650 ha        1 843      0.117500
     67 H57        -5.9520    3.1970   -2.0590 ha        1 843      0.117500
     68 H58        -7.3150    2.2230   -0.2540 ha        1 843      0.111000
     69 H64        -3.8840    2.9850   -3.0970 ha        1 843      0.107500
     70 H65        -2.5420    4.0010   -4.8940 ha        1 843      0.103500
     71 H66        -1.6090    6.2630   -4.6120 ha        1 843      0.104000
     72 H67        -2.0180    7.5230   -2.5370 ha        1 843      0.103500
     73 H68        -3.4260    6.5540   -0.7640 ha        1 843      0.107500
     74 H142       -4.6010   -2.2580    2.8610 hn        1 843      0.217300
     75 H152       -2.5510   -3.0760    0.0510 hn        1 843      0.244300
@<TRIPOS>BOND
     1    1    2 ar  
     2    1    6 ar  
     3    1   42 1   
     4    2    3 ar  
     5    2   43 1   
     6    3    4 ar  
     7    3   30 1   
     8    4    5 ar  
     9    4   44 1   
    10    5    6 ar  
    11    5   45 1   
    12    6   11 1   
    13    7    8 1   
    14    7    9 1   
    15    7   10 1   
    16    7   30 1   
    17   11   12 1   
    18   11   46 1   
    19   11   47 1   
    20   12   13 1   
    21   12   15 1   
    22   12   48 1   
    23   13   14 1   
    24   13   19 2   
    25   14   20 1   
    26   14   49 1   
    27   14   74 1   
    28   15   16 1   
    29   15   50 1   
    30   15   75 1   
    31   16   17 1   
    32   16   18 2   
    33   17   51 1   
    34   17   52 1   
    35   17   53 1   
    36   20   21 1   
    37   20   26 1   
    38   20   54 1   
    39   21   22 1   
    40   21   55 1   
    41   21   56 1   
    42   22   23 1   
    43   22   57 1   
    44   22   58 1   
    45   23   24 1   
    46   23   59 1   
    47   23   60 1   
    48   24   25 1   
    49   24   61 1   
    50   24   62 1   
    51   25   26 1   
    52   25   27 1   
    53   26   29 2   
    54   27   28 1   
    55   27   63 1   
    56   27   64 1   
    57   28   31 ar  
    58   28   35 ar  
    59   31   32 ar  
    60   31   65 1   
    61   32   33 ar  
    62   32   66 1   
    63   33   34 ar  
    64   33   36 1   
    65   34   35 ar  
    66   34   67 1   
    67   35   68 1   
    68   36   37 ar  
    69   36   41 ar  
    70   37   38 ar  
    71   37   69 1   
    72   38   39 ar  
    73   38   70 1   
    74   39   40 ar  
    75   39   71 1   
    76   40   41 ar  
    77   40   72 1   
    78   41   73 1   
@<TRIPOS>SUBSTRUCTURE
     1 843         1 TEMP              0 ****  ****    0 ROOT
