@<TRIPOS>MOLECULE
843
   73    75     1     0     0
SMALL
bcc


@<TRIPOS>ATOM
      1 C1         -0.6810    0.1860   -1.4220 ca        1 843     -0.064000
      2 C2         -0.1560    0.4010   -2.6690 ca        1 843     -0.323000
      3 C3         -0.9860    0.3530   -3.8510 ca        1 843      0.312000
      4 C4         -2.3810    0.0560   -3.6300 ca        1 843     -0.323000
      5 C5         -2.8770   -0.1500   -2.3640 ca        1 843     -0.064000
      6 C6         -2.0540   -0.0760   -1.2290 ca        1 843     -0.342000
      7 P7          1.3890    1.1000   -6.1830 p3        1 843      2.507000
      8 O8          1.0140    2.4930   -6.5100 o         1 843     -1.175000
      9 O9          1.3030    0.0630   -7.2320 o         1 843     -1.175000
     10 O10         2.2920    0.8660   -5.0280 o         1 843     -1.175000
     11 C11        -2.5850   -0.2600    0.1360 c3        1 843     -0.082000
     12 C12        -3.2740    1.0230    0.6630 c3        1 843     -0.009000
     13 C13        -3.5400    0.8970    2.1800 c2        1 843      0.312000
     14 N14        -2.4690    0.6660    3.0070 n         1 843     -0.375000
     15 N15        -2.6580    2.2700    0.2590 n         1 843     -0.316000
     16 C16        -1.3090    2.5830    0.4550 c2        1 843      0.311000
     17 C17        -0.6480    3.4520   -0.5890 c3        1 843     -0.261000
     18 O18        -0.6700    2.2340    1.4730 o         1 843     -0.417000
     19 O19        -4.7140    0.9270    2.6100 o         1 843     -0.416000
     20 C20        -2.5840    0.4360    4.4240 c3        1 843      0.036000
     21 C21        -3.5040   -0.7190    4.8390 c3        1 843     -0.170000
     22 C22        -3.2860   -2.0230    4.1100 c3        1 843     -0.155000
     23 C23        -1.9540   -2.6690    4.4050 c3        1 843     -0.170000
     24 C24        -0.7730   -1.8670    3.8600 c3        1 843     -0.024000
     25 N25        -0.3480   -0.7680    4.6970 n         1 843     -0.325000
     26 C26        -1.1870    0.2690    5.0680 c2        1 843      0.299000
     27 C27         1.0830   -0.6420    4.9100 c3        1 843      0.020000
     28 C28         1.8800   -0.5780    3.6370 ca        1 843     -0.135000
     29 O29        -0.8390    1.0860    5.9470 o         1 843     -0.383000
     30 O30        -0.5140    0.5640   -5.0130 o         1 843     -0.532000
     31 C54         2.8880   -1.5110    3.3800 ca        1 843     -0.122000
     32 C55         3.5960   -1.4710    2.1810 ca        1 843     -0.125500
     33 C56         3.3000   -0.5060    1.2080 cp        1 843     -0.004000
     34 C57         2.3020    0.4430    1.4820 ca        1 843     -0.125500
     35 C58         1.6070    0.4120    2.6870 ca        1 843     -0.122000
     36 C63         3.9860   -0.4890   -0.0820 cq        1 843     -0.071000
     37 C64         3.2730   -0.1820   -1.2500 ca        1 843     -0.131000
     38 C65         3.9140   -0.1390   -2.4900 ca        1 843     -0.131000
     39 C66         5.2800   -0.4160   -2.5620 ca        1 843     -0.132000
     40 C67         5.9970   -0.7310   -1.4070 ca        1 843     -0.131000
     41 C68         5.3570   -0.7690   -0.1710 ca        1 843     -0.131000
     42 H1         -0.0240    0.2260   -0.5360 ha        1 843      0.077000
     43 H2          0.9160    0.5990   -2.8250 ha        1 843      0.132000
     44 H4         -3.0310   -0.0060   -4.5100 ha        1 843      0.132000
     45 H5         -3.9460   -0.3780   -2.2260 ha        1 843      0.077000
     46 H111       -1.7490   -0.5580    0.8220 hc        1 843      0.068000
     47 H112       -3.3550   -1.0760    0.1650 hc        1 843      0.068000
     48 H12        -4.3140    1.0500    0.2030 h1        1 843      0.117000
     49 H14        -1.5500    0.8010    2.6360 hn        1 843      0.269000
     50 H15        -2.9500    2.4900   -0.6780 hn        1 843      0.217000
     51 H171        0.2780    3.9040   -0.1620 hc        1 843      0.117667
     52 H172       -0.3680    2.7920   -1.4570 hc        1 843      0.117667
     53 H173       -1.3210    4.2630   -0.9510 hc        1 843      0.117667
     54 H20        -3.0190    1.3730    4.9020 h1        1 843      0.111000
     55 H211       -4.5620   -0.3850    4.6510 hc        1 843      0.095000
     56 H212       -3.3760   -0.8720    5.9420 hc        1 843      0.095000
     57 H221       -3.3890   -1.8600    3.0030 hc        1 843      0.085500
     58 H222       -4.1030   -2.7340    4.4120 hc        1 843      0.085500
     59 H231       -1.9250   -3.6760    3.9090 hc        1 843      0.079000
     60 H232       -1.8440   -2.8360    5.5080 hc        1 843      0.079000
     61 H241       -1.0200   -1.5050    2.8190 h1        1 843      0.099000
     62 H242        0.1060   -2.5690    3.7580 h1        1 843      0.099000
     63 H271        1.4230   -1.5270    5.5220 h1        1 843      0.095500
     64 H272        1.2780    0.2930    5.5120 h1        1 843      0.095500
     65 H54         3.1180   -2.2890    4.1220 ha        1 843      0.135000
     66 H55         4.3800   -2.2170    1.9820 ha        1 843      0.142000
     67 H57         2.0500    1.2110    0.7320 ha        1 843      0.142000
     68 H58         0.8200    1.1640    2.8730 ha        1 843      0.135000
     69 H64         2.1880    0.0180   -1.2020 ha        1 843      0.132000
     70 H65         3.3310    0.1240   -3.4090 ha        1 843      0.181000
     71 H66         5.7870   -0.3820   -3.5370 ha        1 843      0.130000
     72 H67         7.0730   -0.9490   -1.4690 ha        1 843      0.181000
     73 H68         5.9270   -1.0070    0.7380 ha        1 843      0.132000
@<TRIPOS>BOND
     1    1    2 1   
     2    1    6 1   
     3    1   42 1   
     4    2    3 1   
     5    2   43 1   
     6    3    4 1   
     7    3   30 1   
     8    4    5 1   
     9    4   44 1   
    10    5    6 1   
    11    5   45 1   
    12    6   11 1   
    13    7    8 1   
    14    7    9 1   
    15    7   10 1   
    16   11   12 1   
    17   11   46 1   
    18   11   47 1   
    19   12   13 1   
    20   12   15 1   
    21   12   48 1   
    22   13   14 1   
    23   13   19 1   
    24   14   20 1   
    25   14   49 1   
    26   15   16 1   
    27   15   50 1   
    28   16   17 1   
    29   16   18 1   
    30   17   51 1   
    31   17   52 1   
    32   17   53 1   
    33   20   21 1   
    34   20   26 1   
    35   20   54 1   
    36   21   22 1   
    37   21   55 1   
    38   21   56 1   
    39   22   23 1   
    40   22   57 1   
    41   22   58 1   
    42   23   24 1   
    43   23   59 1   
    44   23   60 1   
    45   24   25 1   
    46   24   61 1   
    47   24   62 1   
    48   25   26 1   
    49   25   27 1   
    50   26   29 1   
    51   27   28 1   
    52   27   63 1   
    53   27   64 1   
    54   28   31 1   
    55   28   35 1   
    56   31   32 1   
    57   31   65 1   
    58   32   33 1   
    59   32   66 1   
    60   33   34 1   
    61   33   36 1   
    62   34   35 1   
    63   34   67 1   
    64   35   68 1   
    65   36   37 1   
    66   36   41 1   
    67   37   38 1   
    68   37   69 1   
    69   38   39 1   
    70   38   70 1   
    71   39   40 1   
    72   39   71 1   
    73   40   41 1   
    74   40   72 1   
    75   41   73 1   
@<TRIPOS>SUBSTRUCTURE
     1 843         1 TEMP              0 ****  ****    0 ROOT
