@<TRIPOS>MOLECULE
844
   57    54     1     0     0
SMALL
bcc


@<TRIPOS>ATOM
      1 C01         4.3030    2.7860   -3.4360 c3        1 844     -0.075000
      2 O02         5.1990    2.2030   -2.4260 os        1 844     -0.220000
      3 C03         4.7200    1.0080   -1.8460 c2        1 844      0.060000
      4 C04         5.0940   -0.2470   -2.3870 c1        1 844      0.001000
      5 O05         5.8940   -0.3090   -3.5300 o         1 844     -0.230000
      6 C06         7.2690   -0.3340   -3.2500 c3        1 844     -0.076000
      7 C07         4.6260   -1.4200   -1.8040 c2        1 844      0.043000
      8 C08         3.8020   -1.3610   -0.7050 c1        1 844     -0.131000
      9 C09         3.4260   -0.1030   -0.1600 c1        1 844     -0.017000
     10 C10         3.8850    1.0620   -0.7310 c2        1 844     -0.133000
     11 C11         2.5150   -0.0460    1.0590 c2        1 844     -0.087000
     12 C12         1.1770   -0.1650    0.9090 c2        1 844     -0.079000
     13 C13         0.3730   -0.2000    2.0050 c1        1 844     -0.072000
     14 C14         0.9260   -0.1130    3.2750 c1        1 844     -0.063000
     15 N15         2.2510    0.0040    3.4200 n1        1 844     -0.136000
     16 C16         3.0610    0.0400    2.3180 c1        1 844     -0.061000
     17 C17        -1.1380   -0.2070    1.8330 c2        1 844     -0.072000
     18 C18        -1.8370    0.9900    1.7740 c2        1 844     -0.088000
     19 C19        -3.2260    0.9810    1.6450 c1        1 844     -0.183000
     20 C20        -3.9010   -0.2090    1.5770 c1        1 844      0.068000
     21 C21        -3.1890   -1.4290    1.6370 c1        1 844     -0.161000
     22 C22        -1.8210   -1.4180    1.7640 c1        1 844     -0.093000
     23 N23        -5.3630   -0.2150    1.4290 n3        1 844     -0.240000
     24 C24        -5.9620    0.2770    2.6190 c3        1 844     -0.050000
     25 C25        -7.4660    0.4410    2.4840 c3        1 844     -0.078500
     26 N26        -7.8270    1.1960    1.3430 n3        1 844     -0.299000
     27 C27        -7.2340    0.7090    0.1550 c3        1 844     -0.078500
     28 C28        -5.7270    0.5450    0.2820 c3        1 844     -0.050000
     29 O29         4.9920   -2.7280   -2.3820 os        1 844     -0.226000
     30 C30         4.0440   -3.2520   -3.1940 c3        1 844     -0.078000
     31 H011        3.4100    3.0230   -3.0040 h1        1 844      0.085667
     32 H012        4.7100    3.5910   -3.8010 h1        1 844      0.085667
     33 H013        4.1640    2.1630   -4.1310 h1        1 844      0.085667
     34 H10         3.6360    1.8830   -0.3740 ha        1 844      0.154000
     35 H061        7.7340    0.5430   -3.6570 h1        1 844      0.087667
     36 H062        7.6850   -1.1580   -3.6640 h1        1 844      0.087667
     37 H063        7.4060   -0.3570   -2.2500 h1        1 844      0.087667
     38 H08         3.4840   -2.1580   -0.3100 ha        1 844      0.154000
     39 H12         0.7720   -0.2280   -0.0230 ha        1 844      0.144000
     40 H16         4.1190    0.1350    2.4380 ha        1 844      0.165000
     41 H14         0.2920   -0.1430    4.1330 ha        1 844      0.163000
     42 H18        -1.3860    1.7870    1.8190 ha        1 844      0.135000
     43 H22        -1.3800   -2.1690    1.8020 ha        1 844      0.134000
     44 H19        -3.7320    1.8480    1.6040 ha        1 844      0.136000
     45 H21        -3.6990   -2.3330    1.5870 ha        1 844      0.138000
     46 H241       -5.7800   -0.3390    3.3350 h1        1 844      0.084500
     47 H242       -5.5580    1.1670    2.8420 h1        1 844      0.084500
     48 H281       -5.3170    1.4290    0.3430 h1        1 844      0.084500
     49 H282       -5.3980    0.1040   -0.5020 h1        1 844      0.084500
     50 H251       -7.8840   -0.4650    2.4160 h1        1 844      0.076250
     51 H252       -7.8280    0.9150    3.3230 h1        1 844      0.076250
     52 H26        -8.6770    1.1980    1.2590 hn        1 844      0.162000
     53 H271       -7.6240   -0.1490   -0.0570 h1        1 844      0.076250
     54 H272       -7.4240    1.3270   -0.5650 h1        1 844      0.076250
     55 H301        3.2180   -3.4700   -2.6490 h1        1 844      0.086000
     56 H302        4.4010   -4.0980   -3.6250 h1        1 844      0.086000
     57 H303        3.7910   -2.5340   -3.9650 h1        1 844      0.086000
@<TRIPOS>BOND
     1    1    2 1   
     2    1   31 1   
     3    1   32 1   
     4    1   33 1   
     5    2    3 1   
     6    3    4 1   
     7    3   10 1   
     8    4    7 1   
     9    5    6 1   
    10    6   35 1   
    11    6   36 1   
    12    6   37 1   
    13    7    8 1   
    14    7   29 1   
    15    8   38 1   
    16    9   10 1   
    17    9   11 1   
    18   10   34 1   
    19   11   12 1   
    20   11   16 1   
    21   12   13 1   
    22   12   39 1   
    23   13   17 1   
    24   14   15 1   
    25   14   41 1   
    26   16   40 1   
    27   17   18 1   
    28   17   22 1   
    29   18   19 1   
    30   18   42 1   
    31   19   44 1   
    32   20   21 1   
    33   20   23 1   
    34   21   45 1   
    35   22   43 1   
    36   23   24 1   
    37   23   28 1   
    38   24   25 1   
    39   24   46 1   
    40   24   47 1   
    41   25   26 1   
    42   25   50 1   
    43   25   51 1   
    44   26   27 1   
    45   26   52 1   
    46   27   28 1   
    47   27   53 1   
    48   27   54 1   
    49   28   48 1   
    50   28   49 1   
    51   29   30 1   
    52   30   55 1   
    53   30   56 1   
    54   30   57 1   
@<TRIPOS>SUBSTRUCTURE
     1 844         1 TEMP              0 ****  ****    0 ROOT
