@<TRIPOS>MOLECULE
844
   57    60     1     0     0
SMALL
bcc


@<TRIPOS>ATOM
      1 C01        -3.0740    3.7330   -0.7330 c3        1 844      0.110700
      2 O02        -4.2350    3.0370   -0.2930 os        1 844     -0.311400
      3 C03        -4.1060    1.6710   -0.1380 ca        1 844      0.138100
      4 C04        -5.2260    1.0200    0.4230 ca        1 844      0.045100
      5 O05        -6.2960    1.7280    0.9350 os        1 844     -0.309900
      6 C06        -7.1490    2.2850   -0.0670 c3        1 844      0.115700
      7 C07        -5.1940   -0.3840    0.5630 ca        1 844      0.138100
      8 C08        -4.0590   -1.1120    0.1880 ca        1 844     -0.216500
      9 C09        -2.9500   -0.4470   -0.3470 cp        1 844      0.025000
     10 C10        -2.9730    0.9430   -0.5160 ca        1 844     -0.216500
     11 C11        -1.7660   -1.2080   -0.7380 cp        1 844     -0.153300
     12 C12        -0.4740   -0.7350   -0.4710 ca        1 844     -0.078000
     13 C13         0.6340   -1.5010   -0.8580 cp        1 844     -0.138300
     14 C14         0.3890   -2.7310   -1.5120 ca        1 844      0.402200
     15 N15        -0.8430   -3.2010   -1.7770 nb        1 844     -0.663000
     16 C16        -1.8930   -2.4520   -1.3960 ca        1 844      0.402200
     17 C17         1.9950   -1.0540   -0.5970 cp        1 844     -0.072000
     18 C18         2.9890   -1.9670   -0.2190 ca        1 844     -0.090500
     19 C19         4.2890   -1.5500    0.0300 ca        1 844     -0.172000
     20 C20         4.6500   -0.1860   -0.0920 ca        1 844      0.150600
     21 C21         3.6410    0.7290   -0.4690 ca        1 844     -0.172000
     22 C22         2.3440    0.2970   -0.7190 ca        1 844     -0.090500
     23 N23         6.0010    0.1980    0.0800 nh        1 844     -0.638000
     24 C24         6.3380    1.5650   -0.2820 c3        1 844      0.186800
     25 C25         7.8590    1.8210   -0.2580 c3        1 844      0.158800
     26 N26         8.4830    1.3950    0.9780 n3        1 844     -0.820200
     27 C27         8.1440    0.0350    1.3430 c3        1 844      0.158800
     28 C28         6.6240   -0.2300    1.3240 c3        1 844      0.186800
     29 O29        -6.3430   -0.9500    1.0730 os        1 844     -0.311400
     30 C30        -6.2660   -2.3310    1.4110 c3        1 844      0.110700
     31 H011       -3.3950    4.8050   -0.7150 h1        1 844      0.045867
     32 H012       -2.2210    3.5660   -0.0310 h1        1 844      0.045867
     33 H013       -2.7980    3.4210   -1.7690 h1        1 844      0.045867
     34 H10        -2.0990    1.4490   -0.9500 ha        1 844      0.143500
     35 H061       -7.6050    1.4730   -0.6830 h1        1 844      0.042367
     36 H062       -7.9310    2.8220    0.5260 h1        1 844      0.042367
     37 H063       -6.5780    2.9950   -0.7130 h1        1 844      0.042367
     38 H08        -4.0270   -2.2030    0.3170 ha        1 844      0.143500
     39 H12        -0.3320    0.2230    0.0510 ha        1 844      0.145000
     40 H16        -2.8910   -2.8620   -1.6350 h4        1 844      0.026100
     41 H14         1.2290   -3.3680   -1.8440 h4        1 844      0.026100
     42 H18         2.7360   -3.0340   -0.1120 ha        1 844      0.133000
     43 H22         1.5800    1.0310   -1.0200 ha        1 844      0.133000
     44 H19         5.0420   -2.3030    0.3090 ha        1 844      0.136500
     45 H21         3.8620    1.8020   -0.5720 ha        1 844      0.136500
     46 H241        5.9760    1.7510   -1.3320 h1        1 844      0.045200
     47 H242        5.8380    2.3100    0.4040 h1        1 844      0.045200
     48 H281        6.1560    0.2910    2.2100 h1        1 844      0.045200
     49 H282        6.4690   -1.3370    1.4490 h1        1 844      0.045200
     50 H251        8.3170    1.3230   -1.1630 h1        1 844      0.037700
     51 H252        8.0210    2.9310   -0.3570 h1        1 844      0.037700
     52 H26         9.4790    1.4980    0.9160 hn        1 844      0.366800
     53 H271        8.6450   -0.7250    0.6740 h1        1 844      0.037700
     54 H272        8.5090   -0.1380    2.3940 h1        1 844      0.037700
     55 H301       -7.2600   -2.5350    1.8840 h1        1 844      0.045867
     56 H302       -6.1330   -2.9520    0.4910 h1        1 844      0.045867
     57 H303       -5.4370   -2.5200    2.1350 h1        1 844      0.045867
@<TRIPOS>BOND
     1    1    2 1   
     2    1   31 1   
     3    1   32 1   
     4    1   33 1   
     5    2    3 1   
     6    3    4 ar  
     7    3   10 ar  
     8    4    5 1   
     9    4    7 ar  
    10    5    6 1   
    11    6   35 1   
    12    6   36 1   
    13    6   37 1   
    14    7    8 ar  
    15    7   29 1   
    16    8    9 ar  
    17    8   38 1   
    18    9   10 ar  
    19    9   11 1   
    20   10   34 1   
    21   11   12 ar  
    22   11   16 ar  
    23   12   13 ar  
    24   12   39 1   
    25   13   14 ar  
    26   13   17 1   
    27   14   15 ar  
    28   14   41 1   
    29   15   16 ar  
    30   16   40 1   
    31   17   18 ar  
    32   17   22 ar  
    33   18   19 ar  
    34   18   42 1   
    35   19   20 ar  
    36   19   44 1   
    37   20   21 ar  
    38   20   23 1   
    39   21   22 ar  
    40   21   45 1   
    41   22   43 1   
    42   23   24 1   
    43   23   28 1   
    44   24   25 1   
    45   24   46 1   
    46   24   47 1   
    47   25   26 1   
    48   25   50 1   
    49   25   51 1   
    50   26   27 1   
    51   26   52 1   
    52   27   28 1   
    53   27   53 1   
    54   27   54 1   
    55   28   48 1   
    56   28   49 1   
    57   29   30 1   
    58   30   55 1   
    59   30   56 1   
    60   30   57 1   
@<TRIPOS>SUBSTRUCTURE
     1 844         1 TEMP              0 ****  ****    0 ROOT
