@<TRIPOS>MOLECULE
844
   57    60     1     0     0
SMALL
bcc


@<TRIPOS>ATOM
      1 C01         0.5530    0.9240   -0.3650 c3        1 844      0.110700
      2 O02         1.9010    0.5300   -0.1310 os        1 844     -0.311400
      3 C03         2.2580    0.3330    1.1880 ca        1 844      0.138100
      4 C04         3.5560   -0.1850    1.3890 ca        1 844      0.045100
      5 O05         4.3350   -0.6210    0.3340 os        1 844     -0.309900
      6 C06         4.9020    0.4390   -0.4390 c3        1 844      0.115700
      7 C07         4.0180   -0.3630    2.7110 ca        1 844      0.138100
      8 C08         3.1900   -0.0680    3.8000 ca        1 844     -0.216500
      9 C09         1.8990    0.4260    3.5820 cp        1 844      0.025000
     10 C10         1.4330    0.6310    2.2780 ca        1 844     -0.216500
     11 C11         1.0380    0.7340    4.7190 cp        1 844     -0.153300
     12 C12        -0.3270    0.4130    4.7090 ca        1 844     -0.078000
     13 C13        -1.1160    0.7210    5.8250 cp        1 844     -0.138300
     14 C14        -0.4860    1.3530    6.9230 ca        1 844      0.402200
     15 N15         0.8200    1.6700    6.9510 nb        1 844     -0.663000
     16 C16         1.5610    1.3640    5.8710 ca        1 844      0.402200
     17 C17        -2.5370    0.4020    5.8630 cp        1 844     -0.072000
     18 C18        -3.1370   -0.0520    7.0460 ca        1 844     -0.090500
     19 C19        -4.4900   -0.3560    7.0920 ca        1 844     -0.172000
     20 C20        -5.3060   -0.2160    5.9420 ca        1 844      0.150600
     21 C21        -4.6910    0.2370    4.7530 ca        1 844     -0.172000
     22 C22        -3.3350    0.5420    4.7220 ca        1 844     -0.090500
     23 N23        -6.6990   -0.4480    6.0390 nh        1 844     -0.639000
     24 C24        -7.5010   -0.0660    4.8880 c3        1 844      0.186800
     25 C25        -9.0150   -0.1620    5.1710 c3        1 844      0.158800
     26 N26        -9.4040   -1.4400    5.7320 n3        1 844     -0.820200
     27 C27        -8.6010   -1.8240    6.8760 c3        1 844      0.158800
     28 C28        -7.0850   -1.7340    6.6010 c3        1 844      0.186800
     29 O29         5.3120   -0.8260    2.8240 os        1 844     -0.311400
     30 C30         5.7300   -1.2040    4.1320 c3        1 844      0.110700
     31 H011        0.4830    0.9510   -1.4820 h1        1 844      0.045867
     32 H012        0.3590    1.9360    0.0660 h1        1 844      0.045867
     33 H013       -0.1590    0.1740    0.0560 h1        1 844      0.045867
     34 H10         0.4220    1.0320    2.1220 ha        1 844      0.143500
     35 H061        4.0940    1.0710   -0.8810 h1        1 844      0.042367
     36 H062        5.5850    1.0560    0.1920 h1        1 844      0.042367
     37 H063        5.4730   -0.0980   -1.2370 h1        1 844      0.042367
     38 H08         3.5430   -0.2260    4.8290 ha        1 844      0.143500
     39 H12        -0.7710   -0.0900    3.8370 ha        1 844      0.145000
     40 H16         2.6290    1.6440    5.9230 h4        1 844      0.026100
     41 H14        -1.0680    1.6240    7.8240 h4        1 844      0.026100
     42 H18        -2.5260   -0.1740    7.9550 ha        1 844      0.133000
     43 H22        -2.8850    0.9020    3.7840 ha        1 844      0.133000
     44 H19        -4.9250   -0.6950    8.0450 ha        1 844      0.136500
     45 H21        -5.2730    0.3570    3.8270 ha        1 844      0.136500
     46 H241       -7.2630   -0.7050    3.9880 h1        1 844      0.045200
     47 H242       -7.2680    1.0060    4.6360 h1        1 844      0.045200
     48 H281       -6.7920   -2.5790    5.9130 h1        1 844      0.045200
     49 H282       -6.5520   -1.8810    7.5800 h1        1 844      0.045200
     50 H251       -9.3060    0.7040    5.8360 h1        1 844      0.037700
     51 H252       -9.5540   -0.0410    4.1910 h1        1 844      0.037700
     52 H26       -10.3750   -1.4270    5.9810 hn        1 844      0.366800
     53 H271       -8.8330   -1.2020    7.7900 h1        1 844      0.037700
     54 H272       -8.8420   -2.8970    7.1170 h1        1 844      0.037700
     55 H301        5.0480   -1.9750    4.5630 h1        1 844      0.045867
     56 H302        5.7840   -0.3090    4.7990 h1        1 844      0.045867
     57 H303        6.7520   -1.6300    3.9610 h1        1 844      0.045867
@<TRIPOS>BOND
     1    1    2 1   
     2    1   31 1   
     3    1   32 1   
     4    1   33 1   
     5    2    3 1   
     6    3    4 ar  
     7    3   10 ar  
     8    4    5 1   
     9    4    7 ar  
    10    5    6 1   
    11    6   35 1   
    12    6   36 1   
    13    6   37 1   
    14    7    8 ar  
    15    7   29 1   
    16    8    9 ar  
    17    8   38 1   
    18    9   10 ar  
    19    9   11 1   
    20   10   34 1   
    21   11   12 ar  
    22   11   16 ar  
    23   12   13 ar  
    24   12   39 1   
    25   13   14 ar  
    26   13   17 1   
    27   14   15 ar  
    28   14   41 1   
    29   15   16 ar  
    30   16   40 1   
    31   17   18 ar  
    32   17   22 ar  
    33   18   19 ar  
    34   18   42 1   
    35   19   20 ar  
    36   19   44 1   
    37   20   21 ar  
    38   20   23 1   
    39   21   22 ar  
    40   21   45 1   
    41   22   43 1   
    42   23   24 1   
    43   23   28 1   
    44   24   25 1   
    45   24   46 1   
    46   24   47 1   
    47   25   26 1   
    48   25   50 1   
    49   25   51 1   
    50   26   27 1   
    51   26   52 1   
    52   27   28 1   
    53   27   53 1   
    54   27   54 1   
    55   28   48 1   
    56   28   49 1   
    57   29   30 1   
    58   30   55 1   
    59   30   56 1   
    60   30   57 1   
@<TRIPOS>SUBSTRUCTURE
     1 844         1 TEMP              0 ****  ****    0 ROOT
