@<TRIPOS>MOLECULE
844
   57    60     1     0     0
SMALL
bcc


@<TRIPOS>ATOM
      1 C01         0.5520    0.9080   -0.3700 c3        1 844      0.110700
      2 O02         1.9000    0.5160   -0.1340 os        1 844     -0.311400
      3 C03         2.2580    0.3260    1.1860 ca        1 844      0.138100
      4 C04         3.5560   -0.1890    1.3890 ca        1 844      0.045100
      5 O05         4.3350   -0.6290    0.3380 os        1 844     -0.309900
      6 C06         4.9010    0.4270   -0.4410 c3        1 844      0.115700
      7 C07         4.0180   -0.3600    2.7120 ca        1 844      0.138100
      8 C08         3.1900   -0.0600    3.8000 ca        1 844     -0.216500
      9 C09         1.8980    0.4300    3.5790 cp        1 844      0.025000
     10 C10         1.4320    0.6280    2.2740 ca        1 844     -0.216500
     11 C11         1.0360    0.7430    4.7150 cp        1 844     -0.153300
     12 C12        -0.3280    0.4190    4.7060 ca        1 844     -0.078000
     13 C13        -1.1180    0.7310    5.8210 cp        1 844     -0.138300
     14 C14        -0.4900    1.3710    6.9150 ca        1 844      0.402200
     15 N15         0.8160    1.6910    6.9410 nb        1 844     -0.663000
     16 C16         1.5580    1.3810    5.8630 ca        1 844      0.402200
     17 C17        -2.5380    0.4090    5.8610 cp        1 844     -0.072000
     18 C18        -3.1370   -0.0390    7.0460 ca        1 844     -0.090500
     19 C19        -4.4900   -0.3470    7.0930 ca        1 844     -0.172000
     20 C20        -5.3050   -0.2150    5.9420 ca        1 844      0.150600
     21 C21        -4.6910    0.2320    4.7510 ca        1 844     -0.172000
     22 C22        -3.3360    0.5410    4.7190 ca        1 844     -0.090500
     23 N23        -6.6980   -0.4500    6.0410 nh        1 844     -0.639000
     24 C24        -7.5010   -0.0770    4.8880 c3        1 844      0.186800
     25 C25        -9.0150   -0.1750    5.1710 c3        1 844      0.158800
     26 N26        -9.4000   -1.4510    5.7400 n3        1 844     -0.820200
     27 C27        -8.5970   -1.8260    6.8860 c3        1 844      0.158800
     28 C28        -7.0820   -1.7340    6.6110 c3        1 844      0.186800
     29 O29         5.3120   -0.8200    2.8280 os        1 844     -0.311400
     30 C30         5.7310   -1.1900    4.1380 c3        1 844      0.110700
     31 H011       -0.1600    0.1600    0.0540 h1        1 844      0.045867
     32 H012        0.4830    0.9300   -1.4880 h1        1 844      0.045867
     33 H013        0.3580    1.9220    0.0560 h1        1 844      0.045867
     34 H10         0.4200    1.0270    2.1160 ha        1 844      0.143500
     35 H061        4.0930    1.0560   -0.8870 h1        1 844      0.042367
     36 H062        5.4730   -0.1130   -1.2360 h1        1 844      0.042367
     37 H063        5.5840    1.0480    0.1870 h1        1 844      0.042367
     38 H08         3.5420   -0.2120    4.8300 ha        1 844      0.143500
     39 H12        -0.7710   -0.0900    3.8370 ha        1 844      0.145000
     40 H16         2.6250    1.6630    5.9130 h4        1 844      0.026100
     41 H14        -1.0720    1.6460    7.8140 h4        1 844      0.026100
     42 H18        -2.5260   -0.1550    7.9550 ha        1 844      0.133000
     43 H22        -2.8880    0.8960    3.7780 ha        1 844      0.133000
     44 H19        -4.9230   -0.6810    8.0480 ha        1 844      0.136500
     45 H21        -5.2740    0.3460    3.8240 ha        1 844      0.136500
     46 H241       -7.2700    0.9940    4.6290 h1        1 844      0.045200
     47 H242       -7.2610   -0.7200    3.9920 h1        1 844      0.045200
     48 H281       -6.7860   -2.5820    5.9280 h1        1 844      0.045200
     49 H282       -6.5480   -1.8730    7.5910 h1        1 844      0.045200
     50 H251       -9.3080    0.6940    5.8310 h1        1 844      0.037700
     51 H252       -9.5540   -0.0620    4.1900 h1        1 844      0.037700
     52 H26       -10.3720   -1.4380    5.9890 hn        1 844      0.366800
     53 H271       -8.8350   -2.8980    7.1330 h1        1 844      0.037700
     54 H272       -8.8310   -1.1990    7.7960 h1        1 844      0.037700
     55 H301        5.0500   -1.9600    4.5730 h1        1 844      0.045867
     56 H302        5.7840   -0.2920    4.8000 h1        1 844      0.045867
     57 H303        6.7540   -1.6150    3.9690 h1        1 844      0.045867
@<TRIPOS>BOND
     1    1    2 1   
     2    1   31 1   
     3    1   32 1   
     4    1   33 1   
     5    2    3 1   
     6    3    4 ar  
     7    3   10 ar  
     8    4    5 1   
     9    4    7 ar  
    10    5    6 1   
    11    6   35 1   
    12    6   36 1   
    13    6   37 1   
    14    7    8 ar  
    15    7   29 1   
    16    8    9 ar  
    17    8   38 1   
    18    9   10 ar  
    19    9   11 1   
    20   10   34 1   
    21   11   12 ar  
    22   11   16 ar  
    23   12   13 ar  
    24   12   39 1   
    25   13   14 ar  
    26   13   17 1   
    27   14   15 ar  
    28   14   41 1   
    29   15   16 ar  
    30   16   40 1   
    31   17   18 ar  
    32   17   22 ar  
    33   18   19 ar  
    34   18   42 1   
    35   19   20 ar  
    36   19   44 1   
    37   20   21 ar  
    38   20   23 1   
    39   21   22 ar  
    40   21   45 1   
    41   22   43 1   
    42   23   24 1   
    43   23   28 1   
    44   24   25 1   
    45   24   46 1   
    46   24   47 1   
    47   25   26 1   
    48   25   50 1   
    49   25   51 1   
    50   26   27 1   
    51   26   52 1   
    52   27   28 1   
    53   27   53 1   
    54   27   54 1   
    55   28   48 1   
    56   28   49 1   
    57   29   30 1   
    58   30   55 1   
    59   30   56 1   
    60   30   57 1   
@<TRIPOS>SUBSTRUCTURE
     1 844         1 TEMP              0 ****  ****    0 ROOT
