@<TRIPOS>MOLECULE
845
   60    64     1     0     0
SMALL
bcc


@<TRIPOS>ATOM
      1 N1         -0.2100   -1.3710   -1.4910 na        1 845      0.057500
      2 C2          1.2070   -1.7380   -1.3120 cc        1 845     -0.343300
      3 C3          1.3120   -2.6910   -0.2260 cc        1 845      0.078000
      4 C4          0.0540   -2.8270    0.3060 cd        1 845     -0.389600
      5 N5         -0.8930   -1.9330   -0.3710 na        1 845     -0.222400
      6 C6         -0.7900   -1.8180   -2.7430 ca        1 845     -0.031200
      7 C7         -0.0220   -2.3240   -3.8160 ca        1 845     -0.081000
      8 C8         -0.6220   -2.6400   -5.0290 ca        1 845     -0.094000
      9 C9         -2.0010   -2.4940   -5.2050 ca        1 845     -0.090000
     10 C10        -2.7720   -1.9920   -4.1550 ca        1 845     -0.194300
     11 C11        -2.1720   -1.6360   -2.9390 ca        1 845     -0.172000
     12 C12         2.2560   -1.0620   -1.9010 cd        1 845      0.474900
     13 C13        -4.2290   -1.7580   -4.3280 c3        1 845      0.182100
     14 N14        -5.0590   -2.8340   -3.6470 n4        1 845     -0.667800
     15 C15        -0.4570   -3.7670    1.3580 c3        1 845      0.732200
     16 F16         0.4420   -4.1460    2.3070 f         1 845     -0.234967
     17 F17        -1.5640   -3.3040    2.0380 f         1 845     -0.234967
     18 F18        -0.9460   -4.9490    0.8250 f         1 845     -0.234967
     19 C19        -4.7880   -2.8910   -2.1790 c         1 845      0.517100
     20 C20        -3.8330   -3.9890   -1.6900 c3        1 845      0.074500
     21 O21        -5.3540   -2.0810   -1.4590 o         1 845     -0.382100
     22 N22        -3.1780   -3.5790   -0.4160 n4        1 845     -0.892600
     23 C23        -4.6220   -5.2890   -1.5530 c3        1 845     -0.149100
     24 N24         3.6260   -1.2270   -1.7560 na        1 845     -0.191400
     25 N25         4.3190   -0.3670   -2.5410 nc        1 845     -0.471800
     26 C26         3.4210    0.3300   -3.2430 cd        1 845      0.618900
     27 O27         2.0860   -0.0860   -2.8740 os        1 845     -0.390800
     28 C28         3.5280    1.3690   -4.2350 ca        1 845     -0.165500
     29 C29         2.3840    2.0560   -4.6610 ca        1 845     -0.088000
     30 C30         2.4640    3.0800   -5.6090 ca        1 845     -0.142000
     31 C31         3.6790    3.4630   -6.1690 ca        1 845     -0.070000
     32 C32         4.8320    2.7890   -5.7560 ca        1 845     -0.065200
     33 C33         4.7770    1.7180   -4.7710 ca        1 845     -0.032800
     34 C34         6.1300    1.2640   -4.5890 cc        1 845     -0.210200
     35 C35         6.9400    2.0350   -5.4280 cd        1 845     -0.051100
     36 N36         6.1680    2.9500   -6.1360 na        1 845     -0.175400
     37 H5         -1.0750   -1.1430    0.2470 hn        1 845      0.257700
     38 H3          2.2270   -3.2030    0.0840 ha        1 845      0.189000
     39 H7          1.0690   -2.4540   -3.7020 ha        1 845      0.175000
     40 H11        -2.7870   -1.1440   -2.1670 ha        1 845      0.134000
     41 H8         -0.0030   -3.0130   -5.8640 ha        1 845      0.180000
     42 H9         -2.4590   -2.7500   -6.1740 ha        1 845      0.160000
     43 H131       -4.5390   -0.7700   -3.8740 hx        1 845      0.132200
     44 H132       -4.5220   -1.7720   -5.4200 hx        1 845      0.132200
     45 H24         4.1060   -1.7160   -1.0300 hn        1 845      0.362700
     46 H14        -6.0560   -2.6090   -3.7960 hn        1 845      0.476300
     47 H20        -2.9950   -4.1230   -2.4500 hx        1 845      0.150700
     48 H221       -2.7670   -4.4120    0.0410 hn        1 845      0.492133
     49 H222       -2.3760   -2.8800   -0.5940 hn        1 845      0.492133
     50 H231       -5.0370   -5.5850   -2.5490 hc        1 845      0.101700
     51 H232       -3.9520   -6.1200   -1.2080 hc        1 845      0.101700
     52 H233       -5.4660   -5.1890   -0.8250 hc        1 845      0.101700
     53 H29         1.4030    1.7920   -4.2360 ha        1 845      0.136000
     54 H30         1.5430    3.6020   -5.9140 ha        1 845      0.148000
     55 H31         3.7270    4.2750   -6.9110 ha        1 845      0.156000
     56 H36         6.5000    3.6230   -6.7780 hn        1 845      0.318700
     57 H34         6.4700    0.4750   -3.9240 ha        1 845      0.176000
     58 H35         8.0250    1.9910   -5.5690 h4        1 845      0.188000
     59 H142       -4.8530   -3.7440   -4.0770 hn        1 845      0.476300
     60 H223       -3.8530   -3.1570    0.2300 hn        1 845      0.492133
@<TRIPOS>BOND
     1    1    2 1   
     2    1    5 1   
     3    1    6 1   
     4    2    3 1   
     5    2   12 2   
     6    3    4 2   
     7    3   38 1   
     8    4    5 1   
     9    4   15 1   
    10    5   37 1   
    11    6    7 ar  
    12    6   11 ar  
    13    7    8 ar  
    14    7   39 1   
    15    8    9 ar  
    16    8   41 1   
    17    9   10 ar  
    18    9   42 1   
    19   10   11 ar  
    20   10   13 1   
    21   11   40 1   
    22   12   24 1   
    23   12   27 1   
    24   13   14 1   
    25   13   43 1   
    26   13   44 1   
    27   14   19 1   
    28   14   46 1   
    29   14   59 1   
    30   15   16 1   
    31   15   17 1   
    32   15   18 1   
    33   19   20 1   
    34   19   21 2   
    35   20   22 1   
    36   20   23 1   
    37   20   47 1   
    38   22   48 1   
    39   22   49 1   
    40   22   60 1   
    41   23   50 1   
    42   23   51 1   
    43   23   52 1   
    44   24   25 1   
    45   24   45 1   
    46   25   26 2   
    47   26   27 1   
    48   26   28 1   
    49   28   29 ar  
    50   28   33 ar  
    51   29   30 ar  
    52   29   53 1   
    53   30   31 ar  
    54   30   54 1   
    55   31   32 ar  
    56   31   55 1   
    57   32   33 ar  
    58   32   36 1   
    59   33   34 1   
    60   34   35 2   
    61   34   57 1   
    62   35   36 1   
    63   35   58 1   
    64   36   56 1   
@<TRIPOS>SUBSTRUCTURE
     1 845         1 TEMP              0 ****  ****    0 ROOT
