@<TRIPOS>MOLECULE
845
   58    62     1     0     0
SMALL
bcc


@<TRIPOS>ATOM
      1 N1          1.4830   -1.6110   -1.2750 na        1 845      0.006500
      2 C2          0.8390   -2.1010   -0.0470 cc        1 845     -0.142300
      3 C3          1.8180   -2.9240    0.6850 cc        1 845     -0.072000
      4 C4          2.9530   -2.9300   -0.0710 cd        1 845     -0.207600
      5 N5          2.8260   -2.0800   -1.2380 na        1 845     -0.166400
      6 C6          1.3920   -0.1650   -1.4260 ca        1 845     -0.058200
      7 C7          0.3430    0.3240   -2.2310 ca        1 845     -0.093000
      8 C8          0.2210    1.6930   -2.4560 ca        1 845     -0.140000
      9 C9          1.1310    2.5880   -1.8980 ca        1 845     -0.106000
     10 C10         2.1730    2.1100   -1.0990 ca        1 845     -0.128300
     11 C11         2.3040    0.7410   -0.8580 ca        1 845     -0.106000
     12 C12        -0.4630   -1.9550    0.2840 cd        1 845      0.290900
     13 C13         3.1640    3.0800   -0.5170 c3        1 845      0.127300
     14 N14         2.6840    3.8250    0.6180 n         1 845     -0.547900
     15 C15         4.2720   -3.6180    0.2060 c3        1 845      0.719200
     16 F16         4.2130   -4.5430    1.2200 f         1 845     -0.229967
     17 F17         4.7720   -4.3130   -0.8680 f         1 845     -0.229967
     18 F18         5.2880   -2.7720    0.5720 f         1 845     -0.229967
     19 C19         2.0290    5.0330    0.4740 c         1 845      0.604100
     20 C20         1.4360    5.6790    1.7520 c3        1 845      0.104500
     21 O21         1.9680    5.6180   -0.6280 o         1 845     -0.622100
     22 N22         1.1400    7.0870    1.6030 n3        1 845     -0.882800
     23 C23         0.2120    4.8640    2.1680 c3        1 845     -0.096100
     24 N24        -1.1610   -2.4000    1.4670 na        1 845     -0.141400
     25 N25        -2.4580   -1.9890    1.3730 nc        1 845     -0.529800
     26 C26        -2.5910   -1.2320    0.2920 cd        1 845      0.585900
     27 O27        -1.3710   -1.1730   -0.4560 os        1 845     -0.411800
     28 C28        -3.7030   -0.4690   -0.2440 ca        1 845     -0.113500
     29 C29        -3.5020    0.3730   -1.3390 ca        1 845     -0.104000
     30 C30        -4.5550    1.1210   -1.8850 ca        1 845     -0.130000
     31 C31        -5.8390    1.0590   -1.3640 ca        1 845     -0.112000
     32 C32        -6.0580    0.2210   -0.2620 ca        1 845     -0.059200
     33 C33        -4.9830   -0.5620    0.3200 ca        1 845     -0.052800
     34 C34        -5.5630   -1.2930    1.4210 cc        1 845     -0.182200
     35 C35        -6.9130   -0.9520    1.4760 cd        1 845     -0.096100
     36 N36        -7.2220   -0.0410    0.4640 na        1 845     -0.192400
     37 H5          2.9660   -2.6210   -2.0840 hn        1 845      0.247700
     38 H3          1.6360   -3.3910    1.6510 ha        1 845      0.176000
     39 H7         -0.3920   -0.3720   -2.6670 ha        1 845      0.148000
     40 H11         3.1340    0.3810   -0.2290 ha        1 845      0.147000
     41 H8         -0.6010    2.0670   -3.0840 ha        1 845      0.133000
     42 H9          1.0380    3.6720   -2.0770 ha        1 845      0.156000
     43 H131        4.0870    2.5200   -0.1860 h1        1 845      0.072200
     44 H132        3.4630    3.8150   -1.3210 h1        1 845      0.072200
     45 H24        -1.0820   -3.3860    1.6610 hn        1 845      0.272700
     46 H14         2.5180    3.3060    1.4490 hn        1 845      0.305500
     47 H20         2.2160    5.6040    2.5700 h1        1 845      0.075700
     48 H221        1.9420    7.5690    1.2430 hn        1 845      0.359300
     49 H222        0.3790    7.2190    0.9630 hn        1 845      0.359300
     50 H231        0.5200    3.8250    2.4330 hc        1 845      0.048700
     51 H232       -0.2740    5.3260    3.0620 hc        1 845      0.048700
     52 H233       -0.5360    4.8180    1.3410 hc        1 845      0.048700
     53 H29        -2.4950    0.4570   -1.7830 ha        1 845      0.152000
     54 H30        -4.3520    1.7730   -2.7490 ha        1 845      0.139000
     55 H31        -6.6570    1.6490   -1.8000 ha        1 845      0.138000
     56 H36        -8.1030    0.3630    0.2930 hn        1 845      0.302700
     57 H34        -5.0420   -1.9770    2.0860 ha        1 845      0.176000
     58 H35        -7.6860   -1.2940    2.1690 h4        1 845      0.170000
@<TRIPOS>BOND
     1    1    2 1   
     2    1    5 1   
     3    1    6 1   
     4    2    3 1   
     5    2   12 2   
     6    3    4 2   
     7    3   38 1   
     8    4    5 1   
     9    4   15 1   
    10    5   37 1   
    11    6    7 ar  
    12    6   11 ar  
    13    7    8 ar  
    14    7   39 1   
    15    8    9 ar  
    16    8   41 1   
    17    9   10 ar  
    18    9   42 1   
    19   10   11 ar  
    20   10   13 1   
    21   11   40 1   
    22   12   24 1   
    23   12   27 1   
    24   13   14 1   
    25   13   43 1   
    26   13   44 1   
    27   14   19 1   
    28   14   46 1   
    29   15   16 1   
    30   15   17 1   
    31   15   18 1   
    32   19   20 1   
    33   19   21 2   
    34   20   22 1   
    35   20   23 1   
    36   20   47 1   
    37   22   48 1   
    38   22   49 1   
    39   23   50 1   
    40   23   51 1   
    41   23   52 1   
    42   24   25 1   
    43   24   45 1   
    44   25   26 2   
    45   26   27 1   
    46   26   28 1   
    47   28   29 ar  
    48   28   33 ar  
    49   29   30 ar  
    50   29   53 1   
    51   30   31 ar  
    52   30   54 1   
    53   31   32 ar  
    54   31   55 1   
    55   32   33 ar  
    56   32   36 1   
    57   33   34 1   
    58   34   35 2   
    59   34   57 1   
    60   35   36 1   
    61   35   58 1   
    62   36   56 1   
@<TRIPOS>SUBSTRUCTURE
     1 845         1 TEMP              0 ****  ****    0 ROOT
