@<TRIPOS>MOLECULE
845
   60    64     1     0     0
SMALL
bcc


@<TRIPOS>ATOM
      1 N1         -0.1660   -1.4310   -1.4860 na        1 845      0.057500
      2 C2          1.2460   -1.8410   -1.3710 cc        1 845     -0.343300
      3 C3          1.3610   -2.8460   -0.3340 cc        1 845      0.078000
      4 C4          0.1170   -2.9770    0.2320 cd        1 845     -0.389600
      5 N5         -0.8280   -2.0300   -0.3720 na        1 845     -0.222400
      6 C6         -0.7960   -1.8050   -2.7380 ca        1 845     -0.031200
      7 C7         -0.0750   -2.2780   -3.8580 ca        1 845     -0.081000
      8 C8         -0.7210   -2.5220   -5.0640 ca        1 845     -0.094000
      9 C9         -2.1000   -2.3340   -5.1890 ca        1 845     -0.090000
     10 C10        -2.8250   -1.8650   -4.0920 ca        1 845     -0.194300
     11 C11        -2.1780   -1.5810   -2.8810 ca        1 845     -0.172000
     12 C12         2.2930   -1.1630   -1.9610 cd        1 845      0.474900
     13 C13        -4.2810   -1.5890   -4.2060 c3        1 845      0.182100
     14 N14        -5.1150   -2.6750   -3.5500 ny        1 845     -0.667800
     15 C15        -0.3840   -3.9530    1.2550 c3        1 845      0.732200
     16 F16         0.5330   -4.3990    2.1550 f         1 845     -0.234967
     17 F17        -1.4580   -3.4970    1.9920 f         1 845     -0.234967
     18 F18        -0.9200   -5.0970    0.6830 f         1 845     -0.234967
     19 C19        -4.8010   -2.8080   -2.0960 c         1 845      0.517100
     20 C20        -3.8590   -3.9500   -1.6890 c3        1 845      0.074500
     21 O21        -5.3220   -2.0190   -1.3210 o         1 845     -0.382100
     22 N22        -3.1540   -3.6170   -0.4190 nz        1 845     -0.892600
     23 C23        -4.6760   -5.2360   -1.5870 c3        1 845     -0.149100
     24 N24         3.6620   -1.3670   -1.8690 na        1 845     -0.191400
     25 N25         4.3510   -0.4870   -2.6350 nc        1 845     -0.471800
     26 C26         3.4500    0.2640   -3.2730 cd        1 845      0.618900
     27 O27         2.1170   -0.1380   -2.8820 os        1 845     -0.390800
     28 C28         3.5520    1.3460   -4.2190 ca        1 845     -0.165500
     29 C29         2.4130    2.0800   -4.5750 ca        1 845     -0.088000
     30 C30         2.4900    3.1460   -5.4760 ca        1 845     -0.142000
     31 C31         3.6950    3.5250   -6.0570 ca        1 845     -0.070000
     32 C32         4.8430    2.8040   -5.7140 ca        1 845     -0.065200
     33 C33         4.7920    1.6900   -4.7790 ca        1 845     -0.032800
     34 C34         6.1380    1.1940   -4.6630 cc        1 845     -0.210200
     35 C35         6.9400    1.9850   -5.4910 cd        1 845     -0.051100
     36 N36         6.1700    2.9510   -6.1290 na        1 845     -0.175400
     37 H5         -0.9700   -1.2660    0.2880 hn        1 845      0.257700
     38 H3          2.2720   -3.3940   -0.0780 ha        1 845      0.189000
     39 H7          1.0150   -2.4390   -3.7850 ha        1 845      0.175000
     40 H11        -2.7560   -1.1120   -2.0670 ha        1 845      0.134000
     41 H8         -0.1380   -2.8700   -5.9360 ha        1 845      0.180000
     42 H9         -2.5940   -2.5340   -6.1530 ha        1 845      0.160000
     43 H131       -4.6070   -1.5440   -5.2880 hx        1 845      0.132200
     44 H132       -4.5510   -0.6160   -3.6970 hx        1 845      0.132200
     45 H24         4.1520   -1.9010   -1.1830 hn        1 845      0.362700
     46 H14        -4.9470   -3.5680   -4.0270 hn        1 845      0.476300
     47 H20        -3.0490   -4.0680   -2.4810 hx        1 845      0.150700
     48 H221       -2.3410   -2.9290   -0.5900 hn        1 845      0.492133
     49 H222       -2.7510   -4.4800   -0.0150 hn        1 845      0.492133
     50 H231       -5.4940   -5.1500   -0.8280 hc        1 845      0.101700
     51 H232       -5.1290   -5.4740   -2.5810 hc        1 845      0.101700
     52 H233       -4.0170   -6.0980   -1.3030 hc        1 845      0.101700
     53 H29         1.4400    1.8200   -4.1300 ha        1 845      0.136000
     54 H30         1.5730    3.7030   -5.7250 ha        1 845      0.148000
     55 H31         3.7410    4.3700   -6.7610 ha        1 845      0.156000
     56 H36         6.4990    3.6460   -6.7500 hn        1 845      0.318700
     57 H34         6.4790    0.3670   -4.0470 ha        1 845      0.176000
     58 H35         8.0190    1.9220   -5.6690 h4        1 845      0.188000
     59 H142       -6.1110   -2.4200   -3.6560 hn        1 845      0.476300
     60 H223       -3.7970   -3.2090    0.2680 hn        1 845      0.492133
@<TRIPOS>BOND
     1    1    2 1   
     2    1    5 1   
     3    1    6 1   
     4    2    3 1   
     5    2   12 2   
     6    3    4 2   
     7    3   38 1   
     8    4    5 1   
     9    4   15 1   
    10    5   37 1   
    11    6    7 ar  
    12    6   11 ar  
    13    7    8 ar  
    14    7   39 1   
    15    8    9 ar  
    16    8   41 1   
    17    9   10 ar  
    18    9   42 1   
    19   10   11 ar  
    20   10   13 1   
    21   11   40 1   
    22   12   24 1   
    23   12   27 1   
    24   13   14 1   
    25   13   43 1   
    26   13   44 1   
    27   14   19 1   
    28   14   46 1   
    29   14   59 1   
    30   15   16 1   
    31   15   17 1   
    32   15   18 1   
    33   19   20 1   
    34   19   21 2   
    35   20   22 1   
    36   20   23 1   
    37   20   47 1   
    38   22   48 1   
    39   22   49 1   
    40   22   60 1   
    41   23   50 1   
    42   23   51 1   
    43   23   52 1   
    44   24   25 1   
    45   24   45 1   
    46   25   26 2   
    47   26   27 1   
    48   26   28 1   
    49   28   29 ar  
    50   28   33 ar  
    51   29   30 ar  
    52   29   53 1   
    53   30   31 ar  
    54   30   54 1   
    55   31   32 ar  
    56   31   55 1   
    57   32   33 ar  
    58   32   36 1   
    59   33   34 1   
    60   34   35 2   
    61   34   57 1   
    62   35   36 1   
    63   35   58 1   
    64   36   56 1   
@<TRIPOS>SUBSTRUCTURE
     1 845         1 TEMP              0 ****  ****    0 ROOT
