@<TRIPOS>MOLECULE
845
   58    50     1     0     0
SMALL
bcc


@<TRIPOS>ATOM
      1 N1         -0.1080    0.0980    2.2360 n3        1 845     -0.009000
      2 C2          1.4470    0.0740    2.2020 c2        1 845     -0.156000
      3 C3          1.8110    0.0450    3.5480 c2        1 845     -0.048000
      4 C4          0.7740    0.0440    4.3900 c1        1 845     -0.206000
      5 N5         -0.4620    0.0690    3.7580 n2        1 845     -0.101000
      6 C6         -0.9630    0.5370    1.1830 c2        1 845     -0.075000
      7 C7         -0.6850    1.7330    0.5080 c2        1 845     -0.144000
      8 C8         -1.5770    2.2130   -0.4600 c1        1 845     -0.122000
      9 C9         -2.7390    1.5020   -0.7500 c1        1 845     -0.119000
     10 C10        -3.0140    0.3130   -0.0770 c1        1 845     -0.107000
     11 C11        -2.1200   -0.1690    0.8930 c1        1 845     -0.089000
     12 C12         2.2210   -0.3320    1.1500 c1        1 845      0.109000
     13 C13        -4.3120   -0.4980   -0.4160 c3        1 845      0.006000
     14 N14        -5.3020    0.3880   -0.9370 n         1 845     -0.367000
     15 C15         0.9160   -0.6060    5.7940 c3        1 845      0.498000
     16 F16        -0.1250   -0.2540    6.5590 f         1 845     -0.160667
     17 F17         0.9460   -1.9630    5.6660 f         1 845     -0.160667
     18 F18         2.0550   -0.1860    6.3690 f         1 845     -0.160667
     19 C19        -6.6820   -0.0960   -1.1750 c2        1 845      0.301000
     20 C20        -7.6430    0.7540   -1.9370 c3        1 845     -0.053000
     21 O21        -7.0750   -1.1410   -0.6340 o         1 845     -0.371000
     22 N22        -7.1350    0.9830   -3.2550 n3        1 845     -0.344000
     23 C23        -9.0110    0.0370   -2.0230 c3        1 845     -0.242000
     24 N24         2.1740   -1.7100    0.4800 n2        1 845     -0.181000
     25 N25         3.3810   -1.8250   -0.1050 n2        1 845     -0.087000
     26 C26         4.1570   -0.7960    0.0680 c1        1 845      0.076000
     27 O27         3.5990    0.2030    0.7950 o         1 845     -0.154000
     28 C28         5.2500   -0.4920   -0.9340 c2        1 845     -0.001000
     29 C29         4.6630   -0.7230   -2.1840 c2        1 845     -0.103000
     30 C30         5.4610   -0.7870   -3.3280 c1        1 845     -0.129000
     31 C31         6.8540   -0.6210   -3.2250 c1        1 845     -0.113000
     32 C32         7.4540   -0.3850   -1.9500 c1        1 845     -0.013000
     33 C33         6.6770   -0.3220   -0.8290 c1        1 845     -0.045000
     34 C34         7.5120   -0.0940    0.2580 c1        1 845     -0.194000
     35 C35         8.8110   -0.0180   -0.2100 c1        1 845     -0.069000
     36 N36         8.7830   -0.1960   -1.5650 n1        1 845     -0.214000
     37 H5         -1.2670    0.3350    4.1380 hn        1 845      0.167000
     38 H3          2.6480   -0.3590    3.8120 ha        1 845      0.180000
     39 H7          0.1530    2.2450    0.7170 ha        1 845      0.139000
     40 H11        -2.3110   -0.9900    1.3560 ha        1 845      0.168000
     41 H8         -1.3770    3.0770   -0.9490 ha        1 845      0.140000
     42 H9         -3.3690    1.8410   -1.4330 ha        1 845      0.137000
     43 H131       -4.0990   -1.1990   -1.0980 h1        1 845      0.109500
     44 H132       -4.6550   -0.9310    0.4070 h1        1 845      0.109500
     45 H24         1.4020   -2.1780    0.2420 hn        1 845      0.247000
     46 H14        -5.0890    1.2720   -1.0990 hn        1 845      0.237000
     47 H20        -7.7560    1.6300   -1.4670 h1        1 845      0.116000
     48 H221       -7.2640    1.8560   -3.4830 hn        1 845      0.152000
     49 H222       -7.5740    0.4410   -3.8530 hn        1 845      0.152000
     50 H231       -9.6500    0.5940   -2.5720 hc        1 845      0.090000
     51 H232       -8.8930   -0.8500   -2.4490 hc        1 845      0.090000
     52 H233       -9.3820   -0.0830   -1.0990 hc        1 845      0.090000
     53 H29         3.6720   -0.8440   -2.2570 ha        1 845      0.153000
     54 H30         5.0550   -0.9460   -4.1950 ha        1 845      0.139000
     55 H31         7.4010   -0.6650   -4.0100 ha        1 845      0.138000
     56 H36         9.5210   -0.1920   -2.1320 DU        1 845      0.197667
     57 H34         7.2210    0.0010    1.2260 DU        1 845      0.197667
     58 H35         9.6170    0.1670    0.3360 DU        1 845      0.197667
@<TRIPOS>BOND
     1    1    2 1   
     2    1    5 1   
     3    1    6 1   
     4    2    3 1   
     5    2   12 1   
     6    3    4 1   
     7    3   38 1   
     8    4   15 1   
     9    5   37 1   
    10    6    7 1   
    11    6   11 1   
    12    7    8 1   
    13    7   39 1   
    14    8   41 1   
    15    9   10 1   
    16    9   42 1   
    17   10   13 1   
    18   11   40 1   
    19   12   27 1   
    20   13   14 1   
    21   13   43 1   
    22   13   44 1   
    23   14   19 1   
    24   14   46 1   
    25   15   16 1   
    26   15   17 1   
    27   15   18 1   
    28   19   20 1   
    29   19   21 1   
    30   20   22 1   
    31   20   23 1   
    32   20   47 1   
    33   22   48 1   
    34   22   49 1   
    35   23   50 1   
    36   23   51 1   
    37   23   52 1   
    38   24   25 1   
    39   24   45 1   
    40   25   26 1   
    41   26   28 1   
    42   28   29 1   
    43   28   33 1   
    44   29   30 1   
    45   29   53 1   
    46   30   54 1   
    47   31   32 1   
    48   31   55 1   
    49   34   35 1   
    50   35   36 1   
@<TRIPOS>SUBSTRUCTURE
     1 845         1 TEMP              0 ****  ****    0 ROOT
