@<TRIPOS>MOLECULE
846
   80    85     1     0     0
SMALL
bcc


@<TRIPOS>ATOM
      1 C1          0.3570   -0.2360    0.1580 c         1 846      0.812500
      2 C2          2.2150   -0.1260   -1.4030 c3        1 846      0.154300
      3 C3          2.6110    0.3180    1.0530 c3        1 846      0.119700
      4 C4          2.9730   -0.9180    1.9100 c3        1 846      0.123100
      5 C5          1.7430   -1.8010    2.1790 c3        1 846      0.095100
      6 C6          0.4620   -1.0190    2.5580 c3        1 846      0.085700
      7 C7         -1.6470   -0.2640    1.5440 c3        1 846      0.119000
      8 C20         2.2680   -1.5400   -1.9300 ca        1 846     -0.115300
      9 C21         3.3850   -2.3400   -1.6900 ca        1 846     -0.025000
     10 C22         3.4580   -3.6270   -2.2560 ca        1 846     -0.222600
     11 C23         2.3910   -4.1220   -3.0260 ca        1 846     -0.084000
     12 C24         1.2680   -3.3280   -3.2280 ca        1 846     -0.138000
     13 C25         1.2020   -2.0400   -2.6860 ca        1 846     -0.023000
     14 C26         4.6570   -4.3970   -1.9650 c         1 846      0.598700
     15 C27         4.8960   -6.7730   -2.6580 cc        1 846      0.314300
     16 C28         3.8350   -8.7140   -2.4850 cd        1 846      0.360200
     17 C29         5.0190   -8.9960   -1.7830 cc        1 846     -0.248400
     18 C31         3.9010    1.0750    0.6770 c3        1 846     -0.036100
     19 C32         4.5010    1.7250    1.8760 ca        1 846     -0.101300
     20 C33         5.4960    1.0710    2.6110 ca        1 846     -0.126000
     21 C34         6.0790    1.6940    3.7140 ca        1 846     -0.125000
     22 C35         5.6690    2.9730    4.0910 ca        1 846     -0.119000
     23 C36         4.6760    3.6280    3.3630 ca        1 846     -0.125000
     24 C37         4.0930    3.0080    2.2590 ca        1 846     -0.126000
     25 C61         0.7360   -0.0900    3.7640 c3        1 846     -0.051100
     26 C62        -0.3990   -0.0770    4.7270 ca        1 846     -0.093300
     27 C63        -0.6430   -1.1950    5.5350 ca        1 846     -0.129500
     28 C64        -1.6850   -1.1820    6.4590 ca        1 846     -0.123000
     29 C65        -2.4930   -0.0510    6.5860 ca        1 846     -0.122000
     30 C66        -2.2530    1.0670    5.7870 ca        1 846     -0.123000
     31 C67        -1.2110    1.0550    4.8610 ca        1 846     -0.129500
     32 C70        -2.4150   -1.5580    1.4440 cx        1 846     -0.166700
     33 C71        -3.8090   -1.5040    0.8740 cx        1 846     -0.121900
     34 C72        -2.7100   -2.1610    0.0960 cx        1 846     -0.121900
     35 N2          1.7320    0.0140   -0.0530 n         1 846     -0.475800
     36 N7         -0.1980   -0.3540    1.4490 n         1 846     -0.459800
     37 N26         5.0990   -5.3940   -3.0570 n4        1 846     -0.627500
     38 N27         3.7560   -7.4490   -2.9880 nd        1 846     -0.591000
     39 O1         -0.3890   -0.2690   -0.8550 o         1 846     -0.692500
     40 O4          3.9540   -1.6860    1.2270 oh        1 846     -0.619800
     41 O5          2.1410   -2.6520    3.2470 oh        1 846     -0.606800
     42 O26         5.4240   -4.3370   -1.0160 o         1 846     -0.434100
     43 S29         6.0170   -7.6930   -1.7490 ss        1 846      0.180700
     44 H21A        1.5290    0.4700   -2.0800 h1        1 846      0.077700
     45 H22         3.2500    0.3120   -1.4820 h1        1 846      0.077700
     46 H3          2.0340    1.0160    1.7410 h1        1 846      0.082700
     47 H4          3.4020   -0.5520    2.8870 h1        1 846      0.078700
     48 H5          1.5360   -2.4430    1.2740 h1        1 846      0.052700
     49 H6         -0.2600   -1.8170    2.9350 h1        1 846      0.057700
     50 H71        -1.8660    0.2020    2.5510 h1        1 846      0.075200
     51 H72        -2.0010    0.4410    0.7370 h1        1 846      0.075200
     52 H21         4.1980   -1.9700   -1.0360 ha        1 846      0.184000
     53 H23         2.4010   -5.1410   -3.4430 ha        1 846      0.150000
     54 H24         0.4200   -3.7180   -3.8130 ha        1 846      0.164000
     55 H25         0.2970   -1.4170   -2.8260 ha        1 846      0.193000
     56 H28         3.0020   -9.4120   -2.6540 h4        1 846      0.084100
     57 H29         5.2350   -9.9640   -1.3200 h4        1 846      0.221000
     58 H311        3.6670    1.8680   -0.0840 hc        1 846      0.061700
     59 H312        4.6370    0.3570    0.2260 hc        1 846      0.061700
     60 H33         5.8140    0.0600    2.3130 ha        1 846      0.134000
     61 H34         6.8630    1.1760    4.2860 ha        1 846      0.138500
     62 H35         6.1310    3.4650    4.9610 ha        1 846      0.141000
     63 H36         4.3530    4.6380    3.6590 ha        1 846      0.138500
     64 H37         3.3140    3.5300    1.6840 ha        1 846      0.134000
     65 H611        0.9580    0.9560    3.4270 hc        1 846      0.068200
     66 H612        1.6500   -0.4780    4.2930 hc        1 846      0.068200
     67 H63         0.0020   -2.0810    5.4440 ha        1 846      0.129000
     68 H64        -1.8680   -2.0620    7.0930 ha        1 846      0.137500
     69 H65        -3.3140   -0.0400    7.3180 ha        1 846      0.140000
     70 H66        -2.8850    1.9610    5.8890 ha        1 846      0.137500
     71 H67        -1.0230    1.9420    4.2370 ha        1 846      0.129000
     72 H70        -2.2360   -2.2460    2.2940 hc        1 846      0.074700
     73 H711       -4.2080   -0.5350    0.5240 hc        1 846      0.077200
     74 H712       -4.5930   -2.1290    1.3370 hc        1 846      0.077200
     75 H721       -2.3110   -1.6540   -0.8030 hc        1 846      0.077200
     76 H722       -2.7080   -3.2600   -0.0070 hc        1 846      0.077200
     77 HN6         6.0990   -5.2610   -3.2440 hn        1 846      0.466800
     78 HO4         4.2050   -2.3970    1.8310 ho        1 846      0.421000
     79 HO5         1.3650   -3.1490    3.5330 ho        1 846      0.414000
     80 H262        4.5690   -5.1980   -3.9200 hn        1 846      0.466800
@<TRIPOS>BOND
     1    1   35 1   
     2    1   36 1   
     3    1   39 2   
     4    2    8 1   
     5    2   35 1   
     6    2   44 1   
     7    2   45 1   
     8    3    4 1   
     9    3   18 1   
    10    3   35 1   
    11    3   46 1   
    12    4    5 1   
    13    4   40 1   
    14    4   47 1   
    15    5    6 1   
    16    5   41 1   
    17    5   48 1   
    18    6   25 1   
    19    6   36 1   
    20    6   49 1   
    21    7   32 1   
    22    7   36 1   
    23    7   50 1   
    24    7   51 1   
    25    8    9 ar  
    26    8   13 ar  
    27    9   10 ar  
    28    9   52 1   
    29   10   11 ar  
    30   10   14 1   
    31   11   12 ar  
    32   11   53 1   
    33   12   13 ar  
    34   12   54 1   
    35   13   55 1   
    36   14   37 1   
    37   14   42 2   
    38   15   37 1   
    39   15   38 2   
    40   15   43 1   
    41   16   17 2   
    42   16   38 1   
    43   16   56 1   
    44   17   43 1   
    45   17   57 1   
    46   18   19 1   
    47   18   58 1   
    48   18   59 1   
    49   19   20 ar  
    50   19   24 ar  
    51   20   21 ar  
    52   20   60 1   
    53   21   22 ar  
    54   21   61 1   
    55   22   23 ar  
    56   22   62 1   
    57   23   24 ar  
    58   23   63 1   
    59   24   64 1   
    60   25   26 1   
    61   25   65 1   
    62   25   66 1   
    63   26   27 ar  
    64   26   31 ar  
    65   27   28 ar  
    66   27   67 1   
    67   28   29 ar  
    68   28   68 1   
    69   29   30 ar  
    70   29   69 1   
    71   30   31 ar  
    72   30   70 1   
    73   31   71 1   
    74   32   33 1   
    75   32   34 1   
    76   32   72 1   
    77   33   34 1   
    78   33   73 1   
    79   33   74 1   
    80   34   75 1   
    81   34   76 1   
    82   37   77 1   
    83   37   80 1   
    84   40   78 1   
    85   41   79 1   
@<TRIPOS>SUBSTRUCTURE
     1 846         1 TEMP              0 ****  ****    0 ROOT
