@<TRIPOS>MOLECULE
846
   79    84     1     0     0
SMALL
bcc


@<TRIPOS>ATOM
      1 C1          0.2480   -0.0540    0.0540 c         1 846      0.808500
      2 C2          2.1590   -0.0410   -1.4500 c3        1 846      0.152300
      3 C3          2.5020    0.3020    1.0320 c3        1 846      0.122700
      4 C4          2.7900   -1.0100    1.8010 c3        1 846      0.123100
      5 C5          1.5340   -1.8910    1.8930 c3        1 846      0.090100
      6 C6          0.2660   -1.1260    2.3440 c3        1 846      0.088700
      7 C7         -1.7850   -0.1660    1.3920 c3        1 846      0.118000
      8 C20         2.1570   -1.4520   -1.9760 ca        1 846     -0.130300
      9 C21         3.2710   -2.2750   -1.7920 ca        1 846     -0.052000
     10 C22         3.2860   -3.5620   -2.3450 ca        1 846     -0.158600
     11 C23         2.1930   -4.0220   -3.0880 ca        1 846     -0.097000
     12 C24         1.0810   -3.2000   -3.2590 ca        1 846     -0.148000
     13 C25         1.0570   -1.9220   -2.7010 ca        1 846     -0.081000
     14 C26         4.5000   -4.3940   -2.1410 c         1 846      0.677700
     15 C27         5.3260   -6.6570   -1.6740 cc        1 846      0.485300
     16 C28         6.3230   -8.6050   -1.2650 cd        1 846      0.354200
     17 C29         7.4420   -7.7940   -1.3900 cc        1 846     -0.320400
     18 C31         3.8320    1.0240    0.7330 c3        1 846     -0.040100
     19 C32         4.4320    1.5650    1.9840 ca        1 846     -0.090300
     20 C33         5.3600    0.8040    2.7070 ca        1 846     -0.125000
     21 C34         5.9450    1.3210    3.8610 ca        1 846     -0.130000
     22 C35         5.6060    2.6000    4.3050 ca        1 846     -0.127000
     23 C36         4.6800    3.3600    3.5910 ca        1 846     -0.130000
     24 C37         4.0940    2.8460    2.4350 ca        1 846     -0.125000
     25 C61         0.5490   -0.3780    3.6670 c3        1 846     -0.052100
     26 C62        -0.6470   -0.3000    4.5480 ca        1 846     -0.081300
     27 C63        -1.1090   -1.4460    5.2070 ca        1 846     -0.129000
     28 C64        -2.2100   -1.3750    6.0580 ca        1 846     -0.126500
     29 C65        -2.8590   -0.1570    6.2620 ca        1 846     -0.130000
     30 C66        -2.4020    0.9890    5.6120 ca        1 846     -0.126500
     31 C67        -1.3020    0.9200    4.7590 ca        1 846     -0.129000
     32 C70        -2.5910   -1.4140    1.1290 cx        1 846     -0.163700
     33 C71        -3.9490   -1.2560    0.4950 cx        1 846     -0.123900
     34 C72        -2.8300   -1.8780   -0.2830 cx        1 846     -0.123900
     35 N2          1.6360    0.1410   -0.1140 n         1 846     -0.467800
     36 N7         -0.3380   -0.2910    1.3210 n         1 846     -0.462800
     37 N26         4.2930   -5.7460   -1.8820 ns        1 846     -0.528400
     38 N27         5.1080   -7.9750   -1.4230 nd        1 846     -0.695000
     39 O1         -0.4930    0.0910   -0.9510 o         1 846     -0.683500
     40 O4          3.8210   -1.7210    1.1350 oh        1 846     -0.603800
     41 O5          1.8590   -2.8900    2.8540 oh        1 846     -0.604800
     42 O26         5.6540   -3.9240   -2.1760 o         1 846     -0.582100
     43 S29         7.0060   -6.2200   -1.7090 ss        1 846      0.020700
     44 H21A        1.5290    0.5930   -2.1450 h1        1 846      0.072700
     45 H22         3.2160    0.3470   -1.4860 h1        1 846      0.072700
     46 H3          1.9410    0.9710    1.7600 h1        1 846      0.071700
     47 H4          3.1420   -0.7390    2.8380 h1        1 846      0.066700
     48 H5          1.3490   -2.3900    0.8990 h1        1 846      0.064700
     49 H6         -0.4890   -1.9400    2.6010 h1        1 846      0.050700
     50 H71        -2.0200    0.1920    2.4390 h1        1 846      0.070700
     51 H72        -2.0970    0.6360    0.6610 h1        1 846      0.070700
     52 H21         4.1360   -1.9220   -1.2030 ha        1 846      0.169000
     53 H23         2.2080   -5.0190   -3.5540 ha        1 846      0.137000
     54 H24         0.2180   -3.5610   -3.8400 ha        1 846      0.140000
     55 H25         0.1700   -1.2760   -2.8180 ha        1 846      0.166000
     56 H28         6.3230   -9.6820   -1.0560 h4        1 846      0.041100
     57 H29         8.4700   -8.1330   -1.2950 h4        1 846      0.180000
     58 H311        4.5470    0.3060    0.2470 hc        1 846      0.068700
     59 H312        3.6490    1.8730    0.0200 hc        1 846      0.068700
     60 H33         5.6190   -0.2070    2.3530 ha        1 846      0.138500
     61 H34         6.6760    0.7200    4.4210 ha        1 846      0.132500
     62 H35         6.0690    3.0080    5.2150 ha        1 846      0.132000
     63 H36         4.4120    4.3690    3.9380 ha        1 846      0.132500
     64 H37         3.3680    3.4500    1.8710 ha        1 846      0.138500
     65 H611        1.3530   -0.9510    4.2080 hc        1 846      0.068200
     66 H612        0.9430    0.6520    3.4670 hc        1 846      0.068200
     67 H63        -0.5920   -2.4050    5.0550 ha        1 846      0.132000
     68 H64        -2.5650   -2.2800    6.5720 ha        1 846      0.132500
     69 H65        -3.7260   -0.1010    6.9350 ha        1 846      0.133000
     70 H66        -2.9090    1.9520    5.7730 ha        1 846      0.132500
     71 H67        -0.9440    1.8270    4.2490 ha        1 846      0.132000
     72 H70        -2.4810   -2.1840    1.9180 hc        1 846      0.072700
     73 H711       -4.2970   -0.2440    0.2180 hc        1 846      0.076200
     74 H712       -4.7770   -1.8910    0.8550 hc        1 846      0.076200
     75 H721       -2.8570   -2.9620   -0.4890 hc        1 846      0.076200
     76 H722       -2.3650   -1.3050   -1.1080 hc        1 846      0.076200
     77 HN6         3.3580   -6.0910   -1.8350 hn        1 846      0.340500
     78 HO4         3.9590   -2.5360    1.6380 ho        1 846      0.420000
     79 HO5         1.1330   -3.5230    2.8660 ho        1 846      0.410000
@<TRIPOS>BOND
     1    1   35 1   
     2    1   36 1   
     3    1   39 2   
     4    2    8 1   
     5    2   35 1   
     6    2   44 1   
     7    2   45 1   
     8    3    4 1   
     9    3   18 1   
    10    3   35 1   
    11    3   46 1   
    12    4    5 1   
    13    4   40 1   
    14    4   47 1   
    15    5    6 1   
    16    5   41 1   
    17    5   48 1   
    18    6   25 1   
    19    6   36 1   
    20    6   49 1   
    21    7   32 1   
    22    7   36 1   
    23    7   50 1   
    24    7   51 1   
    25    8    9 ar  
    26    8   13 ar  
    27    9   10 ar  
    28    9   52 1   
    29   10   11 ar  
    30   10   14 1   
    31   11   12 ar  
    32   11   53 1   
    33   12   13 ar  
    34   12   54 1   
    35   13   55 1   
    36   14   37 1   
    37   14   42 2   
    38   15   37 1   
    39   15   38 2   
    40   15   43 1   
    41   16   17 2   
    42   16   38 1   
    43   16   56 1   
    44   17   43 1   
    45   17   57 1   
    46   18   19 1   
    47   18   58 1   
    48   18   59 1   
    49   19   20 ar  
    50   19   24 ar  
    51   20   21 ar  
    52   20   60 1   
    53   21   22 ar  
    54   21   61 1   
    55   22   23 ar  
    56   22   62 1   
    57   23   24 ar  
    58   23   63 1   
    59   24   64 1   
    60   25   26 1   
    61   25   65 1   
    62   25   66 1   
    63   26   27 ar  
    64   26   31 ar  
    65   27   28 ar  
    66   27   67 1   
    67   28   29 ar  
    68   28   68 1   
    69   29   30 ar  
    70   29   69 1   
    71   30   31 ar  
    72   30   70 1   
    73   31   71 1   
    74   32   33 1   
    75   32   34 1   
    76   32   72 1   
    77   33   34 1   
    78   33   73 1   
    79   33   74 1   
    80   34   75 1   
    81   34   76 1   
    82   37   77 1   
    83   40   78 1   
    84   41   79 1   
@<TRIPOS>SUBSTRUCTURE
     1 846         1 TEMP              0 ****  ****    0 ROOT
