@<TRIPOS>MOLECULE
846
   79    84     1     0     0
SMALL
bcc


@<TRIPOS>ATOM
      1 C1          1.6450    1.0230   -1.8910 c         1 846      0.798500
      2 C2          1.1150    2.0380    0.2600 c3        1 846      0.140300
      3 C3         -0.7210    1.0040   -1.1270 c3        1 846      0.093700
      4 C4         -0.9780   -0.5150   -0.9630 c3        1 846      0.083100
      5 C5          0.1550   -1.3650   -1.5580 c3        1 846      0.136100
      6 C6          0.5390   -0.9440   -2.9960 c3        1 846      0.103700
      7 C7          2.3200    0.3220   -4.1230 c3        1 846      0.114000
      8 C20         1.4390    1.1170    1.4040 ca        1 846     -0.111300
      9 C21         0.6860    1.1610    2.5780 ca        1 846     -0.067000
     10 C22         1.0190    0.3320    3.6560 ca        1 846     -0.147600
     11 C23         2.0950   -0.5540    3.5540 ca        1 846     -0.096000
     12 C24         2.8450   -0.5960    2.3790 ca        1 846     -0.137000
     13 C25         2.5230    0.2370    1.3090 ca        1 846     -0.085000
     14 C26         0.1640    0.4070    4.8710 c         1 846      0.677700
     15 C27         0.1290    0.2970    7.3210 cc        1 846      0.485300
     16 C28        -0.1690    0.2210    9.5260 cd        1 846      0.355200
     17 C29        -1.4780    0.4420    9.1220 cc        1 846     -0.318400
     18 C31        -1.7160    1.7980   -0.2580 c3        1 846     -0.051100
     19 C32        -3.1310    1.4820   -0.6010 ca        1 846     -0.095300
     20 C33        -3.9860    0.9490    0.3710 ca        1 846     -0.132000
     21 C34        -5.3220    0.6880    0.0660 ca        1 846     -0.123000
     22 C35        -5.8140    0.9590   -1.2100 ca        1 846     -0.126000
     23 C36        -4.9690    1.4980   -2.1800 ca        1 846     -0.123000
     24 C37        -3.6340    1.7610   -1.8770 ca        1 846     -0.132000
     25 C61        -0.7200   -0.9080   -3.8910 c3        1 846     -0.044100
     26 C62        -0.4130   -1.1800   -5.3220 ca        1 846     -0.081300
     27 C63        -0.0770   -2.4780   -5.7300 ca        1 846     -0.128500
     28 C64         0.1790   -2.7480   -7.0730 ca        1 846     -0.129000
     29 C65         0.1000   -1.7270   -8.0210 ca        1 846     -0.131000
     30 C66        -0.2350   -0.4340   -7.6200 ca        1 846     -0.129000
     31 C67        -0.4910   -0.1600   -6.2770 ca        1 846     -0.128500
     32 C70         3.4180   -0.7130   -4.1010 cx        1 846     -0.163700
     33 C71         4.7440   -0.3410   -4.7130 cx        1 846     -0.124400
     34 C72         4.6300   -0.5200   -3.2300 cx        1 846     -0.124400
     35 N2          0.6590    1.4070   -0.9580 n         1 846     -0.459800
     36 N7          1.3280    0.2770   -3.0590 n         1 846     -0.451800
     37 N26         0.7990    0.2620    6.0990 n         1 846     -0.523400
     38 N27         0.7610    0.1350    8.5130 nd        1 846     -0.691000
     39 O1          2.8110    1.4690   -1.7330 o         1 846     -0.685500
     40 O4         -1.0690   -0.9390    0.3880 oh        1 846     -0.601800
     41 O5         -0.2640   -2.7200   -1.6500 oh        1 846     -0.603800
     42 O26        -1.0650    0.6110    4.8090 o         1 846     -0.594100
     43 S29        -1.5830    0.5490    7.4650 ss        1 846      0.016700
     44 H21A        2.0550    2.6240    0.0190 h1        1 846      0.076200
     45 H22         0.3370    2.7840    0.5910 h1        1 846      0.076200
     46 H3         -0.9870    1.2470   -2.2050 h1        1 846      0.069700
     47 H4         -1.9460   -0.7490   -1.4940 h1        1 846      0.061700
     48 H5          1.0560   -1.3150   -0.8800 h1        1 846      0.063700
     49 H6          1.1770   -1.8010   -3.3870 h1        1 846      0.075700
     50 H71         1.7400    0.1960   -5.0860 h1        1 846      0.069700
     51 H72         2.7830    1.3510   -4.1140 h1        1 846      0.069700
     52 H21        -0.1780    1.8400    2.6690 ha        1 846      0.148000
     53 H23         2.3500   -1.2340    4.3820 ha        1 846      0.138000
     54 H24         3.6930   -1.2930    2.2960 ha        1 846      0.141000
     55 H25         3.1200    0.2150    0.3800 ha        1 846      0.160000
     56 H28         0.1810    0.1120   10.5590 h4        1 846      0.042100
     57 H29        -2.3300    0.5330    9.7930 h4        1 846      0.180000
     58 H311       -1.5240    1.5850    0.8290 hc        1 846      0.065700
     59 H312       -1.5540    2.8980   -0.4250 hc        1 846      0.065700
     60 H33        -3.6100    0.7450    1.3860 ha        1 846      0.136000
     61 H34        -5.9870    0.2700    0.8360 ha        1 846      0.136500
     62 H35        -6.8670    0.7520   -1.4500 ha        1 846      0.136000
     63 H36        -5.3550    1.7180   -3.1860 ha        1 846      0.136500
     64 H37        -2.9740    2.1960   -2.6430 ha        1 846      0.136000
     65 H611       -1.4110   -1.7130   -3.5140 hc        1 846      0.063200
     66 H612       -1.2530    0.0730   -3.7960 hc        1 846      0.063200
     67 H63        -0.0200   -3.2840   -4.9830 ha        1 846      0.136000
     68 H64         0.4430   -3.7690   -7.3850 ha        1 846      0.131500
     69 H65         0.3010   -1.9420   -9.0800 ha        1 846      0.131000
     70 H66        -0.3000    0.3730   -8.3650 ha        1 846      0.131500
     71 H67        -0.7540    0.8620   -5.9670 ha        1 846      0.136000
     72 H70         3.0540   -1.7470   -4.2600 hc        1 846      0.077700
     73 H711        5.2800   -1.1000   -5.3100 hc        1 846      0.075450
     74 H712        4.8800    0.6760   -5.1220 hc        1 846      0.075450
     75 H721        4.6710    0.3720   -2.5750 hc        1 846      0.075450
     76 H722        5.0910   -1.4060   -2.7590 hc        1 846      0.075450
     77 HN6         1.7880    0.1360    6.1210 hn        1 846      0.342500
     78 HO4        -1.8820   -0.5620    0.7490 ho        1 846      0.414000
     79 HO5        -0.5420   -2.9770   -0.7600 ho        1 846      0.425000
@<TRIPOS>BOND
     1    1   35 1   
     2    1   36 1   
     3    1   39 2   
     4    2    8 1   
     5    2   35 1   
     6    2   44 1   
     7    2   45 1   
     8    3    4 1   
     9    3   18 1   
    10    3   35 1   
    11    3   46 1   
    12    4    5 1   
    13    4   40 1   
    14    4   47 1   
    15    5    6 1   
    16    5   41 1   
    17    5   48 1   
    18    6   25 1   
    19    6   36 1   
    20    6   49 1   
    21    7   32 1   
    22    7   36 1   
    23    7   50 1   
    24    7   51 1   
    25    8    9 ar  
    26    8   13 ar  
    27    9   10 ar  
    28    9   52 1   
    29   10   11 ar  
    30   10   14 1   
    31   11   12 ar  
    32   11   53 1   
    33   12   13 ar  
    34   12   54 1   
    35   13   55 1   
    36   14   37 1   
    37   14   42 2   
    38   15   37 1   
    39   15   38 2   
    40   15   43 1   
    41   16   17 2   
    42   16   38 1   
    43   16   56 1   
    44   17   43 1   
    45   17   57 1   
    46   18   19 1   
    47   18   58 1   
    48   18   59 1   
    49   19   20 ar  
    50   19   24 ar  
    51   20   21 ar  
    52   20   60 1   
    53   21   22 ar  
    54   21   61 1   
    55   22   23 ar  
    56   22   62 1   
    57   23   24 ar  
    58   23   63 1   
    59   24   64 1   
    60   25   26 1   
    61   25   65 1   
    62   25   66 1   
    63   26   27 ar  
    64   26   31 ar  
    65   27   28 ar  
    66   27   67 1   
    67   28   29 ar  
    68   28   68 1   
    69   29   30 ar  
    70   29   69 1   
    71   30   31 ar  
    72   30   70 1   
    73   31   71 1   
    74   32   33 1   
    75   32   34 1   
    76   32   72 1   
    77   33   34 1   
    78   33   73 1   
    79   33   74 1   
    80   34   75 1   
    81   34   76 1   
    82   37   77 1   
    83   40   78 1   
    84   41   79 1   
@<TRIPOS>SUBSTRUCTURE
     1 846         1 TEMP              0 ****  ****    0 ROOT
