@<TRIPOS>MOLECULE
846
   79    84     1     0     0
SMALL
bcc


@<TRIPOS>ATOM
      1 C1          0.2600   -0.0390    0.0550 c         1 846      0.808500
      2 C2          2.1770   -0.0340   -1.4420 c3        1 846      0.151300
      3 C3          2.5130    0.2910    1.0430 c3        1 846      0.122700
      4 C4          2.7850   -1.0280    1.8070 c3        1 846      0.123100
      5 C5          1.5200   -1.8960    1.8910 c3        1 846      0.090100
      6 C6          0.2580   -1.1200    2.3400 c3        1 846      0.088700
      7 C7         -1.7790   -0.1340    1.3850 c3        1 846      0.117000
      8 C20         2.1690   -1.4430   -1.9740 ca        1 846     -0.130300
      9 C21         3.2780   -2.2720   -1.7920 ca        1 846     -0.052000
     10 C22         3.2880   -3.5560   -2.3510 ca        1 846     -0.158600
     11 C23         2.1950   -4.0080   -3.0980 ca        1 846     -0.097000
     12 C24         1.0860   -3.1810   -3.2670 ca        1 846     -0.148000
     13 C25         1.0670   -1.9050   -2.7030 ca        1 846     -0.081000
     14 C26         4.4990   -4.3950   -2.1490 c         1 846      0.677700
     15 C27         5.3140   -6.6640   -1.6930 cc        1 846      0.485300
     16 C28         6.3020   -8.6190   -1.2940 cd        1 846      0.354200
     17 C29         7.4250   -7.8110   -1.4130 cc        1 846     -0.320400
     18 C31         3.8520    1.0010    0.7520 c3        1 846     -0.040100
     19 C32         4.4540    1.5270    2.0090 ca        1 846     -0.090300
     20 C33         5.3720    0.7530    2.7290 ca        1 846     -0.125000
     21 C34         5.9590    1.2570    3.8880 ca        1 846     -0.130000
     22 C35         5.6320    2.5360    4.3390 ca        1 846     -0.127000
     23 C36         4.7160    3.3100    3.6270 ca        1 846     -0.130000
     24 C37         4.1290    2.8090    2.4660 ca        1 846     -0.125000
     25 C61         0.5440   -0.3810    3.6680 c3        1 846     -0.052100
     26 C62        -0.6550   -0.2910    4.5430 ca        1 846     -0.081300
     27 C63        -1.1350   -1.4340    5.1960 ca        1 846     -0.129000
     28 C64        -2.2390   -1.3520    6.0420 ca        1 846     -0.126500
     29 C65        -2.8730   -0.1270    6.2470 ca        1 846     -0.130000
     30 C66        -2.3990    1.0160    5.6040 ca        1 846     -0.126500
     31 C67        -1.2960    0.9360    4.7550 ca        1 846     -0.129000
     32 C70        -2.5970   -1.3730    1.1150 cx        1 846     -0.163700
     33 C71        -3.9510   -1.1990    0.4760 cx        1 846     -0.123900
     34 C72        -2.8360   -1.8300   -0.2990 cx        1 846     -0.123900
     35 N2          1.6510    0.1450   -0.1070 n         1 846     -0.467800
     36 N7         -0.3340   -0.2740    1.3190 n         1 846     -0.462800
     37 N26         4.2850   -5.7480   -1.8980 n         1 846     -0.528400
     38 N27         5.0900   -7.9830   -1.4510 nd        1 846     -0.695000
     39 O1         -0.4760    0.1160   -0.9530 o         1 846     -0.683500
     40 O4          3.8110   -1.7460    1.1420 oh        1 846     -0.603800
     41 O5          1.8310   -2.9020    2.8480 oh        1 846     -0.604800
     42 O26         5.6540   -3.9290   -2.1800 o         1 846     -0.583100
     43 S29         6.9960   -6.2340   -1.7220 ss        1 846      0.020700
     44 H21A        1.5520    0.6060   -2.1360 h1        1 846      0.072700
     45 H22         3.2360    0.3480   -1.4730 h1        1 846      0.072700
     46 H3          1.9570    0.9630    1.7720 h1        1 846      0.071700
     47 H4          3.1350   -0.7640    2.8470 h1        1 846      0.066700
     48 H5          1.3330   -2.3880    0.8930 h1        1 846      0.064700
     49 H6         -0.5060   -1.9270    2.5910 h1        1 846      0.050700
     50 H71        -2.0150    0.2230    2.4320 h1        1 846      0.070700
     51 H72        -2.0800    0.6730    0.6560 h1        1 846      0.070700
     52 H21         4.1430   -1.9260   -1.2000 ha        1 846      0.169000
     53 H23         2.2060   -5.0030   -3.5690 ha        1 846      0.137000
     54 H24         0.2230   -3.5340   -3.8510 ha        1 846      0.140000
     55 H25         0.1830   -1.2540   -2.8180 ha        1 846      0.166000
     56 H28         6.2980   -9.6960   -1.0920 h4        1 846      0.041100
     57 H29         8.4520   -8.1550   -1.3180 h4        1 846      0.180000
     58 H311        3.6800    1.8570    0.0450 hc        1 846      0.068700
     59 H312        4.5610    0.2780    0.2650 hc        1 846      0.068700
     60 H33         5.6210   -0.2590    2.3700 ha        1 846      0.138500
     61 H34         6.6820    0.6440    4.4470 ha        1 846      0.132500
     62 H35         6.0970    2.9330    5.2530 ha        1 846      0.132000
     63 H36         4.4570    4.3190    3.9800 ha        1 846      0.132500
     64 H37         3.4100    3.4250    1.9040 ha        1 846      0.138500
     65 H611        1.3380   -0.9670    4.2100 hc        1 846      0.068200
     66 H612        0.9520    0.6450    3.4740 hc        1 846      0.068200
     67 H63        -0.6280   -2.3990    5.0440 ha        1 846      0.132000
     68 H64        -2.6070   -2.2550    6.5520 ha        1 846      0.132500
     69 H65        -3.7440   -0.0620    6.9160 ha        1 846      0.133000
     70 H66        -2.8960    1.9840    5.7660 ha        1 846      0.132500
     71 H67        -0.9240    1.8410    4.2510 ha        1 846      0.132000
     72 H70        -2.4980   -2.1460    1.9020 hc        1 846      0.072700
     73 H711       -4.2870   -0.1830    0.2010 hc        1 846      0.076200
     74 H712       -4.7870   -1.8270    0.8320 hc        1 846      0.076200
     75 H721       -2.3610   -1.2600   -1.1210 hc        1 846      0.076200
     76 H722       -2.8730   -2.9130   -0.5080 hc        1 846      0.076200
     77 HN6         3.3490   -6.0890   -1.8540 hn        1 846      0.340500
     78 HO4         3.9390   -2.5640    1.6410 ho        1 846      0.420000
     79 HO5         1.0980   -3.5290    2.8540 ho        1 846      0.410000
@<TRIPOS>BOND
     1    1   35 1   
     2    1   36 1   
     3    1   39 2   
     4    2    8 1   
     5    2   35 1   
     6    2   44 1   
     7    2   45 1   
     8    3    4 1   
     9    3   18 1   
    10    3   35 1   
    11    3   46 1   
    12    4    5 1   
    13    4   40 1   
    14    4   47 1   
    15    5    6 1   
    16    5   41 1   
    17    5   48 1   
    18    6   25 1   
    19    6   36 1   
    20    6   49 1   
    21    7   32 1   
    22    7   36 1   
    23    7   50 1   
    24    7   51 1   
    25    8    9 ar  
    26    8   13 ar  
    27    9   10 ar  
    28    9   52 1   
    29   10   11 ar  
    30   10   14 1   
    31   11   12 ar  
    32   11   53 1   
    33   12   13 ar  
    34   12   54 1   
    35   13   55 1   
    36   14   37 1   
    37   14   42 2   
    38   15   37 1   
    39   15   38 2   
    40   15   43 1   
    41   16   17 2   
    42   16   38 1   
    43   16   56 1   
    44   17   43 1   
    45   17   57 1   
    46   18   19 1   
    47   18   58 1   
    48   18   59 1   
    49   19   20 ar  
    50   19   24 ar  
    51   20   21 ar  
    52   20   60 1   
    53   21   22 ar  
    54   21   61 1   
    55   22   23 ar  
    56   22   62 1   
    57   23   24 ar  
    58   23   63 1   
    59   24   64 1   
    60   25   26 1   
    61   25   65 1   
    62   25   66 1   
    63   26   27 ar  
    64   26   31 ar  
    65   27   28 ar  
    66   27   67 1   
    67   28   29 ar  
    68   28   68 1   
    69   29   30 ar  
    70   29   69 1   
    71   30   31 ar  
    72   30   70 1   
    73   31   71 1   
    74   32   33 1   
    75   32   34 1   
    76   32   72 1   
    77   33   34 1   
    78   33   73 1   
    79   33   74 1   
    80   34   75 1   
    81   34   76 1   
    82   37   77 1   
    83   40   78 1   
    84   41   79 1   
@<TRIPOS>SUBSTRUCTURE
     1 846         1 TEMP              0 ****  ****    0 ROOT
