@<TRIPOS>MOLECULE
848
   27    28     1     0     0
SMALL
bcc


@<TRIPOS>ATOM
      1 N1          1.8900    2.0140   -0.5810 nh        1 848     -0.812200
      2 C2          2.4560    0.8190   -0.1300 ca        1 848      0.133600
      3 C3          3.8520    0.5990   -0.1880 ca        1 848     -0.184000
      4 C7          1.6430   -0.2530    0.3290 ca        1 848      0.019100
      5 C6          2.1950   -1.4870    0.6810 ca        1 848     -0.102000
      6 C5          3.5720   -1.6750    0.6030 ca        1 848     -0.165000
      7 C4          4.3900   -0.6310    0.1700 ca        1 848     -0.095000
      8 O8          0.2820   -0.0350    0.5290 os        1 848     -0.350900
      9 C9         -0.5090   -0.4470   -0.6010 c3        1 848      0.176700
     10 C10        -1.9410   -0.2030   -0.2800 ca        1 848     -0.208600
     11 C15        -2.8750   -0.0630   -1.3130 ca        1 848     -0.091000
     12 C14        -4.2170    0.1360   -0.9890 ca        1 848     -0.247300
     13 C13        -4.5780    0.1940    0.3700 ca        1 848      0.394200
     14 N12        -3.6940    0.0680    1.3790 nb        1 848     -0.665000
     15 C11        -2.4040   -0.1280    1.0520 ca        1 848      0.418200
     16 HN1         2.4890    2.8060   -0.4970 hn        1 848      0.395800
     17 HN1A        0.9690    2.1770   -0.2320 hn        1 848      0.395800
     18 H3          4.5180    1.4060   -0.5260 ha        1 848      0.135000
     19 H6          1.5320   -2.2930    1.0280 ha        1 848      0.142000
     20 H5          4.0110   -2.6420    0.8840 ha        1 848      0.135000
     21 H4          5.4790   -0.7810    0.1120 ha        1 848      0.132000
     22 H9         -0.1920    0.1400   -1.5050 h1        1 848      0.050700
     23 H9A        -0.3330   -1.5420   -0.7880 h1        1 848      0.050700
     24 H15        -2.5540   -0.1090   -2.3640 ha        1 848      0.138000
     25 H14        -4.9780    0.2470   -1.7720 ha        1 848      0.143000
     26 H13        -5.6300    0.3500    0.6690 h4        1 848      0.022100
     27 H11        -1.6930   -0.2240    1.8940 h4        1 848      0.040100
@<TRIPOS>BOND
     1    1    2 1   
     2    1   16 1   
     3    1   17 1   
     4    2    3 ar  
     5    2    4 ar  
     6    3    7 ar  
     7    3   18 1   
     8    4    5 ar  
     9    4    8 1   
    10    5    6 ar  
    11    5   19 1   
    12    6    7 ar  
    13    6   20 1   
    14    7   21 1   
    15    8    9 1   
    16    9   10 1   
    17    9   22 1   
    18    9   23 1   
    19   10   11 ar  
    20   10   15 ar  
    21   11   12 ar  
    22   11   24 1   
    23   12   13 ar  
    24   12   25 1   
    25   13   14 ar  
    26   13   26 1   
    27   14   15 ar  
    28   15   27 1   
@<TRIPOS>SUBSTRUCTURE
     1 848         1 TEMP              0 ****  ****    0 ROOT
