@<TRIPOS>MOLECULE
848
   27    24     1     0     0
SMALL
bcc


@<TRIPOS>ATOM
      1 N1         -1.1630   -1.8350    2.1810 n3        1 848     -0.321000
      2 C2          0.1090   -1.1710    2.3490 c2        1 848      0.052000
      3 C3          0.7460   -1.2000    3.5740 c2        1 848     -0.184000
      4 C7          0.7430   -0.6060    1.2530 c1        1 848     -0.026000
      5 C6          2.0130   -0.0730    1.3870 c2        1 848     -0.102000
      6 C5          2.6510   -0.1020    2.6160 c1        1 848     -0.165000
      7 C4          2.0200   -0.6640    3.7080 c1        1 848     -0.095000
      8 O8          0.1040   -0.6100   -0.0200 o         1 848     -0.234000
      9 C9         -0.5570    0.6180   -0.3430 c3        1 848      0.019000
     10 C10        -0.8330    0.6700   -1.8700 c2        1 848     -0.136000
     11 C15        -0.4380    1.7660   -2.6050 c2        1 848     -0.091000
     12 C14        -0.7630    1.8540   -3.9330 c1        1 848     -0.182000
     13 C13        -1.4900    0.8400   -4.5360 c1        1 848     -0.071000
     14 N12        -1.8850   -0.2540   -3.8040 n1        1 848     -0.139000
     15 C11        -1.5620   -0.3440   -2.4790 c1        1 848     -0.047000
     16 HN1        -1.4360   -2.0990    1.3450 hn        1 848      0.191000
     17 HN1A       -1.6790   -2.0580    2.9330 hn        1 848      0.191000
     18 H3          0.3110   -1.5880    4.3270 ha        1 848      0.135000
     19 H6          2.4560    0.3220    0.6200 ha        1 848      0.142000
     20 H5          3.5470    0.2740    2.7090 ha        1 848      0.135000
     21 H4          2.4790   -0.6860    4.5920 ha        1 848      0.132000
     22 H9          0.0130    1.3730   -0.0880 h1        1 848      0.090000
     23 H9A        -1.4220    0.6720    0.1530 h1        1 848      0.090000
     24 H15         0.0700    2.4730   -2.1840 ha        1 848      0.138000
     25 H14        -0.4800    2.6370   -4.4590 ha        1 848      0.143000
     26 H13        -1.7150    0.9010   -5.4580 ha        1 848      0.159000
     27 H11        -1.8390   -1.1110   -1.9680 ha        1 848      0.177000
@<TRIPOS>BOND
     1    1    2 1   
     2    1   16 1   
     3    1   17 1   
     4    2    3 1   
     5    2    4 1   
     6    3    7 1   
     7    3   18 1   
     8    4    5 1   
     9    5    6 1   
    10    5   19 1   
    11    6   20 1   
    12    7   21 1   
    13    8    9 1   
    14    9   10 1   
    15    9   22 1   
    16    9   23 1   
    17   10   11 1   
    18   10   15 1   
    19   11   12 1   
    20   11   24 1   
    21   12   25 1   
    22   13   14 1   
    23   13   26 1   
    24   15   27 1   
@<TRIPOS>SUBSTRUCTURE
     1 848         1 TEMP              0 ****  ****    0 ROOT
