@<TRIPOS>MOLECULE
848
   27    28     1     0     0
SMALL
bcc


@<TRIPOS>ATOM
      1 N1          0.0930    0.7090   -0.3040 nv        1 848     -0.806200
      2 C2          1.4370    0.3450   -0.1730 ca        1 848      0.129600
      3 C3          1.9970    0.0790    1.0970 ca        1 848     -0.172000
      4 C7          2.3180    0.3230   -1.2930 ca        1 848      0.046100
      5 C6          3.6820    0.0700   -1.1360 ca        1 848     -0.146000
      6 C5          4.2010   -0.1820    0.1320 ca        1 848     -0.149000
      7 C4          3.3550   -0.1790    1.2400 ca        1 848     -0.112000
      8 O8          1.7580    0.6290   -2.5280 os        1 848     -0.342900
      9 C9          2.3180   -0.1070   -3.6280 c3        1 848      0.180700
     10 C10         1.3190   -0.1110   -4.7320 ca        1 848     -0.213600
     11 C15         0.4530    0.9670   -4.9510 ca        1 848     -0.069000
     12 C14        -0.4370    0.9090   -6.0240 ca        1 848     -0.248300
     13 C13        -0.4260   -0.2320   -6.8460 ca        1 848      0.395200
     14 N12         0.3980   -1.2800   -6.6510 nb        1 848     -0.664000
     15 C11         1.2480   -1.2140   -5.6100 ca        1 848      0.399200
     16 HN1        -0.5070    0.2860    0.3700 hn        1 848      0.393300
     17 HN1A       -0.2510    0.6420   -1.2380 hn        1 848      0.393300
     18 H3          1.3490    0.0800    1.9870 ha        1 848      0.135000
     19 H6          4.3450    0.0710   -2.0130 ha        1 848      0.135000
     20 H5          5.2740   -0.3820    0.2550 ha        1 848      0.134000
     21 H4          3.7640   -0.3820    2.2410 ha        1 848      0.132000
     22 H9          2.5760   -1.1510   -3.3100 h1        1 848      0.051700
     23 H9A         3.2530    0.4250   -3.9590 h1        1 848      0.051700
     24 H15         0.4790    1.8380   -4.2780 ha        1 848      0.156000
     25 H14        -1.1310    1.7350   -6.2270 ha        1 848      0.145000
     26 H13        -1.1130   -0.3170   -7.7080 h4        1 848      0.023100
     27 H11         1.9080   -2.0890   -5.4720 h4        1 848      0.021100
@<TRIPOS>BOND
     1    1    2 1   
     2    1   16 1   
     3    1   17 1   
     4    2    3 ar  
     5    2    4 ar  
     6    3    7 ar  
     7    3   18 1   
     8    4    5 ar  
     9    4    8 1   
    10    5    6 ar  
    11    5   19 1   
    12    6    7 ar  
    13    6   20 1   
    14    7   21 1   
    15    8    9 1   
    16    9   10 1   
    17    9   22 1   
    18    9   23 1   
    19   10   11 ar  
    20   10   15 ar  
    21   11   12 ar  
    22   11   24 1   
    23   12   13 ar  
    24   12   25 1   
    25   13   14 ar  
    26   13   26 1   
    27   14   15 ar  
    28   15   27 1   
@<TRIPOS>SUBSTRUCTURE
     1 848         1 TEMP              0 ****  ****    0 ROOT
