@<TRIPOS>MOLECULE
848
   28    29     1     0     0
SMALL
bcc


@<TRIPOS>ATOM
      1 N1          0.0010   -0.2740   -0.1430 n4        1 848     -0.684000
      2 C2          1.4510   -0.1380   -0.0510 ca        1 848     -0.128400
      3 C3          2.0820   -0.1270    1.2080 ca        1 848     -0.069000
      4 C7          2.2250   -0.0240   -1.2360 ca        1 848      0.184100
      5 C6          3.6190    0.0980   -1.1380 ca        1 848     -0.186000
      6 C5          4.2270    0.1050    0.1120 ca        1 848     -0.028000
      7 C4          3.4620   -0.0060    1.2810 ca        1 848     -0.136000
      8 O8          1.5130   -0.0460   -2.4050 os        1 848     -0.367900
      9 C9          2.2650    0.1290   -3.6360 c3        1 848      0.199700
     10 C10         1.2620    0.1030   -4.7300 ca        1 848     -0.254600
     11 C15         1.0260    1.2320   -5.5250 ca        1 848     -0.064000
     12 C14         0.1000    1.1420   -6.5640 ca        1 848     -0.240300
     13 C13        -0.5730   -0.0800   -6.7630 ca        1 848      0.424200
     14 N12        -0.3640   -1.1730   -6.0030 nb        1 848     -0.655000
     15 C11         0.5420   -1.0770   -5.0140 ca        1 848      0.420200
     16 HN1        -0.2470   -1.2690   -0.1800 hn        1 848      0.465133
     17 HN1A       -0.3270    0.1820   -1.0060 hn        1 848      0.465133
     18 H3          1.4920   -0.2130    2.1360 ha        1 848      0.157000
     19 H6          4.2330    0.1860   -2.0490 ha        1 848      0.173000
     20 H5          5.3240    0.1990    0.1860 ha        1 848      0.173000
     21 H4          3.9590    0.0020    2.2650 ha        1 848      0.175000
     22 H9          2.8100    1.1080   -3.5870 h1        1 848      0.068200
     23 H9A         2.9910   -0.7230   -3.7270 h1        1 848      0.068200
     24 H15         1.5680    2.1730   -5.3410 ha        1 848      0.146000
     25 H14        -0.1040    2.0010   -7.2180 ha        1 848      0.163000
     26 H13        -1.3170   -0.1940   -7.5740 h4        1 848      0.043100
     27 H11         0.7060   -1.9930   -4.4180 h4        1 848      0.023100
     28 H131       -0.4450    0.1620    0.6690 hn        1 848      0.465133
@<TRIPOS>BOND
     1    1    2 1   
     2    1   16 1   
     3    1   17 1   
     4    1   28 1   
     5    2    3 ar  
     6    2    4 ar  
     7    3    7 ar  
     8    3   18 1   
     9    4    5 ar  
    10    4    8 1   
    11    5    6 ar  
    12    5   19 1   
    13    6    7 ar  
    14    6   20 1   
    15    7   21 1   
    16    8    9 1   
    17    9   10 1   
    18    9   22 1   
    19    9   23 1   
    20   10   11 ar  
    21   10   15 ar  
    22   11   12 ar  
    23   11   24 1   
    24   12   13 ar  
    25   12   25 1   
    26   13   14 ar  
    27   13   26 1   
    28   14   15 ar  
    29   15   27 1   
@<TRIPOS>SUBSTRUCTURE
     1 848         1 TEMP              0 ****  ****    0 ROOT
