@<TRIPOS>MOLECULE
848
   27    28     1     0     0
SMALL
bcc


@<TRIPOS>ATOM
      1 N1          0.0870    0.7020   -0.3060 nh        1 848     -0.806200
      2 C2          1.4270    0.3280   -0.1720 ca        1 848      0.129600
      3 C3          1.9780    0.0470    1.0980 ca        1 848     -0.172000
      4 C7          2.3140    0.3070   -1.2880 ca        1 848      0.046100
      5 C6          3.6750    0.0430   -1.1250 ca        1 848     -0.146000
      6 C5          4.1850   -0.2230    0.1430 ca        1 848     -0.149000
      7 C4          3.3340   -0.2220    1.2460 ca        1 848     -0.112000
      8 O8          1.7620    0.6270   -2.5230 os        1 848     -0.342900
      9 C9          2.3220   -0.1040   -3.6260 c3        1 848      0.180700
     10 C10         1.3280   -0.0920   -4.7340 ca        1 848     -0.213600
     11 C15         0.4720    0.9940   -4.9500 ca        1 848     -0.069000
     12 C14        -0.4130    0.9520   -6.0280 ca        1 848     -0.248300
     13 C13        -0.4070   -0.1840   -6.8580 ca        1 848      0.395200
     14 N12         0.4080   -1.2400   -6.6660 nb        1 848     -0.664000
     15 C11         1.2530   -1.1880   -5.6210 ca        1 848      0.399200
     16 HN1        -0.2530    0.6450   -1.2430 hn        1 848      0.393300
     17 HN1A       -0.5200    0.2790    0.3610 hn        1 848      0.393300
     18 H3          1.3260    0.0460    1.9850 ha        1 848      0.135000
     19 H6          4.3420    0.0460   -1.9990 ha        1 848      0.135000
     20 H5          5.2560   -0.4320    0.2700 ha        1 848      0.134000
     21 H4          3.7360   -0.4360    2.2480 ha        1 848      0.132000
     22 H9          3.2630    0.4230   -3.9480 h1        1 848      0.051700
     23 H9A         2.5710   -1.1530   -3.3150 h1        1 848      0.051700
     24 H15         0.5020    1.8590   -4.2700 ha        1 848      0.156000
     25 H14        -1.1000    1.7840   -6.2280 ha        1 848      0.145000
     26 H13        -1.0900   -0.2570   -7.7230 h4        1 848      0.023100
     27 H11         1.9060   -2.0690   -5.4870 h4        1 848      0.021100
@<TRIPOS>BOND
     1    1    2 1   
     2    1   16 1   
     3    1   17 1   
     4    2    3 ar  
     5    2    4 ar  
     6    3    7 ar  
     7    3   18 1   
     8    4    5 ar  
     9    4    8 1   
    10    5    6 ar  
    11    5   19 1   
    12    6    7 ar  
    13    6   20 1   
    14    7   21 1   
    15    8    9 1   
    16    9   10 1   
    17    9   22 1   
    18    9   23 1   
    19   10   11 ar  
    20   10   15 ar  
    21   11   12 ar  
    22   11   24 1   
    23   12   13 ar  
    24   12   25 1   
    25   13   14 ar  
    26   13   26 1   
    27   14   15 ar  
    28   15   27 1   
@<TRIPOS>SUBSTRUCTURE
     1 848         1 TEMP              0 ****  ****    0 ROOT
