@<TRIPOS>MOLECULE
849
   57    60     1     0     0
SMALL
bcc


@<TRIPOS>ATOM
      1 C1         -0.1980    0.6810    0.0980 ca        1 849     -0.056000
      2 C2          1.1530    0.3540    0.1650 ca        1 849     -0.128300
      3 C3          1.6600   -0.3640    1.2720 ca        1 849     -0.110000
      4 C4          0.8540   -0.7660    2.3210 ca        1 849     -0.139000
      5 C5         -1.0420    0.2900    1.1360 ca        1 849     -0.115800
      6 C6         -0.5130   -0.4410    2.2650 ca        1 849     -0.027200
      7 N7         -1.5430   -0.6700    3.1710 na        1 849     -0.154400
      8 C8         -2.7440   -0.1710    2.6360 cc        1 849     -0.000300
      9 C9         -2.4590    0.4460    1.3980 cd        1 849      0.088300
     10 C10        -4.0240   -0.2620    3.3160 ca        1 849     -0.073800
     11 C11         2.0640    0.7710   -0.9450 c3        1 849     -0.007400
     12 C12         2.7060   -0.4350   -1.6210 c3        1 849     -0.107900
     13 C13         3.6780    0.0130   -2.7110 c3        1 849      0.160800
     14 N14         4.6910    0.9730   -2.2840 n3        1 849     -0.732600
     15 C15         4.0970    2.1020   -1.5750 c3        1 849      0.160800
     16 C16         3.1370    1.7330   -0.4460 c3        1 849     -0.107900
     17 C17         5.8180    0.3800   -1.5920 c3        1 849      0.158800
     18 C18         7.1280    0.9740   -2.1760 c3        1 849      0.083800
     19 N19         8.3390    0.3800   -1.5320 ny        1 849     -0.757000
     20 C20         9.5920    0.9440   -2.0810 c3        1 849      0.079100
     21 C21        -4.3930   -1.3520    4.1380 ca        1 849      0.139100
     22 C22        -5.6510   -1.3880    4.7560 ca        1 849     -0.200000
     23 C23        -6.5470   -0.3400    4.5640 ca        1 849     -0.080000
     24 C24        -6.1980    0.7430    3.7590 ca        1 849     -0.157000
     25 C25        -4.9490    0.7800    3.1460 ca        1 849     -0.075000
     26 O26        -3.4510   -2.3500    4.3090 os        1 849     -0.355900
     27 C27        -3.9140   -3.5680    4.8870 c3        1 849      0.117700
     28 F28        -3.3250    1.0680    0.5880 f         1 849     -0.143500
     29 H1         -0.6100    1.2400   -0.7560 ha        1 849      0.143000
     30 H3          2.7320   -0.6110    1.2980 ha        1 849      0.114000
     31 H11         1.4570    1.3150   -1.7270 hc        1 849      0.061700
     32 H4          1.2650   -1.3220    3.1740 ha        1 849      0.138000
     33 H7         -1.5080   -1.2960    3.9370 hn        1 849      0.319700
     34 H25        -4.6780    1.6360    2.5060 ha        1 849      0.151000
     35 H121        1.9110   -1.0730   -2.0860 hc        1 849      0.056950
     36 H122        3.2410   -1.0610   -0.8600 hc        1 849      0.056950
     37 H161        3.6980    1.2690    0.4060 hc        1 849      0.056950
     38 H162        2.6540    2.6690   -0.0630 hc        1 849      0.056950
     39 H131        3.0980    0.5260   -3.5320 h1        1 849      0.060700
     40 H132        4.1820   -0.8870   -3.1590 h1        1 849      0.060700
     41 H151        4.9210    2.7520   -1.1690 h1        1 849      0.060700
     42 H152        3.5380    2.6980   -2.3530 h1        1 849      0.060700
     43 H171        5.7980    0.5810   -0.4810 h1        1 849      0.050700
     44 H172        5.8330   -0.7370   -1.7380 h1        1 849      0.050700
     45 H181        7.1860    0.7710   -3.2840 hx        1 849      0.114700
     46 H182        7.1570    2.0880   -2.0110 hx        1 849      0.114700
     47 H19         8.3280   -0.6370   -1.6770 hn        1 849      0.451800
     48 H201        9.6440    0.7410   -3.1850 hx        1 849      0.110700
     49 H202       10.4700    0.4650   -1.5680 hx        1 849      0.110700
     50 H203        9.6130    2.0540   -1.9060 hx        1 849      0.110700
     51 H22        -5.9380   -2.2360    5.3940 ha        1 849      0.144000
     52 H23        -7.5340   -0.3710    5.0510 ha        1 849      0.142000
     53 H24        -6.9070    1.5700    3.6070 ha        1 849      0.144000
     54 H271       -4.8000   -3.9620    4.3330 h1        1 849      0.049700
     55 H272       -3.0390   -4.2570    4.7760 h1        1 849      0.049700
     56 H273       -4.1590   -3.4140    5.9660 h1        1 849      0.049700
     57 H192        8.2980    0.5520   -0.5200 hn        1 849      0.451800
@<TRIPOS>BOND
     1    1    2 ar  
     2    1    5 ar  
     3    1   29 1   
     4    2    3 ar  
     5    2   11 1   
     6    3    4 ar  
     7    3   30 1   
     8    4    6 ar  
     9    4   32 1   
    10    5    6 ar  
    11    5    9 1   
    12    6    7 1   
    13    7    8 1   
    14    7   33 1   
    15    8    9 2   
    16    8   10 1   
    17    9   28 1   
    18   10   21 ar  
    19   10   25 ar  
    20   11   12 1   
    21   11   16 1   
    22   11   31 1   
    23   12   13 1   
    24   12   35 1   
    25   12   36 1   
    26   13   14 1   
    27   13   39 1   
    28   13   40 1   
    29   14   15 1   
    30   14   17 1   
    31   15   16 1   
    32   15   41 1   
    33   15   42 1   
    34   16   37 1   
    35   16   38 1   
    36   17   18 1   
    37   17   43 1   
    38   17   44 1   
    39   18   19 1   
    40   18   45 1   
    41   18   46 1   
    42   19   20 1   
    43   19   47 1   
    44   19   57 1   
    45   20   48 1   
    46   20   49 1   
    47   20   50 1   
    48   21   22 ar  
    49   21   26 1   
    50   22   23 ar  
    51   22   51 1   
    52   23   24 ar  
    53   23   52 1   
    54   24   25 ar  
    55   24   53 1   
    56   25   34 1   
    57   26   27 1   
    58   27   54 1   
    59   27   55 1   
    60   27   56 1   
@<TRIPOS>SUBSTRUCTURE
     1 849         1 TEMP              0 ****  ****    0 ROOT
