@<TRIPOS>MOLECULE
849
   56    49     1     0     0
SMALL
bcc


@<TRIPOS>ATOM
      1 C1         -1.0950    0.4580   -0.3920 c1        1 849     -0.106500
      2 C2          0.2700    0.4330   -0.3500 c1        1 849     -0.100000
      3 C3          0.9240    0.3740    0.8650 c1        1 849     -0.100000
      4 C4          0.1990    0.3410    2.0400 c1        1 849     -0.106500
      5 C5         -1.8300    0.4250    0.7900 c1        1 849     -0.046500
      6 C6         -1.1790    0.3660    2.0000 c1        1 849     -0.046500
      7 N7         -2.1550    0.2720    3.0110 n1        1 849     -0.181000
      8 C8         -3.3750    0.2740    2.4160 c2        1 849     -0.009000
      9 C9         -3.1820    0.3700    1.0300 c1        1 849      0.020000
     10 C10        -4.5560    0.4070    3.1810 c1        1 849     -0.045000
     11 C11         0.8290    0.3840   -1.8070 c3        1 849     -0.060000
     12 C12         1.5910   -0.8930   -1.9960 c3        1 849     -0.185500
     13 C13         2.3200   -0.9400   -3.3350 c3        1 849     -0.073000
     14 N14         3.1530    0.2620   -3.5690 n3        1 849     -0.249000
     15 C15         2.4080    1.5090   -3.3900 c3        1 849     -0.073000
     16 C16         1.6590    1.5650   -2.0340 c3        1 849     -0.185500
     17 C17         4.3200    0.2530   -2.6400 c3        1 849     -0.074000
     18 C18         5.7130    0.1470   -3.5020 c3        1 849     -0.077000
     19 N19         6.5680   -0.7860   -2.8990 n3        1 849     -0.307000
     20 C20         7.9290   -0.6330   -3.4360 c3        1 849     -0.122000
     21 C21        -5.3580   -0.7040    3.4770 c1        1 849      0.088000
     22 C22        -6.5830   -0.5290    4.1750 c1        1 849     -0.201000
     23 C23        -6.9730    0.7090    4.5530 c1        1 849     -0.124000
     24 C24        -6.1520    1.8440    4.2490 c1        1 849     -0.124000
     25 C25        -4.9550    1.6720    3.5670 c1        1 849     -0.079000
     26 O26        -4.8900   -2.0670    3.1280 os        1 849     -0.233000
     27 C27        -5.3860   -3.0910    3.9940 c3        1 849     -0.072000
     28 F28        -4.2090    0.3740    0.2320 f         1 849     -0.087000
     29 H1         -1.5830    0.5020   -1.3060 ha        1 849      0.138000
     30 H3          1.8610    0.3580    0.8920 ha        1 849      0.131000
     31 H11         0.1160    0.3980   -2.4030 hc        1 849      0.093000
     32 H4          0.6640    0.2980    2.9010 ha        1 849      0.138000
     33 H7         -1.9900    0.2160    3.9420 DU        1 849      0.263000
     34 H25        -4.3920    2.4470    3.3580 ha        1 849      0.152000
     35 H121        2.2320   -0.9800   -1.2910 hc        1 849      0.087500
     36 H122        0.9490   -1.6610   -1.9470 hc        1 849      0.087500
     37 H161        2.3410    1.6370   -1.2850 hc        1 849      0.087500
     38 H162        1.0700    2.3810   -2.0180 hc        1 849      0.087500
     39 H131        1.6760   -1.0040   -4.0280 h1        1 849      0.090750
     40 H132        2.9450   -1.8080   -3.3610 h1        1 849      0.090750
     41 H151        1.7180    1.5990   -4.1540 h1        1 849      0.090750
     42 H152        3.0850    2.3170   -3.4410 h1        1 849      0.090750
     43 H171        4.2520   -0.5070   -2.0390 h1        1 849      0.075500
     44 H172        4.3230    1.1210   -2.0910 h1        1 849      0.075500
     45 H181        5.5190   -0.1260   -4.3800 h1        1 849      0.075500
     46 H182        6.1550    1.0340   -3.5210 h1        1 849      0.075500
     47 H19         6.2830   -1.5840   -3.0600 hn        1 849      0.149000
     48 H201        8.4740   -1.3450   -3.1200 h1        1 849      0.068333
     49 H202        7.8990   -0.6550   -4.4250 h1        1 849      0.068333
     50 H203        8.3080    0.2300   -3.1370 h1        1 849      0.068333
     51 H22        -7.1600   -1.3240    4.3880 ha        1 849      0.139000
     52 H23        -7.8190    0.8310    5.0340 ha        1 849      0.137000
     53 H24        -6.4530    2.7940    4.5400 ha        1 849      0.137000
     54 H271       -4.9920   -2.9770    4.9060 h1        1 849      0.086333
     55 H272       -6.3510   -3.0270    4.0490 h1        1 849      0.086333
     56 H273       -5.1380   -3.9620    3.6400 h1        1 849      0.086333
@<TRIPOS>BOND
     1    1    5 1   
     2    1   29 1   
     3    2    3 1   
     4    2   11 1   
     5    3   30 1   
     6    4    6 1   
     7    4   32 1   
     8    7    8 1   
     9    8    9 1   
    10    8   10 1   
    11   10   25 1   
    12   11   12 1   
    13   11   16 1   
    14   11   31 1   
    15   12   13 1   
    16   12   35 1   
    17   12   36 1   
    18   13   14 1   
    19   13   39 1   
    20   13   40 1   
    21   14   15 1   
    22   14   17 1   
    23   15   16 1   
    24   15   41 1   
    25   15   42 1   
    26   16   37 1   
    27   16   38 1   
    28   17   18 1   
    29   17   43 1   
    30   17   44 1   
    31   18   19 1   
    32   18   45 1   
    33   18   46 1   
    34   19   20 1   
    35   19   47 1   
    36   20   48 1   
    37   20   49 1   
    38   20   50 1   
    39   21   22 1   
    40   21   26 1   
    41   22   51 1   
    42   23   24 1   
    43   23   52 1   
    44   24   53 1   
    45   25   34 1   
    46   26   27 1   
    47   27   54 1   
    48   27   55 1   
    49   27   56 1   
@<TRIPOS>SUBSTRUCTURE
     1 849         1 TEMP              0 ****  ****    0 ROOT
