@<TRIPOS>MOLECULE
849
   56    59     1     0     0
SMALL
bcc


@<TRIPOS>ATOM
      1 C1         -0.0880   -0.5000    1.2580 ca        1 849     -0.067000
      2 C2         -1.2140   -0.2520    0.4800 ca        1 849     -0.106300
      3 C3         -1.0790    0.2990   -0.8150 ca        1 849     -0.100000
      4 C4          0.1540    0.6150   -1.3570 ca        1 849     -0.146000
      5 C5          1.1730   -0.2000    0.7430 ca        1 849     -0.118800
      6 C6          1.2990    0.3670   -0.5780 ca        1 849     -0.031200
      7 N7          2.6460    0.6180   -0.8330 na        1 849     -0.158400
      8 C8          3.4090    0.1530    0.2540 cc        1 849     -0.024300
      9 C9          2.5270   -0.3240    1.2470 cd        1 849      0.094300
     10 C10         4.8570    0.2270    0.3060 ca        1 849     -0.056800
     11 C11        -2.5720   -0.5720    1.0200 c3        1 849     -0.013400
     12 C12        -3.2800   -1.6160    0.1630 c3        1 849     -0.106900
     13 C13        -4.6860   -1.8830    0.7000 c3        1 849      0.163800
     14 N14        -5.5280   -0.7080    0.8700 n3        1 849     -0.723600
     15 C15        -4.8390    0.3300    1.6240 c3        1 849      0.163800
     16 C16        -3.4310    0.6810    1.1380 c3        1 849     -0.106900
     17 C17        -6.1210   -0.2310   -0.3730 c3        1 849      0.162800
     18 C18        -7.4780    0.4670   -0.1300 c3        1 849      0.159800
     19 N19        -8.1000    0.8800   -1.3730 n3        1 849     -0.828200
     20 C20        -9.3190    1.6200   -1.1840 c3        1 849      0.154100
     21 C21         5.6880    0.0740   -0.8300 ca        1 849      0.133100
     22 C22         7.0820    0.1410   -0.7110 ca        1 849     -0.201000
     23 C23         7.6630    0.3620    0.5350 ca        1 849     -0.090000
     24 C24         6.8600    0.5170    1.6630 ca        1 849     -0.158000
     25 C25         5.4740    0.4520    1.5470 ca        1 849     -0.080000
     26 O26         5.0520   -0.1170   -2.0440 os        1 849     -0.349900
     27 C27         5.8640   -0.5870   -3.1150 c3        1 849      0.117700
     28 F28         2.8590   -0.8120    2.4490 f         1 849     -0.149500
     29 H1         -0.1760   -0.9270    2.2680 ha        1 849      0.141000
     30 H3         -1.9880    0.4830   -1.4090 ha        1 849      0.131000
     31 H11        -2.4570   -1.0050    2.0570 hc        1 849      0.053700
     32 H4          0.2400    1.0450   -2.3630 ha        1 849      0.135000
     33 H7          3.0310    0.7950   -1.7270 hn        1 849      0.312700
     34 H25         4.8420    0.5710    2.4420 ha        1 849      0.152000
     35 H121       -3.3370   -1.2610   -0.8990 hc        1 849      0.048200
     36 H122       -2.6970   -2.5710    0.1720 hc        1 849      0.048200
     37 H161       -2.9630    1.3930    1.8650 hc        1 849      0.048200
     38 H162       -3.4860    1.1980    0.1450 hc        1 849      0.048200
     39 H131       -5.2060   -2.6160    0.0230 h1        1 849      0.051450
     40 H132       -4.5980   -2.3600    1.7180 h1        1 849      0.051450
     41 H151       -5.4680    1.2620    1.6210 h1        1 849      0.051450
     42 H152       -4.7710   -0.0380    2.6870 h1        1 849      0.051450
     43 H171       -5.4330    0.4820   -0.9150 h1        1 849      0.036200
     44 H172       -6.2980   -1.1100   -1.0550 h1        1 849      0.036200
     45 H181       -8.1780   -0.2560    0.3770 h1        1 849      0.036200
     46 H182       -7.3280    1.3380    0.5750 h1        1 849      0.036200
     47 H19        -7.4520    1.4030   -1.9320 hn        1 849      0.353800
     48 H201      -10.0630    0.9710   -0.6510 h1        1 849      0.029033
     49 H202       -9.1910    2.5650   -0.5860 h1        1 849      0.029033
     50 H203       -9.7330    1.8890   -2.1910 h1        1 849      0.029033
     51 H22         7.7250    0.0210   -1.5950 ha        1 849      0.139000
     52 H23         8.7580    0.4140    0.6240 ha        1 849      0.135000
     53 H24         7.3180    0.6910    2.6480 ha        1 849      0.139000
     54 H271        6.5580    0.2190   -3.4570 h1        1 849      0.047033
     55 H272        6.4350   -1.4990   -2.8160 h1        1 849      0.047033
     56 H273        5.1210   -0.8310   -3.9160 h1        1 849      0.047033
@<TRIPOS>BOND
     1    1    2 ar  
     2    1    5 ar  
     3    1   29 1   
     4    2    3 ar  
     5    2   11 1   
     6    3    4 ar  
     7    3   30 1   
     8    4    6 ar  
     9    4   32 1   
    10    5    6 ar  
    11    5    9 1   
    12    6    7 1   
    13    7    8 1   
    14    7   33 1   
    15    8    9 2   
    16    8   10 1   
    17    9   28 1   
    18   10   21 ar  
    19   10   25 ar  
    20   11   12 1   
    21   11   16 1   
    22   11   31 1   
    23   12   13 1   
    24   12   35 1   
    25   12   36 1   
    26   13   14 1   
    27   13   39 1   
    28   13   40 1   
    29   14   15 1   
    30   14   17 1   
    31   15   16 1   
    32   15   41 1   
    33   15   42 1   
    34   16   37 1   
    35   16   38 1   
    36   17   18 1   
    37   17   43 1   
    38   17   44 1   
    39   18   19 1   
    40   18   45 1   
    41   18   46 1   
    42   19   20 1   
    43   19   47 1   
    44   20   48 1   
    45   20   49 1   
    46   20   50 1   
    47   21   22 ar  
    48   21   26 1   
    49   22   23 ar  
    50   22   51 1   
    51   23   24 ar  
    52   23   52 1   
    53   24   25 ar  
    54   24   53 1   
    55   25   34 1   
    56   26   27 1   
    57   27   54 1   
    58   27   55 1   
    59   27   56 1   
@<TRIPOS>SUBSTRUCTURE
     1 849         1 TEMP              0 ****  ****    0 ROOT
