@<TRIPOS>MOLECULE
849
   57    60     1     0     0
SMALL
bcc


@<TRIPOS>ATOM
      1 C1         -0.1980    0.6830    0.0990 ca        1 849     -0.056000
      2 C2          1.1530    0.3540    0.1640 ca        1 849     -0.128300
      3 C3          1.6600   -0.3680    1.2670 ca        1 849     -0.110000
      4 C4          0.8540   -0.7740    2.3160 ca        1 849     -0.139000
      5 C5         -1.0420    0.2890    1.1370 ca        1 849     -0.115800
      6 C6         -0.5120   -0.4460    2.2620 ca        1 849     -0.027200
      7 N7         -1.5420   -0.6780    3.1680 na        1 849     -0.154400
      8 C8         -2.7430   -0.1750    2.6360 cc        1 849     -0.000300
      9 C9         -2.4580    0.4460    1.4010 cd        1 849      0.088300
     10 C10        -4.0220   -0.2670    3.3180 ca        1 849     -0.073800
     11 C11         2.0630    0.7750   -0.9450 c3        1 849     -0.007400
     12 C12         2.7040   -0.4290   -1.6260 c3        1 849     -0.107900
     13 C13         3.6760    0.0230   -2.7150 c3        1 849      0.160300
     14 N14         4.6900    0.9800   -2.2840 n3        1 849     -0.732600
     15 C15         4.0980    2.1070   -1.5710 c3        1 849      0.160300
     16 C16         3.1370    1.7340   -0.4430 c3        1 849     -0.107900
     17 C17         5.8160    0.3830   -1.5950 c3        1 849      0.158800
     18 C18         7.1270    0.9810   -2.1730 c3        1 849      0.083800
     19 N19         8.3370    0.3830   -1.5310 n4        1 849     -0.757000
     20 C20         9.5910    0.9520   -2.0730 c3        1 849      0.079100
     21 C21        -4.3920   -1.3600    4.1360 ca        1 849      0.139100
     22 C22        -5.6490   -1.3960    4.7550 ca        1 849     -0.200000
     23 C23        -6.5440   -0.3460    4.5680 ca        1 849     -0.080000
     24 C24        -6.1940    0.7400    3.7680 ca        1 849     -0.157000
     25 C25        -4.9460    0.7770    3.1520 ca        1 849     -0.075000
     26 O26        -3.4510   -2.3600    4.3020 os        1 849     -0.355900
     27 C27        -3.9150   -3.5790    4.8760 c3        1 849      0.117700
     28 F28        -3.3240    1.0730    0.5950 f         1 849     -0.143500
     29 H1         -0.6100    1.2460   -0.7520 ha        1 849      0.143000
     30 H3          2.7320   -0.6180    1.2920 ha        1 849      0.114000
     31 H11         1.4560    1.3230   -1.7240 hc        1 849      0.061700
     32 H4          1.2660   -1.3340    3.1660 ha        1 849      0.138000
     33 H7         -1.5070   -1.3070    3.9320 hn        1 849      0.319700
     34 H25        -4.6740    1.6350    2.5150 ha        1 849      0.151000
     35 H121        3.2380   -1.0580   -0.8680 hc        1 849      0.056950
     36 H122        1.9080   -1.0650   -2.0930 hc        1 849      0.056950
     37 H161        2.6550    2.6690   -0.0560 hc        1 849      0.056950
     38 H162        3.6980    1.2670    0.4070 hc        1 849      0.056950
     39 H131        4.1790   -0.8760   -3.1670 h1        1 849      0.060700
     40 H132        3.0950    0.5390   -3.5330 h1        1 849      0.060700
     41 H151        4.9220    2.7540   -1.1620 h1        1 849      0.060700
     42 H152        3.5390    2.7060   -2.3460 h1        1 849      0.060700
     43 H171        5.8320   -0.7340   -1.7480 h1        1 849      0.050700
     44 H172        5.7950    0.5770   -0.4830 h1        1 849      0.050700
     45 H181        7.1870    0.7850   -3.2820 hx        1 849      0.114700
     46 H182        7.1550    2.0940   -2.0010 hx        1 849      0.114700
     47 H19         8.2940    0.5480   -0.5180 hn        1 849      0.451800
     48 H201        9.6110    2.0610   -1.8900 hx        1 849      0.110700
     49 H202        9.6450    0.7580   -3.1780 hx        1 849      0.110700
     50 H203       10.4680    0.4700   -1.5620 hx        1 849      0.110700
     51 H22        -5.9370   -2.2460    5.3900 ha        1 849      0.144000
     52 H23        -7.5300   -0.3780    5.0570 ha        1 849      0.142000
     53 H24        -6.9020    1.5690    3.6190 ha        1 849      0.144000
     54 H271       -4.1580   -3.4290    5.9560 h1        1 849      0.049700
     55 H272       -4.8020   -3.9690    4.3210 h1        1 849      0.049700
     56 H273       -3.0410   -4.2690    4.7620 h1        1 849      0.049700
     57 H192        8.3270   -0.6330   -1.6830 hn        1 849      0.451800
@<TRIPOS>BOND
     1    1    2 ar  
     2    1    5 ar  
     3    1   29 1   
     4    2    3 ar  
     5    2   11 1   
     6    3    4 ar  
     7    3   30 1   
     8    4    6 ar  
     9    4   32 1   
    10    5    6 ar  
    11    5    9 1   
    12    6    7 1   
    13    7    8 1   
    14    7   33 1   
    15    8    9 2   
    16    8   10 1   
    17    9   28 1   
    18   10   21 ar  
    19   10   25 ar  
    20   11   12 1   
    21   11   16 1   
    22   11   31 1   
    23   12   13 1   
    24   12   35 1   
    25   12   36 1   
    26   13   14 1   
    27   13   39 1   
    28   13   40 1   
    29   14   15 1   
    30   14   17 1   
    31   15   16 1   
    32   15   41 1   
    33   15   42 1   
    34   16   37 1   
    35   16   38 1   
    36   17   18 1   
    37   17   43 1   
    38   17   44 1   
    39   18   19 1   
    40   18   45 1   
    41   18   46 1   
    42   19   20 1   
    43   19   47 1   
    44   19   57 1   
    45   20   48 1   
    46   20   49 1   
    47   20   50 1   
    48   21   22 ar  
    49   21   26 1   
    50   22   23 ar  
    51   22   51 1   
    52   23   24 ar  
    53   23   52 1   
    54   24   25 ar  
    55   24   53 1   
    56   25   34 1   
    57   26   27 1   
    58   27   54 1   
    59   27   55 1   
    60   27   56 1   
@<TRIPOS>SUBSTRUCTURE
     1 849         1 TEMP              0 ****  ****    0 ROOT
