@<TRIPOS>MOLECULE
849
   57    60     1     0     0
SMALL
bcc


@<TRIPOS>ATOM
      1 C1         -0.1860    0.8100    0.1720 ca        1 849     -0.056000
      2 C2          1.1780    0.5610    0.2850 ca        1 849     -0.128300
      3 C3          1.6860   -0.1440    1.3990 ca        1 849     -0.110000
      4 C4          0.8670   -0.6110    2.4120 ca        1 849     -0.139000
      5 C5         -1.0440    0.3520    1.1720 ca        1 849     -0.115800
      6 C6         -0.5140   -0.3650    2.3090 ca        1 849     -0.027200
      7 N7         -1.5610   -0.6690    3.1730 na        1 849     -0.154400
      8 C8         -2.7690   -0.2310    2.6010 cc        1 849     -0.000300
      9 C9         -2.4760    0.4210    1.3830 cd        1 849      0.087300
     10 C10        -4.0640   -0.4050    3.2330 ca        1 849     -0.073800
     11 C11         2.1030    1.0510   -0.7820 c3        1 849     -0.007400
     12 C12         2.8210   -0.1060   -1.4670 c3        1 849     -0.107400
     13 C13         3.8090    0.4130   -2.5100 c3        1 849      0.160800
     14 N14         4.7580    1.4120   -2.0290 n3        1 849     -0.732600
     15 C15         4.0850    2.4940   -1.3170 c3        1 849      0.160800
     16 C16         3.1130    2.0480   -0.2270 c3        1 849     -0.107400
     17 C17         5.8890    0.8470   -1.3220 c3        1 849      0.158800
     18 C18         7.0850    0.7360   -2.3050 c3        1 849      0.083800
     19 N19         8.3050    0.1960   -1.6320 n4        1 849     -0.757000
     20 C20         9.4490    0.0830   -2.5650 c3        1 849      0.079100
     21 C21        -4.3990   -1.5270    4.0280 ca        1 849      0.139100
     22 C22        -5.6730   -1.6440    4.5990 ca        1 849     -0.200000
     23 C23        -6.6220   -0.6470    4.3880 ca        1 849     -0.080000
     24 C24        -6.3070    0.4660    3.6100 ca        1 849     -0.157000
     25 C25        -5.0420    0.5840    3.0420 ca        1 849     -0.075000
     26 O26        -3.4070   -2.4720    4.2200 os        1 849     -0.354900
     27 C27        -3.8170   -3.7190    4.7740 c3        1 849      0.117700
     28 F28        -3.3470    1.0050    0.5510 f         1 849     -0.143500
     29 H1         -0.5990    1.3590   -0.6870 ha        1 849      0.143000
     30 H3          2.7690   -0.3290    1.4630 ha        1 849      0.114000
     31 H11         1.4950    1.5870   -1.5700 hc        1 849      0.061700
     32 H4          1.2790   -1.1550    3.2720 ha        1 849      0.138000
     33 H7         -1.5160   -1.3000    3.9330 hn        1 849      0.319700
     34 H25        -4.7980    1.4630    2.4240 ha        1 849      0.151000
     35 H121        3.3550   -0.7290   -0.7030 hc        1 849      0.056950
     36 H122        2.0720   -0.7660   -1.9760 hc        1 849      0.056950
     37 H161        2.5750    2.9490    0.1680 hc        1 849      0.056950
     38 H162        3.6740    1.5880    0.6270 hc        1 849      0.056950
     39 H131        4.3800   -0.4520   -2.9490 h1        1 849      0.060450
     40 H132        3.2340    0.9070   -3.3450 h1        1 849      0.060450
     41 H151        4.8550    3.1850   -0.8760 h1        1 849      0.060450
     42 H152        3.5160    3.0700   -2.1030 h1        1 849      0.060450
     43 H171        6.1920    1.5070   -0.4600 h1        1 849      0.051200
     44 H172        5.6700   -0.1800   -0.9070 h1        1 849      0.051200
     45 H181        6.8230    0.0470   -3.1580 hx        1 849      0.114700
     46 H182        7.3380    1.7510   -2.7250 hx        1 849      0.114700
     47 H19         8.0890   -0.7280   -1.2400 hn        1 849      0.451300
     48 H201       10.3390   -0.3230   -2.0130 hx        1 849      0.110700
     49 H202        9.6950    1.0970   -2.9820 hx        1 849      0.110700
     50 H203        9.1800   -0.6090   -3.4080 hx        1 849      0.110700
     51 H22        -5.9340   -2.5160    5.2160 ha        1 849      0.143000
     52 H23        -7.6210   -0.7410    4.8390 ha        1 849      0.142000
     53 H24        -7.0570    1.2540    3.4430 ha        1 849      0.144000
     54 H271       -2.9000   -4.3550    4.6890 h1        1 849      0.049700
     55 H272       -4.1070   -3.5890    5.8450 h1        1 849      0.049700
     56 H273       -4.6590   -4.1590    4.1870 h1        1 849      0.049700
     57 H192        8.5570    0.8160   -0.8530 hn        1 849      0.451300
@<TRIPOS>BOND
     1    1    2 ar  
     2    1    5 ar  
     3    1   29 1   
     4    2    3 ar  
     5    2   11 1   
     6    3    4 ar  
     7    3   30 1   
     8    4    6 ar  
     9    4   32 1   
    10    5    6 ar  
    11    5    9 1   
    12    6    7 1   
    13    7    8 1   
    14    7   33 1   
    15    8    9 2   
    16    8   10 1   
    17    9   28 1   
    18   10   21 ar  
    19   10   25 ar  
    20   11   12 1   
    21   11   16 1   
    22   11   31 1   
    23   12   13 1   
    24   12   35 1   
    25   12   36 1   
    26   13   14 1   
    27   13   39 1   
    28   13   40 1   
    29   14   15 1   
    30   14   17 1   
    31   15   16 1   
    32   15   41 1   
    33   15   42 1   
    34   16   37 1   
    35   16   38 1   
    36   17   18 1   
    37   17   43 1   
    38   17   44 1   
    39   18   19 1   
    40   18   45 1   
    41   18   46 1   
    42   19   20 1   
    43   19   47 1   
    44   19   57 1   
    45   20   48 1   
    46   20   49 1   
    47   20   50 1   
    48   21   22 ar  
    49   21   26 1   
    50   22   23 ar  
    51   22   51 1   
    52   23   24 ar  
    53   23   52 1   
    54   24   25 ar  
    55   24   53 1   
    56   25   34 1   
    57   26   27 1   
    58   27   54 1   
    59   27   55 1   
    60   27   56 1   
@<TRIPOS>SUBSTRUCTURE
     1 849         1 TEMP              0 ****  ****    0 ROOT
