@<TRIPOS>MOLECULE
84T
   57    59     1     0     0
SMALL
bcc


@<TRIPOS>ATOM
      1 O1P         2.1220    0.8100   -0.4050 o         1 84T     -0.766000
      2 P           3.1000    1.4460   -1.2830 p5        1 84T      1.324700
      3 O2P         4.1400    2.4250   -0.8870 o         1 84T     -0.766000
      4 N           4.0640    0.0740   -1.9530 n4        1 84T     -0.619900
      5 C           3.1100   -0.8080   -2.6380 c         1 84T      0.518100
      6 CA          3.5910   -2.1880   -3.0700 c3        1 84T      0.039100
      7 CB          3.8800   -3.0430   -1.8100 c3        1 84T      0.133100
      8 CG          4.0270   -4.5230   -2.1780 c3        1 84T     -0.092700
      9 CD2         4.5770   -5.2980   -0.9970 c3        1 84T     -0.096600
     10 CD1         2.7010   -5.1130   -2.6090 c3        1 84T     -0.096600
     11 OHB         5.0340   -2.5230   -1.1760 oh        1 84T     -0.610800
     12 OH          4.8090   -2.0260   -3.7720 oh        1 84T     -0.601800
     13 O           1.9820   -0.3520   -2.7770 o         1 84T     -0.406100
     14 O5'         2.5050    2.0860   -2.6680 os        1 84T     -0.569200
     15 C5'         2.1390    3.4380   -2.6070 c3        1 84T      0.176400
     16 C4'         3.0210    4.3090   -3.5170 c3        1 84T      0.113100
     17 C3'         4.4970    3.9260   -3.5410 c3        1 84T     -0.136400
     18 C2'         5.2560    5.0480   -2.8290 c3        1 84T      0.142100
     19 O2'         6.0590    4.6240   -1.7630 oh        1 84T     -0.597800
     20 O4'         2.9300    5.6680   -3.0490 os        1 84T     -0.409600
     21 C1'         4.1490    6.0910   -2.4390 c3        1 84T      0.206800
     22 N9          3.9470    6.3290   -1.0170 na        1 84T     -0.251000
     23 C4          3.5710    7.5740   -0.4790 ca        1 84T      0.458800
     24 N3          3.4010    8.7970   -1.0310 nb        1 84T     -0.619000
     25 C2          3.0400    9.7630   -0.1430 ca        1 84T      0.662900
     26 C8          3.9520    5.4200    0.0620 cc        1 84T      0.528700
     27 N7          3.6340    5.9720    1.2530 nd        1 84T     -0.611100
     28 C5          3.3860    7.3150    0.9720 ca        1 84T     -0.122200
     29 C6          3.0150    8.4260    1.7430 ca        1 84T      0.496200
     30 N1          2.8360    9.6580    1.1990 nb        1 84T     -0.684000
     31 N6          2.8160    8.2330    3.1910 n4        1 84T     -0.811300
     32 H           4.7850    0.3680   -2.6060 hn        1 84T      0.470800
     33 HA          2.7850   -2.6600   -3.6960 h1        1 84T      0.111700
     34 HB          3.0500   -2.9040   -1.0580 h1        1 84T      0.107700
     35 HH          4.6510   -2.2510   -4.6990 ho        1 84T      0.439000
     36 HG          4.7590   -4.5950   -3.0320 hc        1 84T      0.056700
     37 HHB         5.8040   -2.8030   -1.6910 ho        1 84T      0.430000
     38 HD21        4.7350   -6.3660   -1.2830 hc        1 84T      0.048367
     39 HD22        5.5530   -4.8700   -0.6620 hc        1 84T      0.048367
     40 HD23        3.8630   -5.2610   -0.1390 hc        1 84T      0.048367
     41 HD11        1.9180   -4.9380   -1.8310 hc        1 84T      0.048367
     42 HD12        2.8080   -6.2160   -2.7550 hc        1 84T      0.048367
     43 HD13        2.3520   -4.6710   -3.5730 hc        1 84T      0.048367
     44 H5'1        1.0730    3.5150   -2.9620 h1        1 84T      0.051700
     45 H5'2        2.2120    3.8140   -1.5480 h1        1 84T      0.051700
     46 H4'         2.5830    4.3340   -4.5530 h1        1 84T      0.093700
     47 H3'1        4.6520    2.9470   -3.0130 hc        1 84T      0.076200
     48 H3'2        4.8580    3.8190   -4.5930 hc        1 84T      0.076200
     49 H2'         5.9660    5.5760   -3.5290 h1        1 84T      0.097700
     50 HC          5.6740    3.8220   -1.3690 ho        1 84T      0.451000
     51 H8          4.2180    4.3460   -0.0700 h5        1 84T      0.156800
     52 H2          2.8880   10.7820   -0.5700 h5        1 84T      0.094100
     53 HN61        3.6930    7.8810    3.5950 hn        1 84T      0.474800
     54 HN62        2.0790    7.5300    3.3260 hn        1 84T      0.474800
     55 HC1'        4.3780    7.0990   -2.9040 h2        1 84T      0.119700
     56 H21         4.5300   -0.4580   -1.2090 hn        1 84T      0.470800
     57 H63         2.5480    9.1110    3.6520 hn        1 84T      0.474800
@<TRIPOS>BOND
     1    1    2 1   
     2    2    3 1   
     3    2    4 1   
     4    2   14 1   
     5    4    5 1   
     6    4   32 1   
     7    4   56 1   
     8    5    6 1   
     9    5   13 2   
    10    6    7 1   
    11    6   12 1   
    12    6   33 1   
    13    7    8 1   
    14    7   11 1   
    15    7   34 1   
    16    8    9 1   
    17    8   10 1   
    18    8   36 1   
    19    9   38 1   
    20    9   39 1   
    21    9   40 1   
    22   10   41 1   
    23   10   42 1   
    24   10   43 1   
    25   11   37 1   
    26   12   35 1   
    27   14   15 1   
    28   15   16 1   
    29   15   44 1   
    30   15   45 1   
    31   16   17 1   
    32   16   20 1   
    33   16   46 1   
    34   17   18 1   
    35   17   47 1   
    36   17   48 1   
    37   18   19 1   
    38   18   21 1   
    39   18   49 1   
    40   19   50 1   
    41   20   21 1   
    42   21   22 1   
    43   21   55 1   
    44   22   23 1   
    45   22   26 1   
    46   23   24 ar  
    47   23   28 ar  
    48   24   25 ar  
    49   25   30 ar  
    50   25   52 1   
    51   26   27 2   
    52   26   51 1   
    53   27   28 1   
    54   28   29 ar  
    55   29   30 ar  
    56   29   31 1   
    57   31   53 1   
    58   31   54 1   
    59   31   57 1   
@<TRIPOS>SUBSTRUCTURE
     1 84T         1 TEMP              0 ****  ****    0 ROOT
