@<TRIPOS>MOLECULE
84T
   56    58     1     0     0
SMALL
bcc


@<TRIPOS>ATOM
      1 O1P         1.8020   -0.0310   -1.5950 o         1 84T     -0.740000
      2 P           2.9770    0.8020   -1.8670 p5        1 84T      1.299700
      3 O2P         4.1670    1.0680   -1.0530 o         1 84T     -0.740000
      4 N           3.7430   -0.1680   -3.2930 ny        1 84T     -0.602900
      5 C           2.8220   -1.1440   -3.8570 c         1 84T      0.540100
      6 CA          2.5600   -2.4760   -3.1390 c3        1 84T      0.053100
      7 CB          3.8210   -3.0480   -2.4590 c3        1 84T      0.142100
      8 CG          3.6380   -4.5210   -2.0780 c3        1 84T     -0.087700
      9 CD2         4.9110   -5.0490   -1.4480 c3        1 84T     -0.095100
     10 CD1         2.4690   -4.6880   -1.1320 c3        1 84T     -0.095100
     11 OHB         4.9420   -2.8450   -3.3030 oh        1 84T     -0.624800
     12 OH          2.1480   -3.4070   -4.1190 oh        1 84T     -0.585800
     13 O           2.2740   -0.8850   -4.9320 o         1 84T     -0.494100
     14 O5'         2.6190    2.1500   -2.6970 os        1 84T     -0.577200
     15 C5'         2.9270    3.3860   -2.1000 c3        1 84T      0.157400
     16 C4'         3.9610    4.1370   -2.9500 c3        1 84T      0.109100
     17 C3'         5.4140    3.8650   -2.5620 c3        1 84T     -0.124400
     18 C2'         5.9990    5.2240   -2.1630 c3        1 84T      0.121100
     19 O2'         6.7470    5.0430   -0.9820 oh        1 84T     -0.579800
     20 O4'         3.7200    5.5460   -2.8060 os        1 84T     -0.406600
     21 C1'         4.7580    6.1710   -2.0350 c3        1 84T      0.210800
     22 N9          4.3360    6.4410   -0.6850 na        1 84T     -0.293000
     23 C4          3.6150    7.5790   -0.2720 ca        1 84T      0.466800
     24 N3          3.3520    8.7530   -0.9160 nb        1 84T     -0.735000
     25 C2          2.6430    9.6190   -0.1510 ca        1 84T      0.685900
     26 C8          4.2700    5.5280    0.4060 cc        1 84T      0.415700
     27 N7          3.6220    6.0100    1.4720 nd        1 84T     -0.544100
     28 C5          3.1930    7.2930    1.0940 ca        1 84T     -0.234200
     29 C6          2.4580    8.3150    1.7820 ca        1 84T      0.758200
     30 N1          2.1810    9.4900    1.1190 nb        1 84T     -0.793000
     31 N6          2.0710    8.1300    3.0840 nv        1 84T     -0.957500
     32 H           4.5790   -0.6370   -2.9460 hn        1 84T      0.452800
     33 HA          1.7460   -2.2970   -2.3730 h1        1 84T      0.138700
     34 HB          4.0500   -2.4500   -1.5300 h1        1 84T      0.091700
     35 HH          1.3330   -3.0700   -4.5200 ho        1 84T      0.434000
     36 HG          3.4280   -5.1010   -3.0220 hc        1 84T      0.070700
     37 HHB         4.9100   -3.5140   -3.9990 ho        1 84T      0.427000
     38 HD21        5.1070   -4.5400   -0.4740 hc        1 84T      0.043700
     39 HD22        4.8190   -6.1460   -1.2640 hc        1 84T      0.043700
     40 HD23        5.7830   -4.8690   -2.1230 hc        1 84T      0.043700
     41 HD11        2.4110   -5.7480   -0.7830 hc        1 84T      0.043700
     42 HD12        1.5110   -4.4350   -1.6490 hc        1 84T      0.043700
     43 HD13        2.5810   -4.0270   -0.2390 hc        1 84T      0.043700
     44 H5'1        3.3050    3.2320   -1.0520 h1        1 84T      0.067700
     45 H5'2        1.9760    3.9930   -2.0850 h1        1 84T      0.067700
     46 H4'         3.7710    3.9200   -4.0370 h1        1 84T      0.081700
     47 H3'1        5.9820    3.4400   -3.4240 hc        1 84T      0.086200
     48 H3'2        5.4920    3.1460   -1.7030 hc        1 84T      0.086200
     49 H2'         6.6580    5.6410   -2.9730 h1        1 84T      0.056700
     50 HC          7.0890    5.9090   -0.7220 ho        1 84T      0.416000
     51 H8          4.7740    4.5510    0.3400 h5        1 84T      0.094800
     52 H2          2.3960   10.5870   -0.6380 h5        1 84T      0.051100
     53 HN61        2.1910    7.2360    3.4900 hn        1 84T      0.446800
     54 HN62        1.4900    8.7950    3.5320 hn        1 84T      0.446800
     55 HC1'        4.9300    7.1650   -2.5460 h2        1 84T      0.117700
     56 H21         4.0160    0.5000   -4.0100 hn        1 84T      0.452800
@<TRIPOS>BOND
     1    1    2 1   
     2    2    3 1   
     3    2    4 1   
     4    2   14 1   
     5    4    5 1   
     6    4   32 1   
     7    4   56 1   
     8    5    6 1   
     9    5   13 2   
    10    6    7 1   
    11    6   12 1   
    12    6   33 1   
    13    7    8 1   
    14    7   11 1   
    15    7   34 1   
    16    8    9 1   
    17    8   10 1   
    18    8   36 1   
    19    9   38 1   
    20    9   39 1   
    21    9   40 1   
    22   10   41 1   
    23   10   42 1   
    24   10   43 1   
    25   11   37 1   
    26   12   35 1   
    27   14   15 1   
    28   15   16 1   
    29   15   44 1   
    30   15   45 1   
    31   16   17 1   
    32   16   20 1   
    33   16   46 1   
    34   17   18 1   
    35   17   47 1   
    36   17   48 1   
    37   18   19 1   
    38   18   21 1   
    39   18   49 1   
    40   19   50 1   
    41   20   21 1   
    42   21   22 1   
    43   21   55 1   
    44   22   23 1   
    45   22   26 1   
    46   23   24 ar  
    47   23   28 ar  
    48   24   25 ar  
    49   25   30 ar  
    50   25   52 1   
    51   26   27 2   
    52   26   51 1   
    53   27   28 1   
    54   28   29 ar  
    55   29   30 ar  
    56   29   31 1   
    57   31   53 1   
    58   31   54 1   
@<TRIPOS>SUBSTRUCTURE
     1 84T         1 TEMP              0 ****  ****    0 ROOT
