@<TRIPOS>MOLECULE
84T
   55    57     1     0     0
SMALL
bcc


@<TRIPOS>ATOM
      1 O1P        -1.3820    2.6990   -0.7140 o         1 84T     -0.844500
      2 P          -1.4050    1.2660   -0.3730 p5        1 84T      1.429800
      3 O2P        -0.4390    0.7080    0.6300 o         1 84T     -0.844500
      4 N          -2.8880    0.7200    0.0860 n         1 84T     -0.654900
      5 C          -3.9180    0.8760   -0.7910 c         1 84T      0.629100
      6 CA         -5.3440    0.4760   -0.4180 c3        1 84T      0.037100
      7 CB         -5.4810   -1.0610   -0.3240 c3        1 84T      0.120100
      8 CG         -6.0130   -1.4960    1.0500 c3        1 84T     -0.097700
      9 CD2        -6.3280   -2.9770    1.0410 c3        1 84T     -0.091600
     10 CD1        -5.0150   -1.1840    2.1450 c3        1 84T     -0.091600
     11 OHB        -6.3230   -1.5340   -1.3600 oh        1 84T     -0.596800
     12 OH         -6.2680    0.9680   -1.3700 oh        1 84T     -0.605800
     13 O          -3.6640    1.3560   -1.9140 o         1 84T     -0.587100
     14 O5'        -1.0200    0.3630   -1.7260 os        1 84T     -0.576200
     15 C5'         0.3390    0.1780   -1.9540 c3        1 84T      0.190400
     16 C4'         0.7280   -1.3060   -1.8170 c3        1 84T      0.115100
     17 C3'         0.0760   -2.0160   -0.6360 c3        1 84T     -0.139400
     18 C2'         1.1860   -2.2900    0.3800 c3        1 84T      0.147100
     19 O2'         0.9280   -1.7640    1.6520 oh        1 84T     -0.615800
     20 O4'         2.1550   -1.4000   -1.6500 os        1 84T     -0.429600
     21 C1'         2.4990   -1.7750   -0.3100 c3        1 84T      0.216800
     22 N9          3.2110   -0.7140    0.3630 na        1 84T     -0.262000
     23 C4          4.6090   -0.6600    0.5000 ca        1 84T      0.444800
     24 N3          5.5880   -1.5530    0.1590 nb        1 84T     -0.725000
     25 C2          6.8280   -1.1130    0.4650 ca        1 84T      0.655900
     26 C8          2.7220    0.5130    0.8820 cc        1 84T      0.449700
     27 N7          3.6860    1.3150    1.3580 nd        1 84T     -0.580100
     28 C5          4.8870    0.6230    1.1410 ca        1 84T     -0.206200
     29 C6          6.2530    0.9380    1.4180 ca        1 84T      0.715200
     30 N1          7.2320    0.0500    1.0480 nb        1 84T     -0.798000
     31 N6          6.5690    2.1010    2.1080 nh        1 84T     -0.937500
     32 H          -3.0540    0.2720    0.9510 hn        1 84T      0.314500
     33 HA         -5.6420    0.9700    0.5490 h1        1 84T      0.085700
     34 HB         -4.4940   -1.5670   -0.5240 h1        1 84T      0.088700
     35 HH         -5.8350    0.9480   -2.2380 ho        1 84T      0.438000
     36 HG         -6.9650   -0.9280    1.2500 hc        1 84T      0.045700
     37 HHB        -7.1380   -1.0120   -1.3330 ho        1 84T      0.409000
     38 HD21       -6.7980   -3.2790    2.0080 hc        1 84T      0.037367
     39 HD22       -7.0290   -3.2160    0.2050 hc        1 84T      0.037367
     40 HD23       -5.3940   -3.5730    0.8980 hc        1 84T      0.037367
     41 HD11       -4.8710   -0.0820    2.2560 hc        1 84T      0.037367
     42 HD12       -5.3790   -1.5880    3.1200 hc        1 84T      0.037367
     43 HD13       -4.0240   -1.6510    1.9200 hc        1 84T      0.037367
     44 H5'1        0.5670    0.4990   -3.0090 h1        1 84T      0.036700
     45 H5'2        0.9570    0.7900   -1.2390 h1        1 84T      0.036700
     46 H4'         0.5190   -1.8410   -2.7820 h1        1 84T      0.057700
     47 H3'1       -0.7110   -1.3520   -0.1830 hc        1 84T      0.073200
     48 H3'2       -0.4040   -2.9690   -0.9610 hc        1 84T      0.073200
     49 H2'         1.3200   -3.3950    0.5570 h1        1 84T      0.061700
     50 HC          0.5400   -0.8740    1.5500 ho        1 84T      0.468000
     51 H8          1.6330    0.7460    0.8960 h5        1 84T      0.150800
     52 H2          7.6550   -1.8030    0.1960 h5        1 84T      0.035100
     53 HN61        5.8620    2.7990    2.1130 hn        1 84T      0.420300
     54 HN62        7.5070    2.4240    2.0580 hn        1 84T      0.420300
     55 HC1'        3.2270   -2.6340   -0.4320 h2        1 84T      0.092700
@<TRIPOS>BOND
     1    1    2 1   
     2    2    3 1   
     3    2    4 1   
     4    2   14 1   
     5    4    5 1   
     6    4   32 1   
     7    5    6 1   
     8    5   13 2   
     9    6    7 1   
    10    6   12 1   
    11    6   33 1   
    12    7    8 1   
    13    7   11 1   
    14    7   34 1   
    15    8    9 1   
    16    8   10 1   
    17    8   36 1   
    18    9   38 1   
    19    9   39 1   
    20    9   40 1   
    21   10   41 1   
    22   10   42 1   
    23   10   43 1   
    24   11   37 1   
    25   12   35 1   
    26   14   15 1   
    27   15   16 1   
    28   15   44 1   
    29   15   45 1   
    30   16   17 1   
    31   16   20 1   
    32   16   46 1   
    33   17   18 1   
    34   17   47 1   
    35   17   48 1   
    36   18   19 1   
    37   18   21 1   
    38   18   49 1   
    39   19   50 1   
    40   20   21 1   
    41   21   22 1   
    42   21   55 1   
    43   22   23 1   
    44   22   26 1   
    45   23   24 ar  
    46   23   28 ar  
    47   24   25 ar  
    48   25   30 ar  
    49   25   52 1   
    50   26   27 2   
    51   26   51 1   
    52   27   28 1   
    53   28   29 ar  
    54   29   30 ar  
    55   29   31 1   
    56   31   53 1   
    57   31   54 1   
@<TRIPOS>SUBSTRUCTURE
     1 84T         1 TEMP              0 ****  ****    0 ROOT
