@<TRIPOS>MOLECULE
84T
   55    53     1     0     0
SMALL
bcc


@<TRIPOS>ATOM
      1 O1P        -1.8810    0.2580    0.7040 o         1 84T     -0.818000
      2 P          -0.9280   -0.8860    0.5240 p5        1 84T      1.404800
      3 O2P        -0.2850   -1.2340    1.8780 o         1 84T     -0.818000
      4 N          -1.7600   -2.2130   -0.0550 n         1 84T     -0.642900
      5 C          -2.8900   -2.7560    0.7100 c         1 84T      0.669100
      6 CA         -3.0510   -4.2770    0.8620 c3        1 84T      0.006100
      7 CB         -2.9730   -4.6600    2.3460 c3        1 84T      0.146100
      8 CG         -3.0580   -6.1760    2.4830 c3        1 84T     -0.099700
      9 CD2        -2.4420   -6.6010    3.7940 c3        1 84T     -0.086100
     10 CD1        -4.5600   -6.6180    2.4400 c3        1 84T     -0.086100
     11 OHB        -1.7690   -4.2090    2.8810 oh        1 84T     -0.596800
     12 OH         -2.0580   -4.9060    0.1790 oh        1 84T     -0.620800
     13 O          -3.6480   -1.9900    1.3210 o         1 84T     -0.608100
     14 O5'         0.2170   -0.4720   -0.5200 os        1 84T     -0.594200
     15 C5'         1.4780   -0.0970   -0.0180 c3        1 84T      0.201400
     16 C4'         1.9740    1.1490   -0.7520 c3        1 84T      0.089100
     17 C3'         2.9750    1.9690    0.1730 c3        1 84T     -0.141400
     18 C2'         2.4820    3.4100    0.1290 c3        1 84T      0.114100
     19 O2'         1.8250    3.7720    1.4190 oh        1 84T     -0.591800
     20 O4'         0.9940    1.9480   -0.9770 os        1 84T     -0.419600
     21 C1'         1.5890    3.4350   -0.8650 c3        1 84T      0.212800
     22 N9          2.2140    3.8000   -2.0700 n3        1 84T     -0.114400
     23 C4          1.9130    5.0980   -2.3890 c1        1 84T      0.005700
     24 N3          0.9630    5.9530   -1.9250 n1        1 84T     -0.519800
     25 C2          0.8740    7.2000   -2.4270 c1        1 84T      0.389300
     26 C8          3.2620    3.4060   -2.8470 c1        1 84T      0.197400
     27 N7          3.6060    4.4370   -3.6330 ne        1 84T     -0.410400
     28 C5          2.7630    5.4950   -3.3470 cg        1 84T     -0.177000
     29 C6          2.6690    6.7880   -3.8670 c1        1 84T      0.593600
     30 N1          1.7460    7.6130   -3.4140 n1        1 84T     -0.597800
     31 N6          3.6250    7.4730   -4.6690 n3        1 84T     -0.808400
     32 H          -1.5590   -2.5610   -0.9210 hn        1 84T      0.314500
     33 HA         -3.8970   -4.5450    0.5090 h1        1 84T      0.068700
     34 HB         -3.7410   -4.2350    2.8430 h1        1 84T      0.088700
     35 HH         -2.3780   -5.1960   -0.6250 ho        1 84T      0.427000
     36 HG         -2.5730   -6.5950    1.7440 hc        1 84T      0.055700
     37 HHB        -1.0710   -4.6610    2.4890 ho        1 84T      0.414000
     38 HD21       -2.7040   -5.9760    4.4950 hc        1 84T      0.034033
     39 HD22       -1.4770   -6.6070    3.7100 hc        1 84T      0.034033
     40 HD23       -2.7470   -7.4810    4.0210 hc        1 84T      0.034033
     41 HD11       -4.9020   -6.5050    1.5470 hc        1 84T      0.034033
     42 HD12       -5.0730   -6.0730    3.0550 hc        1 84T      0.034033
     43 HD13       -4.6320   -7.5480    2.6980 hc        1 84T      0.034033
     44 H5'1        2.1060   -0.8220   -0.1500 h1        1 84T      0.039700
     45 H5'2        1.4070    0.0870    0.8820 h1        1 84T      0.039700
     46 H4'         2.4410    0.8810   -1.6490 h1        1 84T      0.083700
     47 H3'1        2.9440    1.6300    1.0830 hc        1 84T      0.082700
     48 H3'2        3.9000    1.9110   -0.1830 hc        1 84T      0.082700
     49 H2'         3.2120    4.0110   -0.0580 h1        1 84T      0.092700
     50 HC          2.3690    4.3670    1.8920 ho        1 84T      0.415000
     51 H8          3.6270    2.5390   -2.8820 DU        1 84T      0.220000
     52 H2          0.1820    7.8200   -2.0870 ha        1 84T      0.122500
     53 HN61        4.2870    7.0130   -5.0700 hn        1 84T      0.429300
     54 HN62        3.5740    8.3460   -4.7650 hn        1 84T      0.429300
     55 HC1'        0.8410    4.0930   -0.6450 h2        1 84T      0.113700
@<TRIPOS>BOND
     1    1    2 1   
     2    2    3 1   
     3    2    4 1   
     4    2   14 1   
     5    4    5 1   
     6    4   32 1   
     7    5    6 1   
     8    5   13 2   
     9    6    7 1   
    10    6   12 1   
    11    6   33 1   
    12    7    8 1   
    13    7   11 1   
    14    7   34 1   
    15    8    9 1   
    16    8   10 1   
    17    8   36 1   
    18    9   38 1   
    19    9   39 1   
    20    9   40 1   
    21   10   41 1   
    22   10   42 1   
    23   10   43 1   
    24   11   37 1   
    25   12   35 1   
    26   14   15 1   
    27   15   16 1   
    28   15   44 1   
    29   15   45 1   
    30   16   17 1   
    31   16   20 1   
    32   16   46 1   
    33   17   18 1   
    34   17   47 1   
    35   17   48 1   
    36   18   19 1   
    37   18   21 1   
    38   18   49 1   
    39   19   50 1   
    40   20   21 1   
    41   21   22 1   
    42   21   55 1   
    43   22   23 1   
    44   22   26 2   
    45   23   28 3   
    46   24   25 3   
    47   25   52 1   
    48   26   27 2   
    49   27   28 1   
    50   29   30 3   
    51   29   31 1   
    52   31   53 1   
    53   31   54 1   
@<TRIPOS>SUBSTRUCTURE
     1 84T         1 TEMP              0 ****  ****    0 ROOT
