@<TRIPOS>MOLECULE
84T
   56    58     1     0     0
SMALL
bcc


@<TRIPOS>ATOM
      1 O1P         1.8210   -0.0440   -1.6170 o         1 84T     -0.740000
      2 P           2.9900    0.8010   -1.8780 p5        1 84T      1.299700
      3 O2P         4.1780    1.0660   -1.0610 o         1 84T     -0.740000
      4 N           3.7640   -0.1460   -3.3160 n4        1 84T     -0.602900
      5 C           2.8500   -1.1210   -3.8940 c         1 84T      0.540100
      6 CA          2.5930   -2.4620   -3.1950 c3        1 84T      0.053100
      7 CB          3.8550   -3.0370   -2.5190 c3        1 84T      0.142100
      8 CG          3.6800   -4.5160   -2.1570 c3        1 84T     -0.087700
      9 CD2         4.9530   -5.0450   -1.5310 c3        1 84T     -0.095100
     10 CD1         2.5080   -4.7020   -1.2170 c3        1 84T     -0.095100
     11 OHB         4.9780   -2.8170   -3.3570 oh        1 84T     -0.624800
     12 OH          2.1880   -3.3830   -4.1880 oh        1 84T     -0.585800
     13 O           2.3040   -0.8500   -4.9670 o         1 84T     -0.494100
     14 O5'         2.6230    2.1550   -2.6930 os        1 84T     -0.577200
     15 C5'         2.9210    3.3870   -2.0810 c3        1 84T      0.157400
     16 C4'         3.9500    4.1550   -2.9210 c3        1 84T      0.109100
     17 C3'         5.4050    3.8910   -2.5350 c3        1 84T     -0.124400
     18 C2'         5.9780    5.2500   -2.1200 c3        1 84T      0.121100
     19 O2'         6.7270    5.0620   -0.9400 oh        1 84T     -0.579800
     20 O4'         3.6980    5.5610   -2.7610 os        1 84T     -0.406600
     21 C1'         4.7290    6.1860   -1.9820 c3        1 84T      0.210800
     22 N9          4.3040    6.4370   -0.6290 na        1 84T     -0.293000
     23 C4          3.5730    7.5630   -0.2040 ca        1 84T      0.466800
     24 N3          3.2990    8.7420   -0.8360 nb        1 84T     -0.735000
     25 C2          2.5830    9.5930   -0.0620 ca        1 84T      0.685900
     26 C8          4.2450    5.5110    0.4510 cc        1 84T      0.415700
     27 N7          3.5920    5.9740    1.5220 nd        1 84T     -0.544100
     28 C5          3.1510    7.2580    1.1570 ca        1 84T     -0.234200
     29 C6          2.4070    8.2660    1.8560 ca        1 84T      0.758200
     30 N1          2.1200    9.4460    1.2070 nb        1 84T     -0.793000
     31 N6          2.0200    8.0630    3.1550 nh        1 84T     -0.957500
     32 H           4.6020   -0.6160   -2.9730 hn        1 84T      0.452800
     33 HA          1.7770   -2.2980   -2.4280 h1        1 84T      0.138700
     34 HB          4.0790   -2.4510   -1.5820 h1        1 84T      0.091700
     35 HH          1.3730   -3.0440   -4.5860 ho        1 84T      0.434000
     36 HG          3.4750   -5.0850   -3.1090 hc        1 84T      0.070700
     37 HHB         4.9510   -3.4770   -4.0620 ho        1 84T      0.427000
     38 HD21        5.8260   -4.8520   -2.2010 hc        1 84T      0.043700
     39 HD22        4.8670   -6.1450   -1.3620 hc        1 84T      0.043700
     40 HD23        5.1440   -4.5480   -0.5500 hc        1 84T      0.043700
     41 HD11        2.6140   -4.0520   -0.3160 hc        1 84T      0.043700
     42 HD12        2.4560   -5.7660   -0.8820 hc        1 84T      0.043700
     43 HD13        1.5510   -4.4470   -1.7340 hc        1 84T      0.043700
     44 H5'1        1.9660    3.9860   -2.0590 h1        1 84T      0.067700
     45 H5'2        3.3000    3.2240   -1.0350 h1        1 84T      0.067700
     46 H4'         3.7630    3.9500   -4.0110 h1        1 84T      0.081700
     47 H3'1        5.9770    3.4800   -3.4000 hc        1 84T      0.086200
     48 H3'2        5.4880    3.1620   -1.6840 hc        1 84T      0.086200
     49 H2'         6.6350    5.6820   -2.9240 h1        1 84T      0.056700
     50 HC          7.0610    5.9270   -0.6700 ho        1 84T      0.416000
     51 H8          4.7570    4.5390    0.3750 h5        1 84T      0.094800
     52 H2          2.3270   10.5640   -0.5380 h5        1 84T      0.051100
     53 HN61        2.1480    7.1650    3.5510 hn        1 84T      0.446800
     54 HN62        1.4330    8.7170    3.6100 hn        1 84T      0.446800
     55 HC1'        4.8940    7.1870   -2.4820 h2        1 84T      0.117700
     56 H21         4.0360    0.5320   -4.0230 hn        1 84T      0.452800
@<TRIPOS>BOND
     1    1    2 1   
     2    2    3 1   
     3    2    4 1   
     4    2   14 1   
     5    4    5 1   
     6    4   32 1   
     7    4   56 1   
     8    5    6 1   
     9    5   13 2   
    10    6    7 1   
    11    6   12 1   
    12    6   33 1   
    13    7    8 1   
    14    7   11 1   
    15    7   34 1   
    16    8    9 1   
    17    8   10 1   
    18    8   36 1   
    19    9   38 1   
    20    9   39 1   
    21    9   40 1   
    22   10   41 1   
    23   10   42 1   
    24   10   43 1   
    25   11   37 1   
    26   12   35 1   
    27   14   15 1   
    28   15   16 1   
    29   15   44 1   
    30   15   45 1   
    31   16   17 1   
    32   16   20 1   
    33   16   46 1   
    34   17   18 1   
    35   17   47 1   
    36   17   48 1   
    37   18   19 1   
    38   18   21 1   
    39   18   49 1   
    40   19   50 1   
    41   20   21 1   
    42   21   22 1   
    43   21   55 1   
    44   22   23 1   
    45   22   26 1   
    46   23   24 ar  
    47   23   28 ar  
    48   24   25 ar  
    49   25   30 ar  
    50   25   52 1   
    51   26   27 2   
    52   26   51 1   
    53   27   28 1   
    54   28   29 ar  
    55   29   30 ar  
    56   29   31 1   
    57   31   53 1   
    58   31   54 1   
@<TRIPOS>SUBSTRUCTURE
     1 84T         1 TEMP              0 ****  ****    0 ROOT
