@<TRIPOS>MOLECULE
851
   72    67     1     0     0
SMALL
bcc


@<TRIPOS>ATOM
      1 O16        -2.9820   -0.8190    0.1650 o         1 851     -0.370000
      2 C15        -1.7790   -0.9650    0.0340 c1        1 851      0.281000
      3 C8         -0.8410   -0.8410    1.2810 c2        1 851      0.016000
      4 C9         -0.4810   -2.1080    1.7140 c3        1 851     -0.102000
      5 C14         0.1070   -2.0910    3.1870 c3        1 851     -0.157000
      6 C13        -0.8390   -1.4470    4.2050 c3        1 851     -0.152500
      7 C12        -2.1110   -1.4070    3.7450 c3        1 851     -0.155000
      8 C11        -2.7170   -2.3900    3.0330 c3        1 851     -0.152500
      9 C10        -1.7630   -3.0250    2.0340 c3        1 851     -0.157000
     10 N7         -1.5550   -0.1290    2.3690 n         1 851     -0.361000
     11 C5         -2.7480    0.6880    2.0550 c2        1 851      0.261000
     12 O6         -3.3420    0.5190    1.0040 o         1 851     -0.373000
     13 C3         -3.1950    1.7960    3.0210 c3        1 851     -0.032000
     14 C4         -4.7070    1.7820    3.1430 c3        1 851     -0.214000
     15 N2         -2.7740    3.0510    2.5270 n3        1 851     -0.281000
     16 C1         -2.7870    4.0210    3.5980 c3        1 851     -0.133000
     17 N17        -1.2360   -1.4640   -1.2470 n3        1 851     -0.322000
     18 C21        -2.0310   -1.8490   -2.5140 c3        1 851     -0.037000
     19 C20        -0.9600   -2.0090   -3.6540 c3        1 851     -0.176000
     20 C19         0.1360   -1.5050   -3.1570 c3        1 851     -0.161000
     21 C18         0.0200   -1.6750   -1.5480 c3        1 851      0.080000
     22 C22         0.9010   -0.6580   -0.8540 c2        1 851     -0.259000
     23 N26         2.2600   -0.4010   -1.2260 n2        1 851     -0.097000
     24 C25         2.2660    0.6720   -2.3970 c1        1 851     -0.044000
     25 C30         3.2960    1.1140   -3.2270 c1        1 851     -0.007500
     26 C29         3.0030    1.9030   -4.3500 c1        1 851     -0.119500
     27 C28         1.6620    2.2520   -4.6410 c1        1 851     -0.116500
     28 C27         0.6230    1.8090   -3.8080 c1        1 851     -0.116500
     29 C24         0.9110    1.0250   -2.6920 c1        1 851     -0.323000
     30 S23        -0.0060    0.2130   -1.7450 s         1 851      0.475000
     31 C31         4.6960    1.0960   -3.0100 c1        1 851     -0.007500
     32 C36         5.4080   -0.0920   -3.1570 c1        1 851     -0.116500
     33 C35         6.7800   -0.1140   -2.9230 c1        1 851     -0.116500
     34 C34         7.4400    1.0500   -2.5420 c1        1 851     -0.116500
     35 C33         6.7290    2.2370   -2.3940 c1        1 851     -0.116500
     36 C32         5.3560    2.2600   -2.6280 c1        1 851     -0.119500
     37 H8         -0.0320   -0.3370    1.0350 h4        1 851      0.151000
     38 H9          0.1320   -2.5500    1.0850 hc        1 851      0.085000
     39 H14         0.2880   -3.0200    3.4660 hc        1 851      0.091000
     40 H14A        0.9550   -1.5910    3.1830 hc        1 851      0.091000
     41 H13        -0.8150   -1.9700    5.0420 hc        1 851      0.079000
     42 H13A       -0.5350   -0.5300    4.3900 hc        1 851      0.079000
     43 H12        -2.1720   -0.6080    3.2010 hc        1 851      0.077500
     44 H12A       -2.6800   -1.2560    4.5370 hc        1 851      0.077500
     45 H11        -3.0420   -3.0850    3.6540 hc        1 851      0.079000
     46 H11A       -3.4820   -2.0100    2.5480 hc        1 851      0.079000
     47 H10        -2.2490   -3.1920    1.1960 hc        1 851      0.091000
     48 H10A       -1.4520   -3.8890    2.3980 hc        1 851      0.091000
     49 HN7        -1.1940   -0.1030    3.2080 hn        1 851      0.237000
     50 H3         -2.7950    1.6410    3.9050 h1        1 851      0.110000
     51 H4         -5.0920    2.4550    2.5330 hc        1 851      0.090000
     52 H4A        -4.9640    1.9940    4.0700 hc        1 851      0.090000
     53 H4B        -5.0460    0.8920    2.9040 hc        1 851      0.090000
     54 HN2        -1.9240    2.9780    2.1910 hn        1 851      0.171000
     55 H1         -2.1760    3.7320    4.3100 h1        1 851      0.076000
     56 H1A        -2.4970    4.8960    3.2510 h1        1 851      0.076000
     57 H1B        -3.6990    4.0980    3.9600 h1        1 851      0.076000
     58 H21        -2.6680   -1.1360   -2.7450 h1        1 851      0.103000
     59 H21A       -2.5060   -2.6960   -2.3730 h1        1 851      0.103000
     60 H20        -1.2350   -1.5070   -4.4550 hc        1 851      0.095500
     61 H20A       -0.8310   -2.9600   -3.8720 hc        1 851      0.095500
     62 H19         0.9190   -1.9990   -3.4950 hc        1 851      0.103500
     63 H19A        0.2080   -0.5580   -3.3920 hc        1 851      0.103500
     64 H18         0.2830   -2.5870   -1.2840 h1        1 851      0.123000
     65 H29         3.7280    2.2140   -4.9330 ha        1 851      0.137500
     66 H28         1.4590    2.8040   -5.4270 ha        1 851      0.134500
     67 H27        -0.3060    2.0520   -4.0110 ha        1 851      0.134500
     68 H36         4.9440   -0.9090   -3.4250 ha        1 851      0.134500
     69 H35         7.2800   -0.9490   -3.0270 ha        1 851      0.134500
     70 H34         8.4080    1.0340   -2.3760 ha        1 851      0.134500
     71 H33         7.1940    3.0570   -2.1250 ha        1 851      0.134500
     72 H32         4.8560    3.0950   -2.5240 ha        1 851      0.137500
@<TRIPOS>BOND
     1    1    2 1   
     2    2   17 1   
     3    3    4 1   
     4    3   10 1   
     5    3   37 1   
     6    4    5 1   
     7    4    9 1   
     8    4   38 1   
     9    5    6 1   
    10    5   39 1   
    11    5   40 1   
    12    6    7 1   
    13    6   41 1   
    14    6   42 1   
    15    7    8 1   
    16    7   43 1   
    17    7   44 1   
    18    8    9 1   
    19    8   45 1   
    20    8   46 1   
    21    9   47 1   
    22    9   48 1   
    23   10   11 1   
    24   10   49 1   
    25   11   12 1   
    26   11   13 1   
    27   13   14 1   
    28   13   15 1   
    29   13   50 1   
    30   14   51 1   
    31   14   52 1   
    32   14   53 1   
    33   15   16 1   
    34   15   54 1   
    35   16   55 1   
    36   16   56 1   
    37   16   57 1   
    38   17   18 1   
    39   17   21 1   
    40   18   19 1   
    41   18   58 1   
    42   18   59 1   
    43   19   20 1   
    44   19   60 1   
    45   19   61 1   
    46   20   21 1   
    47   20   62 1   
    48   20   63 1   
    49   21   22 1   
    50   21   64 1   
    51   22   23 1   
    52   22   30 1   
    53   23   24 1   
    54   24   29 1   
    55   25   26 1   
    56   26   65 1   
    57   27   28 1   
    58   27   66 1   
    59   28   67 1   
    60   31   36 1   
    61   32   33 1   
    62   32   68 1   
    63   33   69 1   
    64   34   35 1   
    65   34   70 1   
    66   35   71 1   
    67   36   72 1   
@<TRIPOS>SUBSTRUCTURE
     1 851         1 TEMP              0 ****  ****    0 ROOT
