@<TRIPOS>MOLECULE
851
   74    78     1     0     0
SMALL
bcc


@<TRIPOS>ATOM
      1 O16         0.8270   -0.1810    0.6190 o         1 851     -0.735100
      2 C15         2.0720   -0.3890    0.4940 c         1 851      0.671100
      3 C8          2.8700   -0.5940    1.8070 c3        1 851      0.072500
      4 C9          3.4920   -1.9950    1.9040 c3        1 851     -0.103700
      5 C14         4.3170   -2.1630    3.1740 c3        1 851     -0.085900
      6 C13         5.0320   -3.5030    3.1490 c3        1 851     -0.080400
      7 C12         4.0540   -4.6470    2.9750 c3        1 851     -0.090400
      8 C11         3.1830   -4.4600    1.7510 c3        1 851     -0.080400
      9 C10         2.4730   -3.1180    1.7750 c3        1 851     -0.085900
     10 N7          1.9840   -0.3260    3.0170 n4        1 851     -0.653800
     11 C5          0.8790    0.6520    2.7600 c         1 851      0.548100
     12 O6          1.1980    1.8090    2.5140 o         1 851     -0.417100
     13 C3         -0.5920    0.2150    2.9230 c3        1 851      0.099500
     14 C4         -0.7860   -1.2910    2.9970 c3        1 851     -0.159100
     15 N2         -1.4000    0.8260    1.8030 n4        1 851     -0.754000
     16 C1         -2.8250    1.0060    2.1640 c3        1 851      0.071100
     17 N17         2.6740   -0.3800   -0.7090 n         1 851     -0.386800
     18 C21         4.1020   -0.5170   -0.9730 c3        1 851      0.068000
     19 C20         4.3470   -0.0260   -2.4090 c3        1 851     -0.091400
     20 C19         2.9790    0.0360   -3.0750 c3        1 851     -0.092400
     21 C18         1.9340   -0.0070   -1.9380 c3        1 851      0.089400
     22 C22         0.7990   -0.9360   -2.2600 cc        1 851      0.291200
     23 N26        -0.4690   -0.5430   -2.2190 nd        1 851     -0.509100
     24 C25        -1.3020   -1.5880   -2.6350 ca        1 851      0.070400
     25 C30        -2.7080   -1.5240   -2.8110 cp        1 851      0.015000
     26 C29        -3.3690   -2.6810   -3.2220 ca        1 851     -0.111000
     27 C28        -2.6790   -3.8750   -3.4830 ca        1 851     -0.092000
     28 C27        -1.2990   -3.9420   -3.3590 ca        1 851     -0.087000
     29 C24        -0.6030   -2.8050   -2.9460 ca        1 851     -0.083100
     30 S23         1.0590   -2.5720   -2.7630 ss        1 851      0.012900
     31 C31        -3.4600   -0.2820   -2.6420 cp        1 851     -0.033000
     32 C36        -4.3690    0.1040   -3.6420 ca        1 851     -0.110500
     33 C35        -5.0980    1.2840   -3.5150 ca        1 851     -0.132000
     34 C34        -4.9310    2.0950   -2.3920 ca        1 851     -0.099000
     35 C33        -4.0330    1.7170   -1.3940 ca        1 851     -0.132000
     36 C32        -3.3050    0.5340   -1.5160 ca        1 851     -0.110500
     37 H8          3.6910    0.1890    1.8430 hx        1 851      0.135700
     38 H9          4.2060   -2.0730    1.0310 hc        1 851      0.114700
     39 H14         5.0710   -1.3370    3.2550 hc        1 851      0.040200
     40 H14A        3.6610   -2.1270    4.0830 hc        1 851      0.040200
     41 H13         5.7810   -3.5140    2.3140 hc        1 851      0.070950
     42 H13A        5.5990   -3.6340    4.1090 hc        1 851      0.070950
     43 H12         3.4080   -4.7340    3.8890 hc        1 851      0.067200
     44 H12A        4.6240   -5.6100    2.8800 hc        1 851      0.067200
     45 H11         2.4180   -5.2790    1.7020 hc        1 851      0.070950
     46 H11A        3.8110   -4.5330    0.8240 hc        1 851      0.070950
     47 H10         1.8750   -2.9850    0.8350 hc        1 851      0.040200
     48 H10A        1.7560   -3.1090    2.6390 hc        1 851      0.040200
     49 HN7         1.5950   -1.2270    3.3280 hn        1 851      0.478800
     50 H3         -0.9470    0.6940    3.8930 hx        1 851      0.145700
     51 H4         -1.8770   -1.5550    3.0050 hc        1 851      0.099700
     52 H4A        -0.3610   -1.6840    3.9550 hc        1 851      0.099700
     53 H4B        -0.3150   -1.8090    2.1220 hc        1 851      0.099700
     54 HN2        -1.3160    0.2130    0.9670 hn        1 851      0.490300
     55 H1         -2.9230    1.7810    2.9700 hx        1 851      0.122700
     56 H1A        -3.2620    0.0330    2.5160 hx        1 851      0.122700
     57 H1B        -3.3810    1.3440    1.2400 hx        1 851      0.122700
     58 H21         4.3940   -1.6020   -0.8900 h1        1 851      0.066700
     59 H21A        4.6950    0.0840   -0.2310 h1        1 851      0.066700
     60 H20         4.8330    0.9830   -2.3960 hc        1 851      0.088200
     61 H20A        5.0300   -0.7290   -2.9460 hc        1 851      0.088200
     62 H19         2.8530    0.9790   -3.6640 hc        1 851      0.093200
     63 H19A        2.8360   -0.8270   -3.7750 hc        1 851      0.093200
     64 H18         1.5210    1.0350   -1.7650 h1        1 851      0.102700
     65 H29        -4.4630   -2.6550   -3.3620 ha        1 851      0.159000
     66 H28        -3.2450   -4.7630   -3.8080 ha        1 851      0.163000
     67 H27        -0.7600   -4.8720   -3.5970 ha        1 851      0.159000
     68 H36        -4.4970   -0.5270   -4.5350 ha        1 851      0.115000
     69 H35        -5.8050    1.5800   -4.3070 ha        1 851      0.132000
     70 H34        -5.5040    3.0300   -2.2960 ha        1 851      0.152000
     71 H33        -3.8990    2.3680   -0.5190 ha        1 851      0.132000
     72 H32        -2.5990    0.2390   -0.7290 ha        1 851      0.115000
     73 H72         2.5940    0.0450    3.7610 hn        1 851      0.478800
     74 H22        -0.9900    1.7390    1.5490 hn        1 851      0.490300
@<TRIPOS>BOND
     1    1    2 2   
     2    2    3 1   
     3    2   17 1   
     4    3    4 1   
     5    3   10 1   
     6    3   37 1   
     7    4    5 1   
     8    4    9 1   
     9    4   38 1   
    10    5    6 1   
    11    5   39 1   
    12    5   40 1   
    13    6    7 1   
    14    6   41 1   
    15    6   42 1   
    16    7    8 1   
    17    7   43 1   
    18    7   44 1   
    19    8    9 1   
    20    8   45 1   
    21    8   46 1   
    22    9   47 1   
    23    9   48 1   
    24   10   11 1   
    25   10   49 1   
    26   10   73 1   
    27   11   12 2   
    28   11   13 1   
    29   13   14 1   
    30   13   15 1   
    31   13   50 1   
    32   14   51 1   
    33   14   52 1   
    34   14   53 1   
    35   15   16 1   
    36   15   54 1   
    37   15   74 1   
    38   16   55 1   
    39   16   56 1   
    40   16   57 1   
    41   17   18 1   
    42   17   21 1   
    43   18   19 1   
    44   18   58 1   
    45   18   59 1   
    46   19   20 1   
    47   19   60 1   
    48   19   61 1   
    49   20   21 1   
    50   20   62 1   
    51   20   63 1   
    52   21   22 1   
    53   21   64 1   
    54   22   23 2   
    55   22   30 1   
    56   23   24 1   
    57   24   25 ar  
    58   24   29 ar  
    59   25   26 ar  
    60   25   31 1   
    61   26   27 ar  
    62   26   65 1   
    63   27   28 ar  
    64   27   66 1   
    65   28   29 ar  
    66   28   67 1   
    67   29   30 1   
    68   31   32 ar  
    69   31   36 ar  
    70   32   33 ar  
    71   32   68 1   
    72   33   34 ar  
    73   33   69 1   
    74   34   35 ar  
    75   34   70 1   
    76   35   36 ar  
    77   35   71 1   
    78   36   72 1   
@<TRIPOS>SUBSTRUCTURE
     1 851         1 TEMP              0 ****  ****    0 ROOT
