@<TRIPOS>MOLECULE
851
   74    78     1     0     0
SMALL
bcc


@<TRIPOS>ATOM
      1 O16         0.9280    0.6500    0.2680 o         1 851     -0.705100
      2 C15         2.0440    0.0520    0.3220 c         1 851      0.675100
      3 C8          2.5350   -0.3560    1.7320 c3        1 851      0.076500
      4 C9          3.0250   -1.8100    1.8290 c3        1 851     -0.105700
      5 C14         3.5480   -2.1390    3.2240 c3        1 851     -0.087400
      6 C13         4.1650   -3.5270    3.2260 c3        1 851     -0.079900
      7 C12         3.1740   -4.5710    2.7560 c3        1 851     -0.090400
      8 C11         2.5930   -4.2230    1.4010 c3        1 851     -0.079900
      9 C10         1.9840   -2.8320    1.3960 c3        1 851     -0.087400
     10 N7          1.4530   -0.1080    2.7740 n4        1 851     -0.659800
     11 C5          0.4450    0.9530    2.4220 c         1 851      0.560100
     12 O6          0.8280    2.1140    2.4810 o         1 851     -0.424100
     13 C3         -1.0200    0.5370    2.1860 c3        1 851      0.102500
     14 C4         -1.1900   -0.9400    1.8560 c3        1 851     -0.167100
     15 N2         -1.6350    1.4010    1.1160 n4        1 851     -0.767000
     16 C1         -1.9910    2.7580    1.5900 c3        1 851      0.069100
     17 N17         2.7590   -0.1850   -0.7980 n         1 851     -0.389800
     18 C21         4.1780   -0.5120   -0.8790 c3        1 851      0.071000
     19 C20         4.6890    0.0130   -2.2290 c3        1 851     -0.092400
     20 C19         3.4550    0.3490   -3.0580 c3        1 851     -0.094400
     21 C18         2.2320    0.2270   -2.1220 c3        1 851      0.088400
     22 C22         1.1940   -0.7390   -2.6320 cc        1 851      0.282200
     23 N26        -0.0400   -0.7850   -2.1320 nd        1 851     -0.552100
     24 C25        -0.7820   -1.7560   -2.8120 ca        1 851      0.078400
     25 C30        -2.1420   -2.0890   -2.5840 cp        1 851     -0.020000
     26 C29        -2.7070   -3.1140   -3.3340 ca        1 851     -0.090000
     27 C28        -1.9710   -3.7960   -4.3190 ca        1 851     -0.097000
     28 C27        -0.6510   -3.4680   -4.5760 ca        1 851     -0.068000
     29 C24        -0.0440   -2.4540   -3.8280 ca        1 851     -0.102100
     30 S23         1.5220   -1.8460   -3.9090 ss        1 851      0.090900
     31 C31        -2.9570   -1.3560   -1.6160 cp        1 851     -0.022000
     32 C36        -3.1230    0.0310   -1.7360 ca        1 851     -0.115500
     33 C35        -3.9600    0.7170   -0.8550 ca        1 851     -0.173500
     34 C34        -4.6290    0.0270    0.1600 ca        1 851     -0.161000
     35 C33        -4.4570   -1.3520    0.2910 ca        1 851     -0.173500
     36 C32        -3.6320   -2.0430   -0.5960 ca        1 851     -0.115500
     37 H8          3.3920    0.3430    1.9920 hx        1 851      0.135700
     38 H9          3.9060   -1.8900    1.1260 hc        1 851      0.113700
     39 H14         4.3180   -1.3850    3.5330 hc        1 851      0.041200
     40 H14A        2.7190   -2.1210    3.9780 hc        1 851      0.041200
     41 H13         5.0710   -3.5370    2.5630 hc        1 851      0.069950
     42 H13A        4.5090   -3.7730    4.2650 hc        1 851      0.069950
     43 H12         3.6870   -5.5670    2.6940 hc        1 851      0.066700
     44 H12A        2.3460   -4.6700    3.5070 hc        1 851      0.066700
     45 H11         3.3960   -4.2810    0.6190 hc        1 851      0.069950
     46 H11A        1.8030   -4.9710    1.1250 hc        1 851      0.069950
     47 H10         1.1030   -2.8250    2.0910 hc        1 851      0.041200
     48 H10A        1.6090   -2.5870    0.3680 hc        1 851      0.041200
     49 HN7         0.9740   -1.0020    2.9480 hn        1 851      0.474800
     50 H3         -1.5640    0.7710    3.1590 hx        1 851      0.138700
     51 H4         -2.2410   -1.1650    1.5170 hc        1 851      0.101033
     52 H4A        -0.4990   -1.2550    1.0310 hc        1 851      0.101033
     53 H4B        -1.0150   -1.5590    2.7710 hc        1 851      0.101033
     54 HN2        -0.9820    1.4700    0.3140 hn        1 851      0.495300
     55 H1         -1.0670    3.3060    1.9250 hx        1 851      0.118700
     56 H1A        -2.4650    3.3170    0.7350 hx        1 851      0.118700
     57 H1B        -2.7230    2.6900    2.4390 hx        1 851      0.118700
     58 H21         4.3000   -1.6310   -0.8370 h1        1 851      0.068200
     59 H21A        4.7370   -0.0450   -0.0240 h1        1 851      0.068200
     60 H20         5.3260    0.9210   -2.0780 hc        1 851      0.087700
     61 H20A        5.3160   -0.7650   -2.7310 hc        1 851      0.087700
     62 H19         3.3710   -0.3380   -3.9390 hc        1 851      0.088200
     63 H19A        3.5120    1.3940   -3.4560 hc        1 851      0.088200
     64 H18         1.7410    1.2420   -2.0000 h1        1 851      0.103700
     65 H29        -3.7630   -3.3890   -3.1690 ha        1 851      0.159000
     66 H28        -2.4630   -4.5960   -4.8980 ha        1 851      0.167000
     67 H27        -0.0850   -3.9940   -5.3620 ha        1 851      0.165000
     68 H36        -2.6220    0.5700   -2.5570 ha        1 851      0.159500
     69 H35        -4.1580    1.7890   -1.0130 ha        1 851      0.152500
     70 H34        -5.3370    0.5570    0.8160 ha        1 851      0.153000
     71 H33        -5.0130   -1.9050    1.0660 ha        1 851      0.152500
     72 H32        -3.5330   -3.1380   -0.5190 ha        1 851      0.159500
     73 H72         1.9370    0.1770    3.6390 hn        1 851      0.474800
     74 H22        -2.4940    0.9200    0.7680 hn        1 851      0.495300
@<TRIPOS>BOND
     1    1    2 2   
     2    2    3 1   
     3    2   17 1   
     4    3    4 1   
     5    3   10 1   
     6    3   37 1   
     7    4    5 1   
     8    4    9 1   
     9    4   38 1   
    10    5    6 1   
    11    5   39 1   
    12    5   40 1   
    13    6    7 1   
    14    6   41 1   
    15    6   42 1   
    16    7    8 1   
    17    7   43 1   
    18    7   44 1   
    19    8    9 1   
    20    8   45 1   
    21    8   46 1   
    22    9   47 1   
    23    9   48 1   
    24   10   11 1   
    25   10   49 1   
    26   10   73 1   
    27   11   12 2   
    28   11   13 1   
    29   13   14 1   
    30   13   15 1   
    31   13   50 1   
    32   14   51 1   
    33   14   52 1   
    34   14   53 1   
    35   15   16 1   
    36   15   54 1   
    37   15   74 1   
    38   16   55 1   
    39   16   56 1   
    40   16   57 1   
    41   17   18 1   
    42   17   21 1   
    43   18   19 1   
    44   18   58 1   
    45   18   59 1   
    46   19   20 1   
    47   19   60 1   
    48   19   61 1   
    49   20   21 1   
    50   20   62 1   
    51   20   63 1   
    52   21   22 1   
    53   21   64 1   
    54   22   23 2   
    55   22   30 1   
    56   23   24 1   
    57   24   25 ar  
    58   24   29 ar  
    59   25   26 ar  
    60   25   31 1   
    61   26   27 ar  
    62   26   65 1   
    63   27   28 ar  
    64   27   66 1   
    65   28   29 ar  
    66   28   67 1   
    67   29   30 1   
    68   31   32 ar  
    69   31   36 ar  
    70   32   33 ar  
    71   32   68 1   
    72   33   34 ar  
    73   33   69 1   
    74   34   35 ar  
    75   34   70 1   
    76   35   36 ar  
    77   35   71 1   
    78   36   72 1   
@<TRIPOS>SUBSTRUCTURE
     1 851         1 TEMP              0 ****  ****    0 ROOT
