@<TRIPOS>MOLECULE
851
   74    78     1     0     0
SMALL
bcc


@<TRIPOS>ATOM
      1 O16         0.8270   -0.1610    0.5710 o         1 851     -0.735100
      2 C15         2.0710   -0.3800    0.4540 c         1 851      0.671100
      3 C8          2.8700   -0.5260    1.7740 c3        1 851      0.072500
      4 C9          3.4870   -1.9240    1.9360 c3        1 851     -0.103700
      5 C14         4.3130   -2.0360    3.2120 c3        1 851     -0.085900
      6 C13         5.0230   -3.3780    3.2480 c3        1 851     -0.080400
      7 C12         4.0410   -4.5250    3.1290 c3        1 851     -0.090400
      8 C11         3.1690   -4.3920    1.8970 c3        1 851     -0.080400
      9 C10         2.4640   -3.0480    1.8600 c3        1 851     -0.085900
     10 N7          1.9860   -0.1990    2.9720 ny        1 851     -0.653800
     11 C5          0.8850    0.7700    2.6710 c         1 851      0.548100
     12 O6          1.2080    1.9130    2.3700 o         1 851     -0.417100
     13 C3         -0.5880    0.3480    2.8550 c3        1 851      0.099500
     14 C4         -0.7880   -1.1530    2.9990 c3        1 851     -0.159100
     15 N2         -1.3940    0.9100    1.7090 ny        1 851     -0.754000
     16 C1         -2.8180    1.1110    2.0620 c3        1 851      0.071100
     17 N17         2.6710   -0.4290   -0.7480 n         1 851     -0.386800
     18 C21         4.0990   -0.5840   -1.0080 c3        1 851      0.068000
     19 C20         4.3430   -0.1620   -2.4650 c3        1 851     -0.091400
     20 C19         2.9750   -0.1260   -3.1330 c3        1 851     -0.092400
     21 C18         1.9310   -0.1120   -1.9930 c3        1 851      0.089400
     22 C22         0.7920   -1.0500   -2.2700 cc        1 851      0.291200
     23 N26        -0.4740   -0.6510   -2.2450 nd        1 851     -0.509100
     24 C25        -1.3120   -1.7120   -2.6110 ca        1 851      0.070400
     25 C30        -2.7180   -1.6500   -2.7880 cp        1 851      0.015000
     26 C29        -3.3840   -2.8220   -3.1440 ca        1 851     -0.111000
     27 C28        -2.6990   -4.0300   -3.3480 ca        1 851     -0.092000
     28 C27        -1.3190   -4.0970   -3.2240 ca        1 851     -0.087000
     29 C24        -0.6180   -2.9450   -2.8650 ca        1 851     -0.083100
     30 S23         1.0460   -2.7090   -2.6960 ss        1 851      0.012900
     31 C31        -3.4650   -0.3980   -2.6770 cp        1 851     -0.033000
     32 C36        -4.3740   -0.0570   -3.6920 ca        1 851     -0.110500
     33 C35        -5.0980    1.1310   -3.6210 ca        1 851     -0.132000
     34 C34        -4.9260    1.9940   -2.5370 ca        1 851     -0.099000
     35 C33        -4.0280    1.6590   -1.5240 ca        1 851     -0.132000
     36 C32        -3.3050    0.4690   -1.5910 ca        1 851     -0.110500
     37 H8          3.6940    0.2550    1.7720 hx        1 851      0.135700
     38 H9          4.2000   -2.0440    1.0670 hc        1 851      0.114700
     39 H14         3.6580   -1.9550    4.1190 hc        1 851      0.040200
     40 H14A        5.0700   -1.2090    3.2540 hc        1 851      0.040200
     41 H13         5.5900   -3.4660    4.2130 hc        1 851      0.070950
     42 H13A        5.7710   -3.4290    2.4140 hc        1 851      0.070950
     43 H12         3.3960   -4.5660    4.0460 hc        1 851      0.067200
     44 H12A        4.6080   -5.4930    3.0780 hc        1 851      0.067200
     45 H11         3.7960   -4.5100    0.9750 hc        1 851      0.070950
     46 H11A        2.4020   -5.2100    1.8880 hc        1 851      0.070950
     47 H10         1.7480   -2.9960    2.7230 hc        1 851      0.040200
     48 H10A        1.8660   -2.9570    0.9150 hc        1 851      0.040200
     49 HN7         1.5940   -1.0830    3.3240 hn        1 851      0.478800
     50 H3         -0.9390    0.8730    3.8020 hx        1 851      0.146700
     51 H4         -1.8800   -1.4110    3.0210 hc        1 851      0.099700
     52 H4A        -0.3200   -1.7130    2.1490 hc        1 851      0.099700
     53 H4B        -0.3630   -1.5020    3.9740 hc        1 851      0.099700
     54 HN2        -0.9800    1.8080    1.4120 hn        1 851      0.490300
     55 H1         -3.3740    1.4090    1.1250 hx        1 851      0.122700
     56 H1A        -3.2580    0.1580    2.4600 hx        1 851      0.122700
     57 H1B        -2.9120    1.9250    2.8320 hx        1 851      0.122700
     58 H21         4.6950    0.0480   -0.2950 h1        1 851      0.066700
     59 H21A        4.3870   -1.6650   -0.8750 h1        1 851      0.066700
     60 H20         4.8330    0.8440   -2.5010 hc        1 851      0.088200
     61 H20A        5.0230   -0.8920   -2.9700 hc        1 851      0.088200
     62 H19         2.8510    0.7890   -3.7650 hc        1 851      0.093200
     63 H19A        2.8280   -1.0210   -3.7910 hc        1 851      0.093200
     64 H18         1.5220    0.9390   -1.8680 h1        1 851      0.102700
     65 H29        -4.4780   -2.7990   -3.2830 ha        1 851      0.159000
     66 H28        -3.2690   -4.9310   -3.6310 ha        1 851      0.163000
     67 H27        -0.7840   -5.0390   -3.4180 ha        1 851      0.159000
     68 H36        -4.5060   -0.7290   -4.5550 ha        1 851      0.115000
     69 H35        -5.8040    1.3920   -4.4250 ha        1 851      0.132000
     70 H34        -5.4950    2.9340   -2.4850 ha        1 851      0.152000
     71 H33        -3.8900    2.3500   -0.6800 ha        1 851      0.132000
     72 H32        -2.5990    0.2090   -0.7910 ha        1 851      0.115000
     73 H72         2.5990    0.2030    3.6970 hn        1 851      0.478800
     74 H22        -1.3140    0.2580    0.9020 hn        1 851      0.490300
@<TRIPOS>BOND
     1    1    2 2   
     2    2    3 1   
     3    2   17 1   
     4    3    4 1   
     5    3   10 1   
     6    3   37 1   
     7    4    5 1   
     8    4    9 1   
     9    4   38 1   
    10    5    6 1   
    11    5   39 1   
    12    5   40 1   
    13    6    7 1   
    14    6   41 1   
    15    6   42 1   
    16    7    8 1   
    17    7   43 1   
    18    7   44 1   
    19    8    9 1   
    20    8   45 1   
    21    8   46 1   
    22    9   47 1   
    23    9   48 1   
    24   10   11 1   
    25   10   49 1   
    26   10   73 1   
    27   11   12 2   
    28   11   13 1   
    29   13   14 1   
    30   13   15 1   
    31   13   50 1   
    32   14   51 1   
    33   14   52 1   
    34   14   53 1   
    35   15   16 1   
    36   15   54 1   
    37   15   74 1   
    38   16   55 1   
    39   16   56 1   
    40   16   57 1   
    41   17   18 1   
    42   17   21 1   
    43   18   19 1   
    44   18   58 1   
    45   18   59 1   
    46   19   20 1   
    47   19   60 1   
    48   19   61 1   
    49   20   21 1   
    50   20   62 1   
    51   20   63 1   
    52   21   22 1   
    53   21   64 1   
    54   22   23 2   
    55   22   30 1   
    56   23   24 1   
    57   24   25 ar  
    58   24   29 ar  
    59   25   26 ar  
    60   25   31 1   
    61   26   27 ar  
    62   26   65 1   
    63   27   28 ar  
    64   27   66 1   
    65   28   29 ar  
    66   28   67 1   
    67   29   30 1   
    68   31   32 ar  
    69   31   36 ar  
    70   32   33 ar  
    71   32   68 1   
    72   33   34 ar  
    73   33   69 1   
    74   34   35 ar  
    75   34   70 1   
    76   35   36 ar  
    77   35   71 1   
    78   36   72 1   
@<TRIPOS>SUBSTRUCTURE
     1 851         1 TEMP              0 ****  ****    0 ROOT
