@<TRIPOS>MOLECULE
851
   72    76     1     0     0
SMALL
bcc


@<TRIPOS>ATOM
      1 O16         1.1510   -1.2600   -0.8000 o         1 851     -0.597100
      2 C15         1.5710   -0.4220    0.0200 c         1 851      0.627100
      3 C8          2.9930    0.1840   -0.1360 c3        1 851      0.042700
      4 C9          2.9580    1.1420   -1.3460 c3        1 851     -0.061700
      5 C14         4.1450    2.0950   -1.3050 c3        1 851     -0.078900
      6 C13         4.0540    3.1090   -2.4280 c3        1 851     -0.075900
      7 C12         3.9370    2.4370   -3.7800 c3        1 851     -0.079400
      8 C11         2.7860    1.4520   -3.8110 c3        1 851     -0.075900
      9 C10         2.9070    0.4360   -2.6920 c3        1 851     -0.078900
     10 N7          3.9820   -0.8580   -0.2300 n         1 851     -0.546900
     11 C5          4.6280   -1.3510    0.8890 c         1 851      0.615100
     12 O6          4.4780   -0.8200    2.0090 o         1 851     -0.627100
     13 C3          5.5700   -2.5640    0.6840 c3        1 851      0.117500
     14 C4          4.6860   -3.8100    0.6170 c3        1 851     -0.097100
     15 N2          6.6000   -2.6810    1.6990 n3        1 851     -0.802200
     16 C1          7.5800   -1.6250    1.6770 c3        1 851      0.144100
     17 N17         0.7560    0.0580    1.0440 n         1 851     -0.455800
     18 C21         1.3190    0.4870    2.3190 c3        1 851      0.064000
     19 C20         0.3440    0.0830    3.4360 c3        1 851     -0.094400
     20 C19        -0.8080   -0.6510    2.7640 c3        1 851     -0.083400
     21 C18        -0.5750   -0.5260    1.2380 c3        1 851      0.066400
     22 C22        -1.6610    0.3140    0.6100 cc        1 851      0.363200
     23 N26        -2.9120   -0.1060    0.4980 nd        1 851     -0.529100
     24 C25        -3.6920    0.8830   -0.1190 ca        1 851      0.096400
     25 C30        -5.0790    0.8020   -0.3940 cp        1 851      0.020000
     26 C29        -5.6930    1.8960   -1.0000 ca        1 851     -0.124000
     27 C28        -4.9710    3.0480   -1.3440 ca        1 851     -0.122000
     28 C27        -3.6130    3.1430   -1.0830 ca        1 851     -0.091000
     29 C24        -2.9640    2.0710   -0.4690 ca        1 851     -0.100100
     30 S23        -1.3460    1.9040   -0.0180 ss        1 851     -0.006100
     31 C31        -5.8660   -0.3820   -0.0500 cp        1 851     -0.039000
     32 C36        -7.0830   -0.2300    0.6320 ca        1 851     -0.104000
     33 C35        -7.8500   -1.3460    0.9570 ca        1 851     -0.136500
     34 C34        -7.4160   -2.6230    0.6000 ca        1 851     -0.125000
     35 C33        -6.2100   -2.7790   -0.0820 ca        1 851     -0.136500
     36 C32        -5.4350   -1.6660   -0.4070 ca        1 851     -0.104000
     37 H8          3.2520    0.8090    0.7740 h1        1 851      0.098700
     38 H9          2.0140    1.7500   -1.2330 hc        1 851      0.065700
     39 H14         4.1700    2.6300   -0.3200 hc        1 851      0.049700
     40 H14A        5.0990    1.5130   -1.3980 hc        1 851      0.049700
     41 H13         3.1620    3.7690   -2.2620 hc        1 851      0.041950
     42 H13A        4.9640    3.7630   -2.4110 hc        1 851      0.041950
     43 H12         3.7880    3.2150   -4.5740 hc        1 851      0.040200
     44 H12A        4.8940    1.8990   -4.0130 hc        1 851      0.040200
     45 H11         1.8150    2.0040   -3.7140 hc        1 851      0.041950
     46 H11A        2.7720    0.9190   -4.7970 hc        1 851      0.041950
     47 H10         3.8410   -0.1630   -2.8540 hc        1 851      0.049700
     48 H10A        2.0360   -0.2710   -2.7140 hc        1 851      0.049700
     49 HN7         3.9590   -1.4140   -1.0550 hn        1 851      0.321500
     50 H3          6.0990   -2.4430   -0.3090 h1        1 851      0.073700
     51 H4          4.0960   -3.9320    1.5570 hc        1 851      0.051700
     52 H4A         3.9800   -3.7210   -0.2430 hc        1 851      0.051700
     53 H4B         5.3150   -4.7210    0.4710 hc        1 851      0.051700
     54 HN2         6.1760   -2.7510    2.6080 hn        1 851      0.375800
     55 H1          7.1380   -0.6010    1.8260 h1        1 851      0.037700
     56 H1A         8.3210   -1.8190    2.4970 h1        1 851      0.037700
     57 H1B         8.1190   -1.6410    0.6940 h1        1 851      0.037700
     58 H21         2.3300    0.0210    2.4970 h1        1 851      0.065700
     59 H21A        1.4450    1.6050    2.2920 h1        1 851      0.065700
     60 H20         0.8590   -0.5730    4.1800 hc        1 851      0.056700
     61 H20A       -0.0210    0.9910    3.9760 hc        1 851      0.056700
     62 H19        -0.8130   -1.7330    3.0460 hc        1 851      0.066700
     63 H19A       -1.7940   -0.2170    3.0590 hc        1 851      0.066700
     64 H18        -0.6120   -1.5500    0.7520 h1        1 851      0.106700
     65 H29        -6.7710    1.8510   -1.2210 ha        1 851      0.140000
     66 H28        -5.4960    3.8860   -1.8280 ha        1 851      0.136000
     67 H27        -3.0510    4.0480   -1.3540 ha        1 851      0.138000
     68 H36        -7.4250    0.7760    0.9170 ha        1 851      0.139500
     69 H35        -8.8000   -1.2190    1.4960 ha        1 851      0.131000
     70 H34        -8.0230   -3.5030    0.8570 ha        1 851      0.129000
     71 H33        -5.8640   -3.7840   -0.3650 ha        1 851      0.131000
     72 H32        -4.4840   -1.7990   -0.9440 ha        1 851      0.139500
@<TRIPOS>BOND
     1    1    2 2   
     2    2    3 1   
     3    2   17 1   
     4    3    4 1   
     5    3   10 1   
     6    3   37 1   
     7    4    5 1   
     8    4    9 1   
     9    4   38 1   
    10    5    6 1   
    11    5   39 1   
    12    5   40 1   
    13    6    7 1   
    14    6   41 1   
    15    6   42 1   
    16    7    8 1   
    17    7   43 1   
    18    7   44 1   
    19    8    9 1   
    20    8   45 1   
    21    8   46 1   
    22    9   47 1   
    23    9   48 1   
    24   10   11 1   
    25   10   49 1   
    26   11   12 2   
    27   11   13 1   
    28   13   14 1   
    29   13   15 1   
    30   13   50 1   
    31   14   51 1   
    32   14   52 1   
    33   14   53 1   
    34   15   16 1   
    35   15   54 1   
    36   16   55 1   
    37   16   56 1   
    38   16   57 1   
    39   17   18 1   
    40   17   21 1   
    41   18   19 1   
    42   18   58 1   
    43   18   59 1   
    44   19   20 1   
    45   19   60 1   
    46   19   61 1   
    47   20   21 1   
    48   20   62 1   
    49   20   63 1   
    50   21   22 1   
    51   21   64 1   
    52   22   23 2   
    53   22   30 1   
    54   23   24 1   
    55   24   25 ar  
    56   24   29 ar  
    57   25   26 ar  
    58   25   31 1   
    59   26   27 ar  
    60   26   65 1   
    61   27   28 ar  
    62   27   66 1   
    63   28   29 ar  
    64   28   67 1   
    65   29   30 1   
    66   31   32 ar  
    67   31   36 ar  
    68   32   33 ar  
    69   32   68 1   
    70   33   34 ar  
    71   33   69 1   
    72   34   35 ar  
    73   34   70 1   
    74   35   36 ar  
    75   35   71 1   
    76   36   72 1   
@<TRIPOS>SUBSTRUCTURE
     1 851         1 TEMP              0 ****  ****    0 ROOT
