@<TRIPOS>MOLECULE
852
   78    81     1     0     0
SMALL
bcc


@<TRIPOS>ATOM
      1 C1          0.7840   -1.5990   -1.6580 ca        1 852     -0.182300
      2 C2          1.9310   -0.7900   -1.5870 ca        1 852     -0.172000
      3 C3          2.0530    0.1710   -0.5960 ca        1 852     -0.076000
      4 C4          1.0430    0.3820    0.3700 ca        1 852      0.041700
      5 C5         -0.1100   -0.4160    0.2970 ca        1 852     -0.122600
      6 C6         -0.2110   -1.3970   -0.7060 ca        1 852     -0.170000
      7 C7          0.7290   -2.6080   -2.7520 c3        1 852     -0.007100
      8 C8         -0.4020   -3.6360   -2.6230 c3        1 852      0.027700
      9 C9         -1.7050   -3.1850   -3.3410 c         1 852      0.633100
     10 N10        -2.0700   -1.8670   -3.2720 n         1 852     -0.526900
     11 O11        -2.4120   -4.0280   -3.9520 o         1 852     -0.699100
     12 N12        -0.0380   -4.9880   -3.0120 n         1 852     -0.506900
     13 C13         0.6720   -5.3070   -4.1630 c         1 852      0.646100
     14 O14         1.3760   -4.5050   -4.8060 o         1 852     -0.598100
     15 C15         0.6370   -6.7680   -4.5770 c3        1 852     -0.182100
     16 C16        -3.3220   -1.4210   -3.8290 c3        1 852      0.052700
     17 C17        -3.2630    0.0280   -4.3600 c         1 852      0.687500
     18 N18        -3.0210    1.1000   -3.5340 n         1 852     -0.435800
     19 O19        -3.4510    0.1840   -5.5930 o         1 852     -0.716500
     20 C20        -3.0990    1.0300   -2.0860 c3        1 852      0.062000
     21 C21        -4.4040    0.4840   -1.5160 c3        1 852     -0.083400
     22 C22        -3.0020    2.4180   -4.1460 c3        1 852      0.140300
     23 C23        -2.0900    3.4420   -3.5380 ca        1 852     -0.110300
     24 C24        -4.4610   -1.0240   -1.5480 c3        1 852     -0.090400
     25 C25        -4.5560   -1.6060   -2.9360 c3        1 852     -0.091400
     26 C26        -2.4180    4.7930   -3.7220 ca        1 852     -0.137500
     27 C27        -1.6090    5.7930   -3.1950 ca        1 852     -0.113500
     28 C28        -0.4560    5.4670   -2.4630 cp        1 852     -0.044000
     29 C29        -0.1270    4.1150   -2.2820 ca        1 852     -0.113500
     30 C30        -0.9330    3.1150   -2.8280 ca        1 852     -0.137500
     31 C31         0.3790    6.5110   -1.8730 cp        1 852     -0.034000
     32 C32         1.0790    6.2640   -0.6780 ca        1 852     -0.110500
     33 C33         1.8660    7.2730   -0.1200 ca        1 852     -0.157000
     34 C34         1.9690    8.5210   -0.7330 ca        1 852     -0.160000
     35 C35         1.2840    8.7660   -1.9230 ca        1 852     -0.157000
     36 C36         0.4960    7.7670   -2.4890 ca        1 852     -0.110500
     37 C37        -1.3490   -0.3370    1.1710 c         1 852      0.921200
     38 O38        -1.3010   -0.5630    2.4090 o         1 852     -0.863300
     39 O39        -2.4580   -0.1520    0.5640 o         1 852     -0.863300
     40 C40         1.2820    1.4580    1.3770 c3        1 852     -0.234400
     41 C41         1.3330    2.8330    0.6910 c         1 852      0.933100
     42 O42         0.6210    3.7880    1.1400 o         1 852     -0.881300
     43 O43         2.0450    3.0430   -0.3470 o         1 852     -0.881300
     44 C76         2.5820    1.2280    2.1970 c         1 852      0.933100
     45 O78         2.6020    1.6190    3.4030 o         1 852     -0.881300
     46 O79         3.5870    0.6510    1.6790 o         1 852     -0.881300
     47 H2          2.7340   -0.9250   -2.3240 ha        1 852      0.088000
     48 H3          2.9520    0.8130   -0.5210 ha        1 852      0.191000
     49 H6         -1.1320   -2.0030   -0.6970 ha        1 852      0.095000
     50 H71         0.6440   -2.0920   -3.7460 hc        1 852      0.052200
     51 H72         1.7160   -3.1510   -2.7690 hc        1 852      0.052200
     52 H8         -0.6770   -3.7260   -1.5220 h1        1 852      0.105700
     53 H10        -1.5610   -1.2440   -2.6730 hn        1 852      0.367500
     54 H12        -0.7630   -5.6400   -2.7940 hn        1 852      0.287500
     55 H151        0.9520   -7.4270   -3.7330 hc        1 852      0.050033
     56 H152        1.3350   -6.9160   -5.4340 hc        1 852      0.050033
     57 H153       -0.3960   -7.0470   -4.8960 hc        1 852      0.050033
     58 H16        -3.5070   -2.0560   -4.7570 h1        1 852      0.083700
     59 H201       -2.9570    2.0750   -1.6810 h1        1 852      0.104700
     60 H202       -2.2430    0.4180   -1.6590 h1        1 852      0.104700
     61 H211       -4.4120    0.7960   -0.4320 hc        1 852      0.050700
     62 H212       -5.2940    0.9270   -2.0320 hc        1 852      0.050700
     63 H221       -2.7010    2.2990   -5.2300 h1        1 852      0.040200
     64 H222       -4.0580    2.8260   -4.1330 h1        1 852      0.040200
     65 H241       -3.5560   -1.4110   -0.9950 hc        1 852      0.065700
     66 H242       -5.3630   -1.3620   -0.9680 hc        1 852      0.065700
     67 H251       -5.4270   -1.1520   -3.4800 hc        1 852      0.030700
     68 H252       -4.7450   -2.7100   -2.8520 hc        1 852      0.030700
     69 H26        -3.3290    5.0630   -4.2750 ha        1 852      0.131000
     70 H27        -1.8920    6.8450   -3.3330 ha        1 852      0.175000
     71 H29         0.7580    3.8180   -1.6600 ha        1 852      0.175000
     72 H30        -0.6500    2.0630   -2.6560 ha        1 852      0.131000
     73 H32         1.0200    5.2590   -0.1630 ha        1 852      0.187000
     74 H33         2.4090    7.0630    0.8140 ha        1 852      0.114500
     75 H34         2.5910    9.3080   -0.2860 ha        1 852      0.093000
     76 H35         1.3670    9.7430   -2.4160 ha        1 852      0.114500
     77 H36        -0.0300    7.9630   -3.4340 ha        1 852      0.187000
     78 H40         0.4300    1.4720    2.1140 hc        1 852      0.089700
@<TRIPOS>BOND
     1    1    2 ar  
     2    1    6 ar  
     3    1    7 1   
     4    2    3 ar  
     5    2   47 1   
     6    3    4 ar  
     7    3   48 1   
     8    4    5 ar  
     9    4   40 1   
    10    5    6 ar  
    11    5   37 1   
    12    6   49 1   
    13    7    8 1   
    14    7   50 1   
    15    7   51 1   
    16    8    9 1   
    17    8   12 1   
    18    8   52 1   
    19    9   10 1   
    20    9   11 2   
    21   10   16 1   
    22   10   53 1   
    23   12   13 1   
    24   12   54 1   
    25   13   14 2   
    26   13   15 1   
    27   15   55 1   
    28   15   56 1   
    29   15   57 1   
    30   16   17 1   
    31   16   25 1   
    32   16   58 1   
    33   17   18 1   
    34   17   19 2   
    35   18   20 1   
    36   18   22 1   
    37   20   21 1   
    38   20   59 1   
    39   20   60 1   
    40   21   24 1   
    41   21   61 1   
    42   21   62 1   
    43   22   23 1   
    44   22   63 1   
    45   22   64 1   
    46   23   26 ar  
    47   23   30 ar  
    48   24   25 1   
    49   24   65 1   
    50   24   66 1   
    51   25   67 1   
    52   25   68 1   
    53   26   27 ar  
    54   26   69 1   
    55   27   28 ar  
    56   27   70 1   
    57   28   29 ar  
    58   28   31 1   
    59   29   30 ar  
    60   29   71 1   
    61   30   72 1   
    62   31   32 ar  
    63   31   36 ar  
    64   32   33 ar  
    65   32   73 1   
    66   33   34 ar  
    67   33   74 1   
    68   34   35 ar  
    69   34   75 1   
    70   35   36 ar  
    71   35   76 1   
    72   36   77 1   
    73   37   38 1   
    74   37   39 1   
    75   40   41 1   
    76   40   44 1   
    77   40   78 1   
    78   41   42 1   
    79   41   43 1   
    80   44   45 1   
    81   44   46 1   
@<TRIPOS>SUBSTRUCTURE
     1 852         1 TEMP              0 ****  ****    0 ROOT
