@<TRIPOS>MOLECULE
852
   78    81     1     0     0
SMALL
bcc


@<TRIPOS>ATOM
      1 C1         -1.0560    2.2990   -0.7110 ca        1 852     -0.182300
      2 C2          0.2400    2.4370   -1.2390 ca        1 852     -0.172000
      3 C3          0.8160    1.4080   -1.9670 ca        1 852     -0.076000
      4 C4          0.1400    0.1890   -2.2020 ca        1 852      0.041700
      5 C5         -1.1500    0.0420   -1.6670 ca        1 852     -0.122600
      6 C6         -1.7260    1.1020   -0.9440 ca        1 852     -0.170000
      7 C7         -1.6030    3.4500    0.0590 c3        1 852     -0.007100
      8 C8         -3.1020    3.3580    0.3750 c3        1 852      0.027700
      9 C9         -3.3820    2.6630    1.7370 c         1 852      0.633100
     10 N10        -2.6180    1.5840    2.0940 n         1 852     -0.526900
     11 O11        -4.3120    3.0790    2.4770 o         1 852     -0.699100
     12 N12        -3.8180    4.6180    0.2790 n         1 852     -0.506900
     13 C13        -3.3640    5.8200    0.8080 c         1 852      0.646100
     14 O14        -2.1790    6.0600    1.1080 o         1 852     -0.598100
     15 C15        -4.4010    6.9240    0.9260 c3        1 852     -0.182100
     16 C16        -2.9100    0.8420    3.2950 c3        1 852      0.052700
     17 C17        -1.6490    0.2360    3.9490 c         1 852      0.687500
     18 N18        -0.8780   -0.7080    3.3140 n         1 852     -0.435800
     19 O19        -1.3600    0.6470    5.1010 o         1 852     -0.716500
     20 C20        -1.3130   -1.4410    2.1380 c3        1 852      0.062000
     21 C21        -2.6520   -2.1610    2.2610 c3        1 852     -0.083400
     22 C22         0.2760   -1.2160    4.0350 c3        1 852      0.140300
     23 C23         1.4680   -1.6220    3.2200 ca        1 852     -0.110300
     24 C24        -3.8260   -1.2330    2.0630 c3        1 852     -0.090400
     25 C25        -4.0050   -0.2250    3.1710 c3        1 852     -0.091400
     26 C26         2.3400   -2.5720    3.7740 ca        1 852     -0.137500
     27 C27         3.4700   -2.9830    3.0760 ca        1 852     -0.113500
     28 C28         3.7520   -2.4620    1.8040 cp        1 852     -0.044000
     29 C29         2.8820   -1.5100    1.2520 ca        1 852     -0.113500
     30 C30         1.7580   -1.0880    1.9640 ca        1 852     -0.137500
     31 C31         4.9170   -2.9180    1.0470 cp        1 852     -0.034000
     32 C32         4.8770   -2.9490   -0.3580 ca        1 852     -0.110500
     33 C33         5.9940   -3.3960   -1.0680 ca        1 852     -0.157000
     34 C34         7.1470   -3.8070   -0.4020 ca        1 852     -0.160000
     35 C35         7.1920   -3.7690    0.9910 ca        1 852     -0.157000
     36 C36         6.0850   -3.3250    1.7100 ca        1 852     -0.110500
     37 C37        -2.0430   -1.1840   -1.7270 c         1 852      0.921200
     38 O38        -2.4720   -1.6380   -2.8200 o         1 852     -0.863300
     39 O39        -2.4360   -1.6540   -0.6040 o         1 852     -0.863300
     40 C40         0.8710   -0.8510   -2.9850 c3        1 852     -0.234400
     41 C41         2.1060   -1.3380   -2.2100 c         1 852      0.933100
     42 O42         2.2960   -2.5860   -2.0470 o         1 852     -0.881300
     43 O43         2.9380   -0.5230   -1.6870 o         1 852     -0.881300
     44 C76         1.2950   -0.3480   -4.3930 c         1 852      0.933100
     45 O78         1.3250   -1.1880   -5.3420 o         1 852     -0.881300
     46 O79         1.5860    0.8720   -4.5900 o         1 852     -0.881300
     47 H2          0.7950    3.3710   -1.0730 ha        1 852      0.088000
     48 H3          1.8320    1.5020   -2.3960 ha        1 852      0.191000
     49 H6         -2.7470    0.9300   -0.5670 ha        1 852      0.095000
     50 H71        -1.4130    4.3860   -0.5400 hc        1 852      0.052200
     51 H72        -1.0320    3.5780    1.0180 hc        1 852      0.052200
     52 H8         -3.5900    2.6970   -0.4100 h1        1 852      0.105700
     53 H10        -1.9740    1.1940    1.4320 hn        1 852      0.367500
     54 H12        -4.8050    4.4870    0.3710 hn        1 852      0.287500
     55 H151       -3.8920    7.8640    1.2460 hc        1 852      0.050033
     56 H152       -4.9060    7.0990   -0.0540 hc        1 852      0.050033
     57 H153       -5.1660    6.6460    1.6890 hc        1 852      0.050033
     58 H16        -3.2910    1.5980    4.0580 h1        1 852      0.083700
     59 H201       -0.5260   -2.2160    1.9030 h1        1 852      0.104700
     60 H202       -1.3580   -0.7640    1.2280 h1        1 852      0.104700
     61 H211       -2.7360   -2.7080    3.2350 hc        1 852      0.050700
     62 H212       -2.6700   -2.9070    1.4160 hc        1 852      0.050700
     63 H221       -0.0560   -2.1060    4.6510 h1        1 852      0.040200
     64 H222        0.6200   -0.4170    4.7590 h1        1 852      0.040200
     65 H241       -4.7640   -1.8490    2.0000 hc        1 852      0.065700
     66 H242       -3.6990   -0.7310    1.0600 hc        1 852      0.065700
     67 H251       -4.0640   -0.7530    4.1600 hc        1 852      0.030700
     68 H252       -4.9800    0.3130    3.0150 hc        1 852      0.030700
     69 H26         2.1210   -3.0030    4.7610 ha        1 852      0.131000
     70 H27         4.1300   -3.7420    3.5180 ha        1 852      0.175000
     71 H29         3.0500   -1.1120    0.2170 ha        1 852      0.175000
     72 H30         1.0900   -0.3470    1.4930 ha        1 852      0.131000
     73 H32         3.9580   -2.6140   -0.9250 ha        1 852      0.187000
     74 H33         5.9480   -3.4120   -2.1680 ha        1 852      0.114500
     75 H34         8.0200   -4.1560   -0.9700 ha        1 852      0.093000
     76 H35         8.1000   -4.0830    1.5220 ha        1 852      0.114500
     77 H36         6.1340   -3.2850    2.8080 ha        1 852      0.187000
     78 H40         0.1940   -1.7370   -3.1460 hc        1 852      0.089700
@<TRIPOS>BOND
     1    1    2 ar  
     2    1    6 ar  
     3    1    7 1   
     4    2    3 ar  
     5    2   47 1   
     6    3    4 ar  
     7    3   48 1   
     8    4    5 ar  
     9    4   40 1   
    10    5    6 ar  
    11    5   37 1   
    12    6   49 1   
    13    7    8 1   
    14    7   50 1   
    15    7   51 1   
    16    8    9 1   
    17    8   12 1   
    18    8   52 1   
    19    9   10 1   
    20    9   11 2   
    21   10   16 1   
    22   10   53 1   
    23   12   13 1   
    24   12   54 1   
    25   13   14 2   
    26   13   15 1   
    27   15   55 1   
    28   15   56 1   
    29   15   57 1   
    30   16   17 1   
    31   16   25 1   
    32   16   58 1   
    33   17   18 1   
    34   17   19 2   
    35   18   20 1   
    36   18   22 1   
    37   20   21 1   
    38   20   59 1   
    39   20   60 1   
    40   21   24 1   
    41   21   61 1   
    42   21   62 1   
    43   22   23 1   
    44   22   63 1   
    45   22   64 1   
    46   23   26 ar  
    47   23   30 ar  
    48   24   25 1   
    49   24   65 1   
    50   24   66 1   
    51   25   67 1   
    52   25   68 1   
    53   26   27 ar  
    54   26   69 1   
    55   27   28 ar  
    56   27   70 1   
    57   28   29 ar  
    58   28   31 1   
    59   29   30 ar  
    60   29   71 1   
    61   30   72 1   
    62   31   32 ar  
    63   31   36 ar  
    64   32   33 ar  
    65   32   73 1   
    66   33   34 ar  
    67   33   74 1   
    68   34   35 ar  
    69   34   75 1   
    70   35   36 ar  
    71   35   76 1   
    72   36   77 1   
    73   37   38 1   
    74   37   39 1   
    75   40   41 1   
    76   40   44 1   
    77   40   78 1   
    78   41   42 1   
    79   41   43 1   
    80   44   45 1   
    81   44   46 1   
@<TRIPOS>SUBSTRUCTURE
     1 852         1 TEMP              0 ****  ****    0 ROOT
