@<TRIPOS>MOLECULE
852
   80    83     1     0     0
SMALL
bcc


@<TRIPOS>ATOM
      1 C1          0.0000    0.0000    0.0000 ca        1 852     -0.202300
      2 C2          1.3830    0.0000    0.0000 ca        1 852     -0.189000
      3 C3          2.0810    0.0000    1.1950 ca        1 852     -0.020000
      4 C4          1.4020   -0.0000    2.3940 ca        1 852      0.018700
      5 C5          0.0060   -0.0010    2.4020 ca        1 852     -0.057600
      6 C6         -0.6920    0.0030    1.1920 ca        1 852     -0.089000
      7 C7         -0.7510    0.0000   -1.3050 c3        1 852      0.017900
      8 C8         -1.0050   -1.4430   -1.7480 c3        1 852     -0.022500
      9 C9         -1.7570   -1.4430   -3.0530 c         1 852     -0.036900
     10 N10        -3.1050   -1.4430   -3.0550 ny        1 852      0.188200
     11 O11        -1.1490   -1.4410   -4.1030 o         1 852     -0.663100
     12 N12         0.2750   -2.1320   -1.9220 ny        1 852      0.136200
     13 C13         1.1740   -1.6700   -2.8140 c         1 852      0.320100
     14 O14         0.9210   -0.6850   -3.4740 o         1 852     -0.406100
     15 C15         2.4910   -2.3800   -2.9940 c3        1 852     -0.063100
     16 C16        -3.8350   -1.4440   -4.3250 c3        1 852     -0.098500
     17 C17        -3.8180   -0.0520   -4.9220 c         1 852      0.629500
     18 N18        -4.1380    1.0030   -4.1670 n         1 852     -0.142800
     19 O19        -3.5190    0.1070   -6.0860 o         1 852     -0.630500
     20 C20        -4.4980    0.8260   -2.7510 c3        1 852     -0.001000
     21 C21        -5.8830    0.1800   -2.6750 c3        1 852     -0.054400
     22 C22        -4.1290    2.3460   -4.7540 c3        1 852      0.120300
     23 C23        -2.7610    2.9540   -4.5900 ca        1 852     -0.154300
     24 C24        -5.7780   -1.3320   -2.7420 c3        1 852     -0.054400
     25 C25        -5.2900   -1.8520   -4.0810 c3        1 852     -0.031400
     26 C26        -2.4700    3.7020   -3.4630 ca        1 852     -0.080000
     27 C27        -1.2170    4.2580   -3.3040 ca        1 852     -0.091000
     28 C28        -0.2470    4.0750   -4.2890 cp        1 852     -0.011000
     29 C29        -0.5480    3.3270   -5.4240 ca        1 852     -0.091000
     30 C30        -1.8020    2.7690   -5.5700 ca        1 852     -0.080000
     31 C31         1.1000    4.6760   -4.1280 cp        1 852     -0.042000
     32 C32         2.2340    3.9600   -4.5030 ca        1 852     -0.087500
     33 C33         3.4840    4.5260   -4.3570 ca        1 852     -0.099000
     34 C34         3.6130    5.7960   -3.8260 ca        1 852     -0.094000
     35 C35         2.4910    6.5090   -3.4450 ca        1 852     -0.099000
     36 C36         1.2360    5.9560   -3.5930 ca        1 852     -0.087500
     37 C37        -0.7290   -0.0020    3.6830 c         1 852      0.967200
     38 O38        -1.8490    0.7330    3.8180 o         1 852     -0.865800
     39 O39        -0.3230   -0.6660    4.6160 o         1 852     -0.865800
     40 C40         2.1650   -0.0010    3.6950 c3        1 852     -0.170400
     41 C41         3.1260    1.1590    3.7130 c         1 852      1.009600
     42 O42         3.9160    1.3590    4.7790 o         1 852     -0.718800
     43 O43         3.1860    1.9080    2.7660 o         1 852     -0.718800
     44 C76         2.9300   -1.2900    3.8280 c         1 852      1.009600
     45 O78         3.6860   -1.5130    4.9150 o         1 852     -0.718800
     46 O79         2.8650   -2.1240    2.9570 o         1 852     -0.718800
     47 H2          1.9220    0.0340   -0.9390 ha        1 852      0.080000
     48 H3          3.1640    0.0020    1.1870 ha        1 852      0.126000
     49 H6         -1.7730    0.0850    1.1910 ha        1 852      0.112000
     50 H71        -1.6980    0.5100   -1.1770 hc        1 852      0.046700
     51 H72        -0.1650    0.5110   -2.0600 hc        1 852      0.046700
     52 H8         -1.5910   -1.9540   -0.9940 hx        1 852      0.052700
     53 H10        -3.3960   -2.2580   -2.5510 hn        1 852      0.212300
     54 H12         0.7270   -2.1370   -1.0290 hn        1 852      0.255300
     55 H151        2.3910   -3.1370   -3.7620 hc        1 852      0.040367
     56 H152        2.7790   -2.8490   -2.0610 hc        1 852      0.040367
     57 H153        3.2490   -1.6650   -3.2880 hc        1 852      0.040367
     58 H16        -3.3750   -2.1400   -5.0150 hx        1 852      0.113700
     59 H201       -3.7710    0.1840   -2.2690 h1        1 852      0.054200
     60 H202       -4.5210    1.7910   -2.2590 h1        1 852      0.054200
     61 H211       -6.3550    0.4620   -1.7410 hc        1 852      0.041200
     62 H212       -6.4840    0.5310   -3.5040 hc        1 852      0.041200
     63 H221       -4.3710    2.2820   -5.8080 h1        1 852      0.036200
     64 H222       -4.8620    2.9650   -4.2520 h1        1 852      0.036200
     65 H241       -5.0900   -1.6640   -1.9730 hc        1 852      0.025200
     66 H242       -6.7560   -1.7540   -2.5440 hc        1 852      0.025200
     67 H251       -5.3620   -2.9330   -4.0900 hc        1 852      0.042200
     68 H252       -5.9110   -1.4420   -4.8690 hc        1 852      0.042200
     69 H26        -3.2240    3.8440   -2.6980 ha        1 852      0.111500
     70 H27        -1.0080    4.8890   -2.4490 ha        1 852      0.116000
     71 H29         0.1820    3.2310   -6.2190 ha        1 852      0.116000
     72 H30        -2.0490    2.2200   -6.4710 ha        1 852      0.111500
     73 H32         2.1340    2.9650   -4.9200 ha        1 852      0.108500
     74 H33         4.3650    3.9740   -4.6600 ha        1 852      0.101500
     75 H34         4.5970    6.2350   -3.7100 ha        1 852      0.101000
     76 H35         2.5980    7.5040   -3.0300 ha        1 852      0.101500
     77 H36         0.3550    6.5420   -3.3610 ha        1 852      0.108500
     78 H40         1.4700    0.0940    4.5200 hc        1 852      0.136700
     79 H102       -3.3970   -0.6300   -2.5510 hn        1 852      0.212300
     80 H122        0.0650   -3.0740   -2.1860 hn        1 852      0.255300
@<TRIPOS>BOND
     1    1    2 ar  
     2    1    6 ar  
     3    1    7 1   
     4    2    3 ar  
     5    2   47 1   
     6    3    4 ar  
     7    3   48 1   
     8    4    5 ar  
     9    4   40 1   
    10    5    6 ar  
    11    5   37 1   
    12    6   49 1   
    13    7    8 1   
    14    7   50 1   
    15    7   51 1   
    16    8    9 1   
    17    8   12 1   
    18    8   52 1   
    19    9   10 1   
    20    9   11 2   
    21   10   16 1   
    22   10   53 1   
    23   10   79 1   
    24   12   13 1   
    25   12   54 1   
    26   12   80 1   
    27   13   14 2   
    28   13   15 1   
    29   15   55 1   
    30   15   56 1   
    31   15   57 1   
    32   16   17 1   
    33   16   25 1   
    34   16   58 1   
    35   17   18 1   
    36   17   19 2   
    37   18   20 1   
    38   18   22 1   
    39   20   21 1   
    40   20   59 1   
    41   20   60 1   
    42   21   24 1   
    43   21   61 1   
    44   21   62 1   
    45   22   23 1   
    46   22   63 1   
    47   22   64 1   
    48   23   26 ar  
    49   23   30 ar  
    50   24   25 1   
    51   24   65 1   
    52   24   66 1   
    53   25   67 1   
    54   25   68 1   
    55   26   27 ar  
    56   26   69 1   
    57   27   28 ar  
    58   27   70 1   
    59   28   29 ar  
    60   28   31 1   
    61   29   30 ar  
    62   29   71 1   
    63   30   72 1   
    64   31   32 ar  
    65   31   36 ar  
    66   32   33 ar  
    67   32   73 1   
    68   33   34 ar  
    69   33   74 1   
    70   34   35 ar  
    71   34   75 1   
    72   35   36 ar  
    73   35   76 1   
    74   36   77 1   
    75   37   38 1   
    76   37   39 1   
    77   40   41 1   
    78   40   44 1   
    79   40   78 1   
    80   41   42 1   
    81   41   43 1   
    82   44   45 1   
    83   44   46 1   
@<TRIPOS>SUBSTRUCTURE
     1 852         1 TEMP              0 ****  ****    0 ROOT
