@<TRIPOS>MOLECULE
853
   76    79     1     0     0
SMALL
bcc


@<TRIPOS>ATOM
      1 C1         -0.9160    1.4650   -2.0150 ca        1 853     -0.165300
      2 C2         -2.1060    1.3900   -2.7480 ca        1 853     -0.166000
      3 C3         -2.5740    0.1610   -3.2000 ca        1 853     -0.142000
      4 C4         -1.8610   -1.0230   -2.9540 ca        1 853     -0.001300
      5 C5         -0.6160   -0.9400   -2.3080 ca        1 853     -0.123600
      6 C6         -0.1660    0.2960   -1.8340 ca        1 853     -0.131000
      7 C10        -0.4050    2.7450   -1.4530 c3        1 853     -0.021100
      8 C11        -1.4880    3.5860   -0.7660 c3        1 853      0.031700
      9 C14        -1.9770    3.0310    0.6040 c         1 853      0.631100
     10 N15        -1.9220    1.6850    0.8470 n         1 853     -0.520900
     11 O16        -2.4610    3.8340    1.4420 o         1 853     -0.680100
     12 N17        -1.1740    5.0010   -0.6600 n         1 853     -0.520900
     13 C18         0.1010    5.5120   -0.4380 c         1 853      0.643100
     14 O19         1.1550    4.9040   -0.7050 o         1 853     -0.593100
     15 C20         0.1640    6.9400    0.0670 c3        1 853     -0.182100
     16 C24        -2.6510    1.0940    1.9430 c3        1 853      0.039700
     17 C25        -1.8320    0.0350    2.7160 c         1 853      0.691500
     18 N26        -1.4690   -1.1620    2.1460 n         1 853     -0.442800
     19 O27        -1.5520    0.2940    3.9120 o         1 853     -0.701500
     20 C28        -1.8640   -1.5870    0.8150 c3        1 853      0.059000
     21 C29        -3.3640   -1.7170    0.5800 c3        1 853     -0.115400
     22 C32        -0.7090   -2.1030    2.9420 c3        1 853      0.141300
     23 C33         0.7870   -1.9570    2.8600 ca        1 853     -0.093300
     24 C36        -4.0600   -0.3940    0.3730 c3        1 853     -0.084400
     25 C39        -4.0260    0.5190    1.5750 c3        1 853     -0.094400
     26 C46         1.4600   -2.1550    1.6510 ca        1 853     -0.116500
     27 C47         2.8520   -2.0720    1.6060 ca        1 853     -0.126500
     28 C48         3.5900   -1.7930    2.7650 cp        1 853     -0.074000
     29 C49         2.9060   -1.5820    3.9720 ca        1 853     -0.126500
     30 C50         1.5170   -1.6590    4.0160 ca        1 853     -0.116500
     31 C55         5.0480   -1.7240    2.7210 cp        1 853      0.000000
     32 C56         5.7460   -0.7880    3.4990 ca        1 853     -0.124500
     33 C57         7.1370   -0.7310    3.4590 ca        1 853     -0.137500
     34 C58         7.8530   -1.6060    2.6430 ca        1 853     -0.152000
     35 C59         7.1680   -2.5370    1.8610 ca        1 853     -0.137500
     36 C60         5.7770   -2.5980    1.8980 ca        1 853     -0.124500
     37 C68         0.2780   -2.1470   -2.0820 c         1 853      0.919200
     38 O69         0.0410   -2.8970   -1.0850 o         1 853     -0.844800
     39 O70         1.2500   -2.3350   -2.8640 o         1 853     -0.844800
     40 C71        -2.4430   -2.3280   -3.3630 c3        1 853     -0.166100
     41 C72        -3.9790   -2.3550   -3.2890 c         1 853      0.907600
     42 O75        -4.5300   -2.8420   -2.2570 o         1 853     -0.864300
     43 O76        -4.6460   -1.9080   -4.2710 o         1 853     -0.864300
     44 H2         -2.6820    2.2980   -2.9720 ha        1 853      0.097000
     45 H3         -3.5320    0.0890   -3.7470 ha        1 853      0.168000
     46 H6          0.8000    0.3420   -1.3090 ha        1 853      0.126000
     47 H101        0.0400    3.3480   -2.2930 hc        1 853      0.066700
     48 H102        0.4260    2.5500   -0.7230 hc        1 853      0.066700
     49 H11        -2.4250    3.5480   -1.4110 h1        1 853      0.081700
     50 H15        -1.6070    1.0710    0.1220 hn        1 853      0.352500
     51 H17        -1.8970    5.4950   -0.1730 hn        1 853      0.298500
     52 H201        1.2300    7.2690    0.0880 hc        1 853      0.056033
     53 H202       -0.4150    7.6230   -0.5990 hc        1 853      0.056033
     54 H203       -0.2540    6.9960    1.1010 hc        1 853      0.056033
     55 H24        -2.8320    1.9200    2.7060 h1        1 853      0.097700
     56 H281       -1.3850   -2.5910    0.5970 h1        1 853      0.093700
     57 H282       -1.4170   -0.8930    0.0440 h1        1 853      0.093700
     58 H291       -3.8480   -2.2770    1.4210 hc        1 853      0.081700
     59 H292       -3.5030   -2.3270   -0.3670 hc        1 853      0.081700
     60 H321       -0.9690   -3.1490    2.6040 h1        1 853      0.055700
     61 H322       -1.0250   -1.9960    4.0210 h1        1 853      0.055700
     62 H361       -5.1360   -0.6040    0.1200 hc        1 853      0.057200
     63 H362       -3.6220    0.1150   -0.5290 hc        1 853      0.057200
     64 H391       -4.4080   -0.0310    2.4760 hc        1 853      0.036700
     65 H392       -4.7180    1.3840    1.3890 hc        1 853      0.036700
     66 H46         0.8950   -2.3790    0.7170 ha        1 853      0.176500
     67 H47         3.3640   -2.2180    0.6420 ha        1 853      0.129000
     68 H49         3.4690   -1.3580    4.8880 ha        1 853      0.129000
     69 H50         0.9890   -1.4700    4.9630 ha        1 853      0.176500
     70 H56         5.1850   -0.0850    4.1330 ha        1 853      0.141000
     71 H57         7.6710    0.0110    4.0690 ha        1 853      0.118000
     72 H58         8.9490   -1.5590    2.6100 ha        1 853      0.113000
     73 H59         7.7260   -3.2240    1.2090 ha        1 853      0.118000
     74 H60         5.2400   -3.3300    1.2760 ha        1 853      0.141000
     75 H711       -2.1380   -2.5430   -4.4210 hc        1 853      0.059200
     76 H712       -2.0300   -3.1390   -2.7050 hc        1 853      0.059200
@<TRIPOS>BOND
     1    1    2 ar  
     2    1    6 ar  
     3    1    7 1   
     4    2    3 ar  
     5    2   44 1   
     6    3    4 ar  
     7    3   45 1   
     8    4    5 ar  
     9    4   40 1   
    10    5    6 ar  
    11    5   37 1   
    12    6   46 1   
    13    7    8 1   
    14    7   47 1   
    15    7   48 1   
    16    8    9 1   
    17    8   12 1   
    18    8   49 1   
    19    9   10 1   
    20    9   11 2   
    21   10   16 1   
    22   10   50 1   
    23   12   13 1   
    24   12   51 1   
    25   13   14 2   
    26   13   15 1   
    27   15   52 1   
    28   15   53 1   
    29   15   54 1   
    30   16   17 1   
    31   16   25 1   
    32   16   55 1   
    33   17   18 1   
    34   17   19 2   
    35   18   20 1   
    36   18   22 1   
    37   20   21 1   
    38   20   56 1   
    39   20   57 1   
    40   21   24 1   
    41   21   58 1   
    42   21   59 1   
    43   22   23 1   
    44   22   60 1   
    45   22   61 1   
    46   23   26 ar  
    47   23   30 ar  
    48   24   25 1   
    49   24   62 1   
    50   24   63 1   
    51   25   64 1   
    52   25   65 1   
    53   26   27 ar  
    54   26   66 1   
    55   27   28 ar  
    56   27   67 1   
    57   28   29 ar  
    58   28   31 1   
    59   29   30 ar  
    60   29   68 1   
    61   30   69 1   
    62   31   32 ar  
    63   31   36 ar  
    64   32   33 ar  
    65   32   70 1   
    66   33   34 ar  
    67   33   71 1   
    68   34   35 ar  
    69   34   72 1   
    70   35   36 ar  
    71   35   73 1   
    72   36   74 1   
    73   37   38 1   
    74   37   39 1   
    75   40   41 1   
    76   40   75 1   
    77   40   76 1   
    78   41   42 1   
    79   41   43 1   
@<TRIPOS>SUBSTRUCTURE
     1 853         1 TEMP              0 ****  ****    0 ROOT
