@<TRIPOS>MOLECULE
853
   76    70     1     0     0
SMALL
bcc


@<TRIPOS>ATOM
      1 C1          2.0090   -4.1420    3.5450 c1        1 853     -0.177000
      2 C2          2.5060   -3.8910    4.8150 c1        1 853     -0.141167
      3 C3          3.3730   -4.8000    5.4160 c1        1 853     -0.141167
      4 C4          3.7410   -5.9580    4.7440 c1        1 853      0.024000
      5 C5          3.2430   -6.2100    3.4730 c1        1 853     -0.107000
      6 C6          2.3770   -5.3030    2.8720 c1        1 853     -0.108000
      7 C10         0.9180   -3.2220    2.9510 c3        1 853     -0.100000
      8 C11         1.5050   -2.4130    1.8050 c3        1 853      0.008000
      9 C14         0.3710   -1.7910    0.9830 c2        1 853      0.305000
     10 N15         0.6490   -0.6790    0.0870 n         1 853     -0.373000
     11 O16        -0.7330   -2.2740    1.0160 o         1 853     -0.389000
     12 N17         2.3260   -1.3900    2.3230 n         1 853     -0.342000
     13 C18         3.6000   -1.1260    1.7280 c2        1 853      0.310000
     14 O19         3.8980   -1.6500    0.6710 o         1 853     -0.423000
     15 C20         4.5630   -0.1890    2.4000 c3        1 853     -0.247000
     16 C24        -0.4790   -0.1120   -0.8290 c3        1 853      0.018000
     17 C25        -1.0070    0.8860   -0.2820 c2        1 853      0.263000
     18 N26        -1.9670    1.3060   -1.0230 n         1 853     -0.318000
     19 O27        -1.0430    0.9890    0.9240 o         1 853     -0.258000
     20 C28        -2.8090    1.7300   -0.3870 c3        1 853     -0.050000
     21 C29        -3.7180    0.5930    0.1220 c3        1 853     -0.193000
     22 C32        -1.8960    1.4220   -2.4670 c3        1 853     -0.015000
     23 C33        -2.1050    2.9080   -2.8790 c2        1 853     -0.066000
     24 C36        -2.7890   -0.9410    0.3200 c3        1 853     -0.168000
     25 C39        -1.6090   -1.1450   -0.9610 c3        1 853     -0.148000
     26 C46        -1.3540    3.3300   -3.9760 c2        1 853     -0.104000
     27 C47        -1.6680    4.5290   -4.6170 c1        1 853     -0.123000
     28 C48        -2.7320    5.3060   -4.1600 c1        1 853     -0.038000
     29 C49        -3.4820    4.8840   -3.0640 c1        1 853     -0.123000
     30 C50        -3.1680    3.6830   -2.4230 c1        1 853     -0.131000
     31 C55        -3.0870    6.4880   -4.8450 c1        1 853     -0.038000
     32 C56        -2.1000    7.3700   -5.2660 c1        1 853     -0.141167
     33 C57        -2.4520    8.5590   -5.8920 c1        1 853     -0.141167
     34 C58        -3.7920    8.8670   -6.0960 c1        1 853     -0.141167
     35 C59        -4.7780    7.9860   -5.6750 c1        1 853     -0.141167
     36 C60        -4.4270    6.7960   -5.0490 c1        1 853     -0.123000
     37 C68         3.6580   -7.4610    2.7360 c2        1 853      0.361000
     38 O69         4.7460   -7.4880    2.1110 o         1 853     -0.579500
     39 O70         2.9340   -8.4930    2.7870 o         1 853     -0.579500
     40 C71         4.6010   -7.0070    5.4490 c3        1 853     -0.190000
     41 C72         6.0300   -6.8850    4.9770 c2        1 853      0.322000
     42 O75         6.9170   -6.4540    5.7620 o         1 853     -0.605500
     43 O76         6.3470   -7.2760    3.8260 o         1 853     -0.605500
     44 H2          2.2000   -3.1120    5.3100 ha        1 853      0.129833
     45 H3          3.7410   -4.6120    6.3010 ha        1 853      0.129833
     46 H6          2.0020   -5.4960    1.9920 ha        1 853      0.129000
     47 H101        0.5910   -2.6170    3.6410 hc        1 853      0.091000
     48 H102        0.1740   -3.7700    2.6170 hc        1 853      0.091000
     49 H11         2.0410   -3.0030    1.2310 h1        1 853      0.126000
     50 H15         1.4810   -0.2930    0.0800 hn        1 853      0.265000
     51 H17         2.0720   -0.9400    3.0740 hn        1 853      0.247000
     52 H201        5.2720   -0.7080    2.8400 hc        1 853      0.113667
     53 H202        4.0900    0.3410    3.0650 hc        1 853      0.113667
     54 H203        4.9620    0.4060    1.7300 hc        1 853      0.113667
     55 H24         0.0220    0.0720   -1.6500 h1        1 853      0.094000
     56 H281       -3.3410    2.3530   -0.9270 h1        1 853      0.097000
     57 H282       -2.4300    2.2070    0.3770 h1        1 853      0.097000
     58 H291       -4.4450    0.4480   -0.5220 hc        1 853      0.075500
     59 H292       -4.1020    0.8510    0.9880 hc        1 853      0.075500
     60 H321       -2.5950    0.8690   -2.8740 h1        1 853      0.083500
     61 H322       -1.0220    1.1190   -2.7750 h1        1 853      0.083500
     62 H361       -3.4110   -1.6960    0.3050 hc        1 853      0.106500
     63 H362       -2.3270   -0.9260    1.1800 hc        1 853      0.106500
     64 H391       -2.0520   -1.0300   -1.8290 hc        1 853      0.092000
     65 H392       -1.2300   -2.0430   -0.9100 hc        1 853      0.092000
     66 H46        -0.6130    2.7890   -4.2950 ha        1 853      0.158000
     67 H47        -1.1440    4.8230   -5.3830 ha        1 853      0.132000
     68 H49        -4.2260    5.4270   -2.7440 ha        1 853      0.131500
     69 H50        -3.6920    3.3890   -1.6580 ha        1 853      0.132000
     70 H56        -1.1640    7.1760   -5.0820 ha        1 853      0.129833
     71 H57        -1.7560    9.1560   -6.2330 ha        1 853      0.129833
     72 H58        -4.0410    9.7240   -6.4990 ha        1 853      0.129833
     73 H59        -5.7170    8.1880   -5.8460 ha        1 853      0.129833
     74 H60        -5.2870    6.3400   -5.1160 ha        1 853      0.131500
     75 H711        4.5630   -6.8630    6.4190 hc        1 853      0.101500
     76 H712        4.2640   -7.9000    5.2380 hc        1 853      0.101500
@<TRIPOS>BOND
     1    1    6 1   
     2    1    7 1   
     3    2    3 1   
     4    2   44 1   
     5    3   45 1   
     6    4    5 1   
     7    4   40 1   
     8    5   37 1   
     9    6   46 1   
    10    7    8 1   
    11    7   47 1   
    12    7   48 1   
    13    8    9 1   
    14    8   12 1   
    15    8   49 1   
    16    9   10 1   
    17    9   11 1   
    18   10   16 1   
    19   10   50 1   
    20   12   13 1   
    21   12   51 1   
    22   13   14 1   
    23   13   15 1   
    24   15   52 1   
    25   15   53 1   
    26   15   54 1   
    27   16   17 1   
    28   16   25 1   
    29   16   55 1   
    30   17   18 1   
    31   17   19 1   
    32   18   20 1   
    33   18   22 1   
    34   20   21 1   
    35   20   56 1   
    36   20   57 1   
    37   21   24 1   
    38   21   58 1   
    39   21   59 1   
    40   22   23 1   
    41   22   60 1   
    42   22   61 1   
    43   23   26 1   
    44   23   30 1   
    45   24   25 1   
    46   24   62 1   
    47   24   63 1   
    48   25   64 1   
    49   25   65 1   
    50   26   27 1   
    51   26   66 1   
    52   27   67 1   
    53   28   29 1   
    54   29   68 1   
    55   30   69 1   
    56   31   36 1   
    57   32   33 1   
    58   32   70 1   
    59   33   71 1   
    60   34   35 1   
    61   34   72 1   
    62   35   73 1   
    63   36   74 1   
    64   37   38 1   
    65   37   39 1   
    66   40   41 1   
    67   40   75 1   
    68   40   76 1   
    69   41   42 1   
    70   41   43 1   
@<TRIPOS>SUBSTRUCTURE
     1 853         1 TEMP              0 ****  ****    0 ROOT
