@<TRIPOS>MOLECULE
853
   76    79     1     0     0
SMALL
bcc


@<TRIPOS>ATOM
      1 C1          0.6070   -0.7530   -0.1580 ca        1 853     -0.165300
      2 C2          0.1740   -1.6190    0.8530 ca        1 853     -0.166000
      3 C3         -0.6930   -1.1660    1.8410 ca        1 853     -0.142000
      4 C4         -1.1370    0.1660    1.8630 ca        1 853     -0.001300
      5 C5         -0.6250    1.0640    0.9100 ca        1 853     -0.123600
      6 C6          0.2250    0.5930   -0.0950 ca        1 853     -0.131000
      7 C10         1.4820   -1.2040   -1.2750 c3        1 853     -0.021100
      8 C11         1.0480   -2.5400   -1.8900 c3        1 853      0.031700
      9 C14        -0.2430   -2.4710   -2.7590 c         1 853      0.631100
     10 N15        -1.1890   -1.5190   -2.4900 n         1 853     -0.520900
     11 O16        -0.4080   -3.3290   -3.6630 o         1 853     -0.680100
     12 N17         2.1010   -3.2470   -2.5980 n         1 853     -0.520900
     13 C18         3.1030   -2.6310   -3.3420 c         1 853      0.643100
     14 O19         3.4750   -1.4550   -3.1760 o         1 853     -0.593100
     15 C20         3.8270   -3.5170   -4.3380 c3        1 853     -0.182100
     16 C24        -2.5220   -1.6170   -3.0360 c3        1 853      0.039700
     17 C25        -3.0650   -0.2660   -3.5560 c         1 853      0.691500
     18 N26        -3.3520    0.7770   -2.7090 n         1 853     -0.442800
     19 O27        -3.2820   -0.1780   -4.7900 o         1 853     -0.701500
     20 C28        -3.2490    0.7090   -1.2630 c3        1 853      0.059000
     21 C29        -4.1350   -0.3280   -0.5860 c3        1 853     -0.115400
     22 C32        -3.8650    2.0070   -3.2780 c3        1 853      0.141300
     23 C33        -2.8230    3.0160   -3.6800 ca        1 853     -0.093300
     24 C36        -3.6100   -1.7380   -0.6980 c3        1 853     -0.084400
     25 C39        -3.5580   -2.2700   -2.1100 c3        1 853     -0.094400
     26 C46        -1.9810    3.5950   -2.7250 ca        1 853     -0.116500
     27 C47        -1.0610    4.5700   -3.1080 ca        1 853     -0.126500
     28 C48        -0.9700    4.9840   -4.4440 cp        1 853     -0.074000
     29 C49        -1.8090    4.3890   -5.3980 ca        1 853     -0.126500
     30 C50        -2.7230    3.4110   -5.0190 ca        1 853     -0.116500
     31 C55        -0.0190    6.0190   -4.8400 cp        1 853      0.000000
     32 C56         0.6490    5.9460   -6.0730 ca        1 853     -0.124500
     33 C57         1.5490    6.9400   -6.4490 ca        1 853     -0.137500
     34 C58         1.7990    8.0190   -5.6030 ca        1 853     -0.152000
     35 C59         1.1450    8.0980   -4.3740 ca        1 853     -0.137500
     36 C60         0.2430    7.1070   -3.9930 ca        1 853     -0.124500
     37 C68        -0.9650    2.5440    0.9070 c         1 853      0.919200
     38 O69        -2.0540    2.9140    0.3700 o         1 853     -0.844800
     39 O70        -0.1320    3.3570    1.3960 o         1 853     -0.844800
     40 C71        -2.1410    0.5870    2.8730 c3        1 853     -0.166100
     41 C72        -3.1270   -0.5320    3.2480 c         1 853      0.907600
     42 O75        -4.2550   -0.5700    2.6710 o         1 853     -0.864300
     43 O76        -2.7900   -1.3700    4.1390 o         1 853     -0.864300
     44 H2          0.5140   -2.6640    0.8750 ha        1 853      0.097000
     45 H3         -1.0680   -1.8540    2.6200 ha        1 853      0.168000
     46 H6          0.5990    1.3030   -0.8480 ha        1 853      0.126000
     47 H101        1.5240   -0.4230   -2.0810 hc        1 853      0.066700
     48 H102        2.5310   -1.3140   -0.8800 hc        1 853      0.066700
     49 H11         0.7520   -3.2380   -1.0420 h1        1 853      0.081700
     50 H15        -1.0580   -0.9070   -1.7100 hn        1 853      0.352500
     51 H17         1.7540   -4.0920   -3.0100 hn        1 853      0.298500
     52 H201        3.1290   -3.8180   -5.1560 hc        1 853      0.056033
     53 H202        4.2250   -4.4330   -3.8400 hc        1 853      0.056033
     54 H203        4.6780   -2.9430   -4.7780 hc        1 853      0.056033
     55 H24        -2.4530   -2.2680   -3.9670 h1        1 853      0.097700
     56 H281       -3.5030    1.7260   -0.8320 h1        1 853      0.093700
     57 H282       -2.1720    0.5430   -0.9640 h1        1 853      0.093700
     58 H291       -4.1740   -0.0670    0.5190 hc        1 853      0.081700
     59 H292       -5.1810   -0.2760   -0.9860 hc        1 853      0.081700
     60 H321       -4.5410    2.4970   -2.5170 h1        1 853      0.055700
     61 H322       -4.4880    1.7480   -4.1840 h1        1 853      0.055700
     62 H361       -4.2820   -2.4080   -0.0930 hc        1 853      0.057200
     63 H362       -2.5980   -1.7940   -0.2120 hc        1 853      0.057200
     64 H391       -4.5620   -2.1460   -2.5960 hc        1 853      0.036700
     65 H392       -3.3350   -3.3700   -2.0720 hc        1 853      0.036700
     66 H46        -2.0370    3.2830   -1.6570 ha        1 853      0.176500
     67 H47        -0.3970    5.0050   -2.3440 ha        1 853      0.129000
     68 H49        -1.7470    4.6990   -6.4510 ha        1 853      0.129000
     69 H50        -3.3620    2.9350   -5.7780 ha        1 853      0.176500
     70 H56         0.4670    5.0880   -6.7370 ha        1 853      0.141000
     71 H57         2.0700    6.8680   -7.4150 ha        1 853      0.118000
     72 H58         2.5110    8.8010   -5.9000 ha        1 853      0.113000
     73 H59         1.3440    8.9420   -3.6980 ha        1 853      0.118000
     74 H60        -0.2670    7.1700   -3.0190 ha        1 853      0.141000
     75 H711       -2.7180    1.4650    2.4750 hc        1 853      0.059200
     76 H712       -1.6040    0.9100    3.8030 hc        1 853      0.059200
@<TRIPOS>BOND
     1    1    2 ar  
     2    1    6 ar  
     3    1    7 1   
     4    2    3 ar  
     5    2   44 1   
     6    3    4 ar  
     7    3   45 1   
     8    4    5 ar  
     9    4   40 1   
    10    5    6 ar  
    11    5   37 1   
    12    6   46 1   
    13    7    8 1   
    14    7   47 1   
    15    7   48 1   
    16    8    9 1   
    17    8   12 1   
    18    8   49 1   
    19    9   10 1   
    20    9   11 2   
    21   10   16 1   
    22   10   50 1   
    23   12   13 1   
    24   12   51 1   
    25   13   14 2   
    26   13   15 1   
    27   15   52 1   
    28   15   53 1   
    29   15   54 1   
    30   16   17 1   
    31   16   25 1   
    32   16   55 1   
    33   17   18 1   
    34   17   19 2   
    35   18   20 1   
    36   18   22 1   
    37   20   21 1   
    38   20   56 1   
    39   20   57 1   
    40   21   24 1   
    41   21   58 1   
    42   21   59 1   
    43   22   23 1   
    44   22   60 1   
    45   22   61 1   
    46   23   26 ar  
    47   23   30 ar  
    48   24   25 1   
    49   24   62 1   
    50   24   63 1   
    51   25   64 1   
    52   25   65 1   
    53   26   27 ar  
    54   26   66 1   
    55   27   28 ar  
    56   27   67 1   
    57   28   29 ar  
    58   28   31 1   
    59   29   30 ar  
    60   29   68 1   
    61   30   69 1   
    62   31   32 ar  
    63   31   36 ar  
    64   32   33 ar  
    65   32   70 1   
    66   33   34 ar  
    67   33   71 1   
    68   34   35 ar  
    69   34   72 1   
    70   35   36 ar  
    71   35   73 1   
    72   36   74 1   
    73   37   38 1   
    74   37   39 1   
    75   40   41 1   
    76   40   75 1   
    77   40   76 1   
    78   41   42 1   
    79   41   43 1   
@<TRIPOS>SUBSTRUCTURE
     1 853         1 TEMP              0 ****  ****    0 ROOT
