@<TRIPOS>MOLECULE
854
   42    43     1     0     0
SMALL
bcc


@<TRIPOS>ATOM
      1 O3          0.0090    0.1720    0.0420 o         1 854     -0.641300
      2 S           1.4200    0.1470    0.0660 s6        1 854      1.439900
      3 O2          2.0430    0.2640    1.3230 o         1 854     -0.641300
      4 N           1.9400   -1.2270   -0.6690 n3        1 854     -0.812500
      5 C7          1.0610   -1.9360   -1.5720 c3        1 854      0.214800
      6 C6          1.7060   -2.3210   -2.9030 c3        1 854     -0.094400
      7 C5          2.9900   -3.0850   -2.6670 c3        1 854     -0.075400
      8 C4          3.9160   -2.3070   -1.7590 c3        1 854     -0.092400
      9 C3          3.2020   -1.9040   -0.4530 c3        1 854      0.210500
     10 C2          4.2090   -1.0720    0.3400 c         1 854      0.625100
     11 O1          4.6860    0.0250    0.0360 o         1 854     -0.551000
     12 O           4.6380   -1.7100    1.4580 os        1 854     -0.417900
     13 C1          5.5340   -0.9680    2.3140 c3        1 854      0.138400
     14 C           5.8190   -1.8630    3.4930 c3        1 854     -0.101100
     15 C8          2.0050    1.3750   -1.0010 c3        1 854     -0.258300
     16 C9          1.6230    2.7440   -0.5810 ca        1 854     -0.073300
     17 C14         2.6000    3.6430   -0.1350 ca        1 854     -0.112500
     18 C13         2.2420    4.9400    0.2300 ca        1 854     -0.130000
     19 C12         0.9120    5.3500    0.1480 ca        1 854     -0.122000
     20 C11        -0.0640    4.4570   -0.2940 ca        1 854     -0.130000
     21 C10         0.2870    3.1600   -0.6590 ca        1 854     -0.112500
     22 H1          0.1550   -1.2930   -1.7730 h1        1 854      0.061200
     23 H2          0.7040   -2.8800   -1.0640 h1        1 854      0.061200
     24 H3          0.9800   -2.9510   -3.4770 hc        1 854      0.052200
     25 H4          1.9160   -1.4020   -3.5090 hc        1 854      0.052200
     26 H5          3.5030   -3.2820   -3.6440 hc        1 854      0.048700
     27 H6          2.7560   -4.0800   -2.2030 hc        1 854      0.048700
     28 H7          4.2850   -1.3870   -2.2830 hc        1 854      0.062200
     29 H8          4.8060   -2.9310   -1.4880 hc        1 854      0.062200
     30 H9          2.9920   -2.8490    0.1410 h1        1 854      0.082700
     31 H10         5.0220   -0.0170    2.6170 h1        1 854      0.059700
     32 H11         6.4610   -0.7260    1.7320 h1        1 854      0.059700
     33 H12         6.5050   -1.3300    4.1940 hc        1 854      0.049367
     34 H13         6.3010   -2.8130    3.1610 hc        1 854      0.049367
     35 H14         4.8730   -2.1170    4.0290 hc        1 854      0.049367
     36 H15         3.1300    1.3190   -1.0760 h1        1 854      0.125200
     37 H16         1.6260    1.2140   -2.0460 h1        1 854      0.125200
     38 H17         3.6510    3.3220   -0.0660 ha        1 854      0.146000
     39 H18         3.0140    5.6400    0.5830 ha        1 854      0.133500
     40 H19         0.6320    6.3740    0.4350 ha        1 854      0.131000
     41 H20        -1.1160    4.7750   -0.3530 ha        1 854      0.133500
     42 H21        -0.4870    2.4480   -0.9900 ha        1 854      0.146000
@<TRIPOS>BOND
     1    1    2 2   
     2    2    3 2   
     3    2    4 1   
     4    2   15 1   
     5    4    5 1   
     6    4    9 1   
     7    5    6 1   
     8    5   22 1   
     9    5   23 1   
    10    6    7 1   
    11    6   24 1   
    12    6   25 1   
    13    7    8 1   
    14    7   26 1   
    15    7   27 1   
    16    8    9 1   
    17    8   28 1   
    18    8   29 1   
    19    9   10 1   
    20    9   30 1   
    21   10   11 2   
    22   10   12 1   
    23   12   13 1   
    24   13   14 1   
    25   13   31 1   
    26   13   32 1   
    27   14   33 1   
    28   14   34 1   
    29   14   35 1   
    30   15   16 1   
    31   15   36 1   
    32   15   37 1   
    33   16   17 ar  
    34   16   21 ar  
    35   17   18 ar  
    36   17   38 1   
    37   18   19 ar  
    38   18   39 1   
    39   19   20 ar  
    40   19   40 1   
    41   20   21 ar  
    42   20   41 1   
    43   21   42 1   
@<TRIPOS>SUBSTRUCTURE
     1 854         1 TEMP              0 ****  ****    0 ROOT
