@<TRIPOS>MOLECULE
854
   42    43     1     0     0
SMALL
bcc


@<TRIPOS>ATOM
      1 O3          0.8650    1.5010    1.7580 o         1 854     -0.641300
      2 S           0.3280    0.5670    0.8440 s6        1 854      1.439900
      3 O2          0.2820   -0.7780    1.2540 o         1 854     -0.641300
      4 N          -1.1810    1.0530    0.4130 n3        1 854     -0.812500
      5 C7         -1.5710    2.4340    0.5950 c3        1 854      0.214800
      6 C6         -2.2400    3.0630   -0.6260 c3        1 854     -0.094400
      7 C5         -3.4060    2.2150   -1.0860 c3        1 854     -0.075400
      8 C4         -2.9680    0.7860   -1.3170 c3        1 854     -0.092400
      9 C3         -2.2580    0.2160   -0.0720 c3        1 854      0.210500
     10 C2         -1.8070   -1.1940   -0.4520 c         1 854      0.625100
     11 O1         -0.9790   -1.5150   -1.3090 o         1 854     -0.551000
     12 O          -2.4920   -2.1520    0.2200 os        1 854     -0.417900
     13 C1         -2.0810   -3.5170   -0.0150 c3        1 854      0.138400
     14 C          -2.9510   -4.3720    0.8720 c3        1 854     -0.101100
     15 C8          1.1940    0.7030   -0.6460 c3        1 854     -0.258300
     16 C9          2.6300    0.3580   -0.5200 ca        1 854     -0.073300
     17 C14         3.1350   -0.7930   -1.1360 ca        1 854     -0.112500
     18 C13         4.4930   -1.0980   -1.0430 ca        1 854     -0.130000
     19 C12         5.3540   -0.2560   -0.3390 ca        1 854     -0.122000
     20 C11         4.8540    0.8910    0.2770 ca        1 854     -0.130000
     21 C10         3.4990    1.2000    0.1880 ca        1 854     -0.112500
     22 H1         -2.2890    2.4960    1.4650 h1        1 854      0.061200
     23 H2         -0.6540    3.0360    0.8650 h1        1 854      0.061200
     24 H3         -2.5950    4.0880   -0.3450 hc        1 854      0.052200
     25 H4         -1.4980    3.1740   -1.4580 hc        1 854      0.052200
     26 H5         -4.2180    2.2400   -0.3120 hc        1 854      0.048700
     27 H6         -3.8320    2.6340   -2.0350 hc        1 854      0.048700
     28 H7         -3.8580    0.1400   -1.5350 hc        1 854      0.062200
     29 H8         -2.2780    0.7320   -2.1990 hc        1 854      0.062200
     30 H9         -3.0250    0.1200    0.7590 h1        1 854      0.082700
     31 H10        -2.2270   -3.7490   -1.1020 h1        1 854      0.059700
     32 H11        -0.9940   -3.6060    0.2440 h1        1 854      0.059700
     33 H12        -2.6650   -5.4420    0.7330 hc        1 854      0.049367
     34 H13        -2.8120   -4.0920    1.9430 hc        1 854      0.049367
     35 H14        -4.0280   -4.2440    0.6110 hc        1 854      0.049367
     36 H15         0.7270    0.0350   -1.4270 h1        1 854      0.125200
     37 H16         1.1220    1.7460   -1.0600 h1        1 854      0.125200
     38 H17         2.4580   -1.4620   -1.6890 ha        1 854      0.146000
     39 H18         4.8820   -2.0060   -1.5260 ha        1 854      0.133500
     40 H19         6.4240   -0.4980   -0.2680 ha        1 854      0.131000
     41 H20         5.5290    1.5540    0.8390 ha        1 854      0.133500
     42 H21         3.1010    2.0960    0.6910 ha        1 854      0.146000
@<TRIPOS>BOND
     1    1    2 2   
     2    2    3 2   
     3    2    4 1   
     4    2   15 1   
     5    4    5 1   
     6    4    9 1   
     7    5    6 1   
     8    5   22 1   
     9    5   23 1   
    10    6    7 1   
    11    6   24 1   
    12    6   25 1   
    13    7    8 1   
    14    7   26 1   
    15    7   27 1   
    16    8    9 1   
    17    8   28 1   
    18    8   29 1   
    19    9   10 1   
    20    9   30 1   
    21   10   11 2   
    22   10   12 1   
    23   12   13 1   
    24   13   14 1   
    25   13   31 1   
    26   13   32 1   
    27   14   33 1   
    28   14   34 1   
    29   14   35 1   
    30   15   16 1   
    31   15   36 1   
    32   15   37 1   
    33   16   17 ar  
    34   16   21 ar  
    35   17   18 ar  
    36   17   38 1   
    37   18   19 ar  
    38   18   39 1   
    39   19   20 ar  
    40   19   40 1   
    41   20   21 ar  
    42   20   41 1   
    43   21   42 1   
@<TRIPOS>SUBSTRUCTURE
     1 854         1 TEMP              0 ****  ****    0 ROOT
