@<TRIPOS>MOLECULE
854
   42    43     1     0     0
SMALL
bcc


@<TRIPOS>ATOM
      1 O3          0.0120    0.1710    0.0590 o         1 854     -0.641300
      2 S           1.4240    0.1480    0.0760 s6        1 854      1.439900
      3 O2          2.0540    0.2680    1.3290 o         1 854     -0.641300
      4 N           1.9410   -1.2280   -0.6590 n3        1 854     -0.812500
      5 C7          1.0580   -1.9400   -1.5560 c3        1 854      0.214800
      6 C6          1.6960   -2.3260   -2.8890 c3        1 854     -0.094400
      7 C5          2.9830   -3.0880   -2.6590 c3        1 854     -0.075400
      8 C4          3.9130   -2.3070   -1.7580 c3        1 854     -0.092400
      9 C3          3.2050   -1.9020   -0.4490 c3        1 854      0.210500
     10 C2          4.2160   -1.0670    0.3370 c         1 854      0.625100
     11 O1          4.6890    0.0290    0.0280 o         1 854     -0.551000
     12 O           4.6520   -1.7030    1.4530 os        1 854     -0.417900
     13 C1          5.5520   -0.9590    2.3030 c3        1 854      0.138400
     14 C           5.8460   -1.8520    3.4820 c3        1 854     -0.101100
     15 C8          2.0020    1.3740   -0.9970 c3        1 854     -0.258300
     16 C9          1.6190    2.7430   -0.5780 ca        1 854     -0.073300
     17 C14         2.5960    3.6450   -0.1390 ca        1 854     -0.112500
     18 C13         2.2380    4.9430    0.2240 ca        1 854     -0.130000
     19 C12         0.9070    5.3500    0.1470 ca        1 854     -0.122000
     20 C11        -0.0700    4.4540   -0.2880 ca        1 854     -0.130000
     21 C10         0.2820    3.1560   -0.6520 ca        1 854     -0.112500
     22 H1          0.7060   -2.8830   -1.0440 h1        1 854      0.061200
     23 H2          0.1500   -1.2980   -1.7530 h1        1 854      0.061200
     24 H3          0.9680   -2.9590   -3.4580 hc        1 854      0.052200
     25 H4          1.9020   -1.4090   -3.4990 hc        1 854      0.052200
     26 H5          3.4900   -3.2860   -3.6390 hc        1 854      0.048700
     27 H6          2.7520   -4.0820   -2.1920 hc        1 854      0.048700
     28 H7          4.8060   -2.9300   -1.4910 hc        1 854      0.062200
     29 H8          4.2780   -1.3870   -2.2860 hc        1 854      0.062200
     30 H9          3.0000   -2.8460    0.1480 h1        1 854      0.082700
     31 H10         6.4750   -0.7160    1.7150 h1        1 854      0.059700
     32 H11         5.0410   -0.0080    2.6080 h1        1 854      0.059700
     33 H12         6.3280   -2.8010    3.1480 hc        1 854      0.049367
     34 H13         4.9030   -2.1070    4.0240 hc        1 854      0.049367
     35 H14         6.5350   -1.3160    4.1780 hc        1 854      0.049367
     36 H15         1.6170    1.2100   -2.0400 h1        1 854      0.125200
     37 H16         3.1260    1.3190   -1.0770 h1        1 854      0.125200
     38 H17         3.6480    3.3260   -0.0740 ha        1 854      0.146000
     39 H18         3.0100    5.6450    0.5710 ha        1 854      0.133500
     40 H19         0.6260    6.3740    0.4330 ha        1 854      0.131000
     41 H20        -1.1220    4.7700   -0.3430 ha        1 854      0.133500
     42 H21        -0.4930    2.4430   -0.9770 ha        1 854      0.146000
@<TRIPOS>BOND
     1    1    2 2   
     2    2    3 2   
     3    2    4 1   
     4    2   15 1   
     5    4    5 1   
     6    4    9 1   
     7    5    6 1   
     8    5   22 1   
     9    5   23 1   
    10    6    7 1   
    11    6   24 1   
    12    6   25 1   
    13    7    8 1   
    14    7   26 1   
    15    7   27 1   
    16    8    9 1   
    17    8   28 1   
    18    8   29 1   
    19    9   10 1   
    20    9   30 1   
    21   10   11 2   
    22   10   12 1   
    23   12   13 1   
    24   13   14 1   
    25   13   31 1   
    26   13   32 1   
    27   14   33 1   
    28   14   34 1   
    29   14   35 1   
    30   15   16 1   
    31   15   36 1   
    32   15   37 1   
    33   16   17 ar  
    34   16   21 ar  
    35   17   18 ar  
    36   17   38 1   
    37   18   19 ar  
    38   18   39 1   
    39   19   20 ar  
    40   19   40 1   
    41   20   21 ar  
    42   20   41 1   
    43   21   42 1   
@<TRIPOS>SUBSTRUCTURE
     1 854         1 TEMP              0 ****  ****    0 ROOT
