@<TRIPOS>MOLECULE
854
   42    39     1     0     0
SMALL
bcc


@<TRIPOS>ATOM
      1 O3         -1.0740    0.4530    1.0780 o         1 854     -0.924500
      2 S          -0.3560    0.7780   -0.1220 ss        1 854      2.795000
      3 O2          0.7080    1.5900    0.4000 o         1 854     -0.924500
      4 N           0.2430   -0.6120   -0.8740 n2        1 854     -0.820000
      5 C7         -0.4260   -1.1410   -2.0670 c3        1 854     -0.015000
      6 C6          0.4020   -1.7640   -2.9470 c3        1 854     -0.174000
      7 C5          1.1760   -2.6910   -2.4360 c3        1 854     -0.154000
      8 C4          1.9530   -2.2530   -1.2600 c3        1 854     -0.152000
      9 C3          1.0720   -1.6510   -0.0430 c3        1 854      0.056000
     10 C2          1.8030   -1.1170    1.0130 c2        1 854      0.282000
     11 O1          2.4810   -0.1200    0.8380 o         1 854     -0.367000
     12 O           1.8780   -1.8180    2.2510 os        1 854     -0.275000
     13 C1          3.1760   -1.7600    2.8780 c3        1 854     -0.012000
     14 C           3.2740   -2.8650    3.9750 c3        1 854     -0.219000
     15 C8         -1.3740    1.6970   -1.2540 c2        1 854     -0.807000
     16 C9         -2.2790    2.6870   -0.4560 c2        1 854     -0.063000
     17 C14        -1.9840    4.0350   -0.4480 c2        1 854     -0.105000
     18 C13        -2.8460    4.9280    0.1630 c1        1 854     -0.131000
     19 C12        -4.0080    4.4690    0.7700 c1        1 854     -0.124000
     20 C11        -4.3040    3.1210    0.7640 c1        1 854     -0.124000
     21 C10        -3.4440    2.2270    0.1530 c1        1 854     -0.125000
     22 H1         -0.8650   -0.4040   -2.5260 h1        1 854      0.094000
     23 H2         -1.1090   -1.7780   -1.7820 h1        1 854      0.094000
     24 H3         -0.1560   -2.1810   -3.6580 hc        1 854      0.093500
     25 H4          0.9700   -1.0870   -3.3620 hc        1 854      0.093500
     26 H5          1.8010   -2.9920   -3.1290 hc        1 854      0.090000
     27 H6          0.6100   -3.4560   -2.1700 hc        1 854      0.090000
     28 H7          2.5860   -1.5710   -1.5460 hc        1 854      0.102000
     29 H8          2.4560   -3.0190   -0.9240 hc        1 854      0.102000
     30 H9          0.5120   -2.3290    0.4040 h1        1 854      0.145000
     31 H10         3.8750   -1.9080    2.1970 h1        1 854      0.093000
     32 H11         3.3010   -0.8780    3.2890 h1        1 854      0.093000
     33 H12         4.1630   -2.8250    4.4060 hc        1 854      0.088667
     34 H13         2.5730   -2.7170    4.6540 hc        1 854      0.088667
     35 H14         3.1490   -3.7510    3.5610 hc        1 854      0.088667
     36 H15        -0.7970    2.2060   -1.8770 ha        1 854      0.169500
     37 H16        -1.9320    1.0840   -1.7580 ha        1 854      0.169500
     38 H17        -1.1640    4.3600   -0.8770 ha        1 854      0.138000
     39 H18        -2.6410    5.8680    0.1680 ha        1 854      0.133000
     40 H19        -4.6180    5.1020    1.2030 ha        1 854      0.133500
     41 H20        -5.1380    2.7920    1.2000 ha        1 854      0.133500
     42 H21        -3.6500    1.2890    0.1490 ha        1 854      0.152000
@<TRIPOS>BOND
     1    1    2 1   
     2    2    3 1   
     3    4    5 1   
     4    4    9 1   
     5    5    6 1   
     6    5   22 1   
     7    5   23 1   
     8    6    7 1   
     9    6   24 1   
    10    6   25 1   
    11    7    8 1   
    12    7   26 1   
    13    7   27 1   
    14    8    9 1   
    15    8   28 1   
    16    8   29 1   
    17    9   10 1   
    18    9   30 1   
    19   10   11 1   
    20   10   12 1   
    21   12   13 1   
    22   13   14 1   
    23   13   31 1   
    24   13   32 1   
    25   14   33 1   
    26   14   34 1   
    27   14   35 1   
    28   15   16 1   
    29   15   36 1   
    30   15   37 1   
    31   16   17 1   
    32   16   21 1   
    33   17   18 1   
    34   17   38 1   
    35   18   39 1   
    36   19   20 1   
    37   19   40 1   
    38   20   41 1   
    39   21   42 1   
@<TRIPOS>SUBSTRUCTURE
     1 854         1 TEMP              0 ****  ****    0 ROOT
