@<TRIPOS>MOLECULE
854
   42    43     1     0     0
SMALL
bcc


@<TRIPOS>ATOM
      1 O3          0.0080    0.1730    0.0340 o         1 854     -0.641300
      2 S           1.4190    0.1480    0.0630 s6        1 854      1.439900
      3 O2          2.0380    0.2630    1.3220 o         1 854     -0.641300
      4 N           1.9410   -1.2260   -0.6710 n3        1 854     -0.812500
      5 C7          1.0650   -1.9340   -1.5780 c3        1 854      0.214800
      6 C6          1.7140   -2.3180   -2.9070 c3        1 854     -0.094400
      7 C5          2.9970   -3.0830   -2.6680 c3        1 854     -0.075400
      8 C4          3.9200   -2.3060   -1.7570 c3        1 854     -0.092400
      9 C3          3.2020   -1.9040   -0.4520 c3        1 854      0.210500
     10 C2          4.2070   -1.0720    0.3440 c         1 854      0.625100
     11 O1          4.6850    0.0250    0.0430 o         1 854     -0.551000
     12 O           4.6330   -1.7120    1.4620 os        1 854     -0.417900
     13 C1          5.5270   -0.9710    2.3210 c3        1 854      0.138400
     14 C           5.8110   -1.8690    3.5000 c3        1 854     -0.101100
     15 C8          2.0080    1.3760   -1.0020 c3        1 854     -0.258300
     16 C9          1.6240    2.7450   -0.5820 ca        1 854     -0.073300
     17 C14         2.5980    3.6440   -0.1320 ca        1 854     -0.112500
     18 C13         2.2390    4.9410    0.2310 ca        1 854     -0.130000
     19 C12         0.9090    5.3500    0.1450 ca        1 854     -0.122000
     20 C11        -0.0660    4.4570   -0.3020 ca        1 854     -0.130000
     21 C10         0.2880    3.1600   -0.6660 ca        1 854     -0.112500
     22 H1          0.1590   -1.2910   -1.7810 h1        1 854      0.061200
     23 H2          0.7060   -2.8790   -1.0720 h1        1 854      0.061200
     24 H3          0.9890   -2.9480   -3.4840 hc        1 854      0.052200
     25 H4          1.9260   -1.3990   -3.5120 hc        1 854      0.052200
     26 H5          3.5130   -3.2790   -3.6440 hc        1 854      0.048700
     27 H6          2.7610   -4.0780   -2.2050 hc        1 854      0.048700
     28 H7          4.2910   -1.3850   -2.2790 hc        1 854      0.062200
     29 H8          4.8100   -2.9300   -1.4840 hc        1 854      0.062200
     30 H9          2.9910   -2.8490    0.1400 h1        1 854      0.082700
     31 H10         5.0150   -0.0210    2.6260 h1        1 854      0.059700
     32 H11         6.4550   -0.7280    1.7420 h1        1 854      0.059700
     33 H12         4.8640   -2.1240    4.0330 hc        1 854      0.049367
     34 H13         6.4950   -1.3370    4.2030 hc        1 854      0.049367
     35 H14         6.2940   -2.8180    3.1670 hc        1 854      0.049367
     36 H15         1.6330    1.2160   -2.0490 h1        1 854      0.125200
     37 H16         3.1330    1.3200   -1.0720 h1        1 854      0.125200
     38 H17         3.6490    3.3230   -0.0590 ha        1 854      0.146000
     39 H18         3.0090    5.6410    0.5880 ha        1 854      0.133500
     40 H19         0.6270    6.3740    0.4310 ha        1 854      0.131000
     41 H20        -1.1170    4.7740   -0.3650 ha        1 854      0.133500
     42 H21        -0.4850    2.4480   -1.0000 ha        1 854      0.146000
@<TRIPOS>BOND
     1    1    2 2   
     2    2    3 2   
     3    2    4 1   
     4    2   15 1   
     5    4    5 1   
     6    4    9 1   
     7    5    6 1   
     8    5   22 1   
     9    5   23 1   
    10    6    7 1   
    11    6   24 1   
    12    6   25 1   
    13    7    8 1   
    14    7   26 1   
    15    7   27 1   
    16    8    9 1   
    17    8   28 1   
    18    8   29 1   
    19    9   10 1   
    20    9   30 1   
    21   10   11 2   
    22   10   12 1   
    23   12   13 1   
    24   13   14 1   
    25   13   31 1   
    26   13   32 1   
    27   14   33 1   
    28   14   34 1   
    29   14   35 1   
    30   15   16 1   
    31   15   36 1   
    32   15   37 1   
    33   16   17 ar  
    34   16   21 ar  
    35   17   18 ar  
    36   17   38 1   
    37   18   19 ar  
    38   18   39 1   
    39   19   20 ar  
    40   19   40 1   
    41   20   21 ar  
    42   20   41 1   
    43   21   42 1   
@<TRIPOS>SUBSTRUCTURE
     1 854         1 TEMP              0 ****  ****    0 ROOT
