@<TRIPOS>MOLECULE
855
   40    43     1     0     0
SMALL
bcc


@<TRIPOS>ATOM
      1 C1          0.2330    0.0730    0.7870 c3        1 855     -0.156400
      2 C2          1.6870    0.3280    0.5490 ca        1 855      0.421600
      3 C3          2.4930    0.6730    1.6660 ca        1 855     -0.214300
      4 C4          3.8510    0.8990    1.4780 ca        1 855     -0.089000
      5 C5          4.3910    0.7810    0.1920 ca        1 855     -0.196300
      6 C6          3.5190    0.4400   -0.8560 cp        1 855      0.333300
      7 N7          2.1900    0.2150   -0.6990 nb        1 855     -0.650000
      8 C8          4.0820    0.2980   -2.2400 cp        1 855      0.640000
      9 N9          3.3770    0.9320   -3.2610 nb        1 855     -0.652000
     10 C10         3.8520    0.7810   -4.4970 ca        1 855      0.524200
     11 C12         2.0020    0.6210   -6.1040 ca        1 855     -0.002400
     12 C17         0.8920    0.3190   -5.2990 ca        1 855     -0.220800
     13 C16        -0.1250   -0.4750   -5.8700 ca        1 855      0.432200
     14 N15        -0.0860   -0.9490   -7.1280 nb        1 855     -0.606000
     15 C14         0.9890   -0.6460   -7.8800 ca        1 855      0.432200
     16 C13         2.0680    0.1340   -7.4220 ca        1 855     -0.220800
     17 C18         5.0310    0.0240   -4.8230 ca        1 855     -0.241600
     18 C19         5.5620   -0.1740   -6.1200 ca        1 855     -0.143000
     19 C20         6.7120   -0.9070   -6.2930 ca        1 855     -0.071000
     20 C21         7.3780   -1.4780   -5.1810 ca        1 855     -0.092000
     21 C22         6.8900   -1.3180   -3.9090 ca        1 855     -0.145300
     22 C23         5.6920   -0.5610   -3.6850 ca        1 855      0.434600
     23 N24         5.2030   -0.4230   -2.4080 nb        1 855     -0.620000
     24 N5          3.0870    1.4620   -5.5810 n4        1 855     -0.630100
     25 H1         -0.2030    0.9260    1.3630 hc        1 855      0.063033
     26 H1A         0.1200   -0.8630    1.3910 hc        1 855      0.063033
     27 H1B        -0.3410   -0.0480   -0.1630 hc        1 855      0.063033
     28 H3          2.0340    0.7530    2.6620 ha        1 855      0.161000
     29 H4          4.5000    1.1640    2.3280 ha        1 855      0.158000
     30 H5          5.4630    0.9440    0.0140 ha        1 855      0.160000
     31 H17         0.7990    0.6650   -4.2570 ha        1 855      0.177500
     32 H14         0.9900   -1.0520   -8.9110 h4        1 855      0.062600
     33 H13         2.9160    0.3390   -8.0910 ha        1 855      0.177500
     34 H19         5.0570    0.2410   -7.0040 ha        1 855      0.123000
     35 H20         7.1280   -1.0630   -7.3030 ha        1 855      0.164000
     36 H21         8.3000   -2.0600   -5.3540 ha        1 855      0.170000
     37 H22         7.4040   -1.7680   -3.0410 ha        1 855      0.183000
     38 H141        2.6700    2.3330   -5.2130 hn        1 855      0.472300
     39 H16        -1.0220   -0.7430   -5.2750 h4        1 855      0.062600
     40 H52         3.7430    1.6970   -6.3370 hn        1 855      0.472300
@<TRIPOS>BOND
     1    1    2 1   
     2    1   25 1   
     3    1   26 1   
     4    1   27 1   
     5    2    3 ar  
     6    2    7 ar  
     7    3    4 ar  
     8    3   28 1   
     9    4    5 ar  
    10    4   29 1   
    11    5    6 ar  
    12    5   30 1   
    13    6    7 ar  
    14    6    8 1   
    15    8    9 ar  
    16    8   23 ar  
    17    9   10 ar  
    18   10   17 ar  
    19   10   24 1   
    20   11   12 ar  
    21   11   16 ar  
    22   11   24 1   
    23   12   13 ar  
    24   12   31 1   
    25   13   14 ar  
    26   13   39 1   
    27   14   15 ar  
    28   15   16 ar  
    29   15   32 1   
    30   16   33 1   
    31   17   18 ar  
    32   17   22 ar  
    33   18   19 ar  
    34   18   34 1   
    35   19   20 ar  
    36   19   35 1   
    37   20   21 ar  
    38   20   36 1   
    39   21   22 ar  
    40   21   37 1   
    41   22   23 ar  
    42   24   38 1   
    43   24   40 1   
@<TRIPOS>SUBSTRUCTURE
     1 855         1 TEMP              0 ****  ****    0 ROOT
