@<TRIPOS>MOLECULE
855
   39    42     1     0     0
SMALL
bcc


@<TRIPOS>ATOM
      1 C1          4.6270    1.5810   -1.8420 c3        1 855     -0.148400
      2 C2          3.6290    1.9590   -0.7940 ca        1 855      0.413600
      3 C3          4.0320    2.8090    0.2610 ca        1 855     -0.241300
      4 C4          3.1030    3.1690    1.2350 ca        1 855     -0.095000
      5 C5          1.8000    2.6770    1.1470 ca        1 855     -0.219300
      6 C6          1.4880    1.8290    0.0660 cp        1 855      0.374300
      7 N7          2.3670    1.4700   -0.8940 nb        1 855     -0.637000
      8 C8          0.0860    1.2880   -0.0280 cp        1 855      0.635000
      9 N9         -0.0350   -0.0820    0.1420 nb        1 855     -0.734000
     10 C10        -1.2780   -0.5980    0.0700 ca        1 855      0.694200
     11 C12        -0.4670   -2.9070    0.4910 ca        1 855      0.178600
     12 C17         0.5520   -2.7020    1.4450 ca        1 855     -0.263800
     13 C16         1.4840   -3.7300    1.6600 ca        1 855      0.409200
     14 N15         1.4670   -4.9150    1.0220 nb        1 855     -0.675000
     15 C14         0.4860   -5.1050    0.1190 ca        1 855      0.409200
     16 C13        -0.4940   -4.1500   -0.1870 ca        1 855     -0.263800
     17 C18        -2.4430    0.2560   -0.1770 ca        1 855     -0.283600
     18 C19        -3.7760   -0.2080   -0.2440 ca        1 855     -0.095000
     19 C20        -4.8110    0.6670   -0.4860 ca        1 855     -0.137000
     20 C21        -4.5540    2.0440   -0.6680 ca        1 855     -0.104000
     21 C22        -3.2740    2.5330   -0.5980 ca        1 855     -0.175300
     22 C23        -2.1760    1.6500   -0.3440 ca        1 855      0.435600
     23 N24        -0.8960    2.1660   -0.2670 nb        1 855     -0.697000
     24 N5         -1.4960   -1.9700    0.2660 nh        1 855     -0.728300
     25 H1          4.7580    0.4710   -1.8730 hc        1 855      0.054367
     26 H1A         4.2820    1.9220   -2.8500 hc        1 855      0.054367
     27 H1B         5.6150    2.0530   -1.6220 hc        1 855      0.054367
     28 H3          5.0640    3.1800    0.3050 ha        1 855      0.143000
     29 H4          3.3900    3.8330    2.0630 ha        1 855      0.140000
     30 H5          1.0360    2.9430    1.8880 ha        1 855      0.152000
     31 H17         0.6360   -1.7650    2.0130 ha        1 855      0.151500
     32 H14         0.4890   -6.0840   -0.3950 h4        1 855      0.023100
     33 H13        -1.2590   -4.3770   -0.9410 ha        1 855      0.151500
     34 H19        -4.0110   -1.2720   -0.0890 ha        1 855      0.131000
     35 H20        -5.8480    0.3030   -0.5360 ha        1 855      0.139000
     36 H21        -5.3980    2.7230   -0.8640 ha        1 855      0.140000
     37 H22        -3.0710    3.6070   -0.7350 ha        1 855      0.157000
     38 H141       -2.2760   -2.3330   -0.2420 hn        1 855      0.432800
     39 H16         2.2970   -3.5940    2.3960 h4        1 855      0.023100
@<TRIPOS>BOND
     1    1    2 1   
     2    1   25 1   
     3    1   26 1   
     4    1   27 1   
     5    2    3 ar  
     6    2    7 ar  
     7    3    4 ar  
     8    3   28 1   
     9    4    5 ar  
    10    4   29 1   
    11    5    6 ar  
    12    5   30 1   
    13    6    7 ar  
    14    6    8 1   
    15    8    9 ar  
    16    8   23 ar  
    17    9   10 ar  
    18   10   17 ar  
    19   10   24 1   
    20   11   12 ar  
    21   11   16 ar  
    22   11   24 1   
    23   12   13 ar  
    24   12   31 1   
    25   13   14 ar  
    26   13   39 1   
    27   14   15 ar  
    28   15   16 ar  
    29   15   32 1   
    30   16   33 1   
    31   17   18 ar  
    32   17   22 ar  
    33   18   19 ar  
    34   18   34 1   
    35   19   20 ar  
    36   19   35 1   
    37   20   21 ar  
    38   20   36 1   
    39   21   22 ar  
    40   21   37 1   
    41   22   23 ar  
    42   24   38 1   
@<TRIPOS>SUBSTRUCTURE
     1 855         1 TEMP              0 ****  ****    0 ROOT
