@<TRIPOS>MOLECULE
855
   39    32     1     0     0
SMALL
bcc


@<TRIPOS>ATOM
      1 C1         -1.3560    1.6840    4.8400 c3        1 855     -0.173000
      2 C2         -1.1250    0.3980    4.0920 c2        1 855     -0.008000
      3 C3         -1.6780   -0.7750    4.5500 c2        1 855     -0.175000
      4 C4         -1.5370   -1.9170    3.8330 c1        1 855     -0.094000
      5 C5         -0.8400   -1.9010    2.6490 c1        1 855     -0.153000
      6 C6         -0.2870   -0.7250    2.1920 c1        1 855      0.047000
      7 N7         -0.4300    0.4130    2.9110 n1        1 855     -0.112000
      8 C8          0.3930   -0.6970    0.9600 c1        1 855      0.091000
      9 N9         -0.2880   -0.6500   -0.2510 n1        1 855     -0.206000
     10 C10         0.3890   -0.6780   -1.3970 c1        1 855      0.142000
     11 C12        -1.2730    0.5560   -2.7590 c1        1 855      0.088000
     12 C17        -2.6050    0.5530   -2.4650 c1        1 855     -0.121750
     13 C16        -3.3930    1.6550   -2.7870 c1        1 855     -0.121750
     14 N15        -2.8320    2.7410   -3.3960 n1        1 855     -0.156000
     15 C14        -1.5050    2.7500   -3.6910 c1        1 855     -0.044000
     16 C13        -0.7110    1.6440   -3.3690 c1        1 855     -0.227000
     17 C18         1.7910   -0.7550   -1.3780 c1        1 855     -0.127000
     18 C19         2.5210   -0.7930   -2.5840 c2        1 855     -0.085000
     19 C20         3.9330   -0.8780   -2.5510 c1        1 855     -0.137000
     20 C21         4.5970   -0.9230   -1.3370 c1        1 855     -0.121750
     21 C22         3.8860   -0.8870   -0.1650 c1        1 855     -0.121750
     22 C23         2.4440   -0.8010   -0.1940 c1        1 855      0.026000
     23 N24         1.7410   -0.7720    0.9780 n2        1 855     -0.132000
     24 N5         -0.4840   -0.6210   -2.5170 n3        1 855     -0.235000
     25 H1         -2.2090    1.6020    5.4140 hc        1 855      0.094000
     26 H1A        -1.4720    2.4760    4.1480 hc        1 855      0.094000
     27 H1B        -0.5490    1.8750    5.4480 hc        1 855      0.094000
     28 H3         -2.1690   -0.7860    5.3850 ha        1 855      0.144000
     29 H4         -1.9160   -2.7200    4.1460 ha        1 855      0.140000
     30 H5         -0.7370   -2.7360    2.1230 ha        1 855      0.151000
     31 H17        -3.0010   -0.2120   -2.0350 ha        1 855      0.151500
     32 H14        -1.1130    3.5170   -4.1200 ha        1 855      0.162000
     33 H13         0.2740    1.6480   -3.5860 ha        1 855      0.156000
     34 H19         2.0570   -0.7630   -3.4350 ha        1 855      0.154000
     35 H20         4.4480   -0.9040   -3.3980 ha        1 855      0.141000
     36 H21         5.6190   -0.9840   -1.3150 ha        1 855      0.151500
     37 H22         4.3570   -0.9210    0.6960 ha        1 855      0.151500
     38 H141       -0.5850   -1.3660   -3.0610 hn        1 855      0.222000
     39 H16        -4.3560    1.6520   -2.5740 ha        1 855      0.151500
@<TRIPOS>BOND
     1    1    2 1   
     2    1   25 1   
     3    1   26 1   
     4    1   27 1   
     5    2    3 1   
     6    2    7 1   
     7    3    4 1   
     8    3   28 1   
     9    4   29 1   
    10    5    6 1   
    11    5   30 1   
    12    8   23 1   
    13    9   10 1   
    14   10   24 1   
    15   11   16 1   
    16   11   24 1   
    17   12   13 1   
    18   12   31 1   
    19   13   39 1   
    20   14   15 1   
    21   15   32 1   
    22   16   33 1   
    23   17   18 1   
    24   17   22 1   
    25   18   19 1   
    26   18   34 1   
    27   19   35 1   
    28   20   21 1   
    29   20   36 1   
    30   21   37 1   
    31   22   23 1   
    32   24   38 1   
@<TRIPOS>SUBSTRUCTURE
     1 855         1 TEMP              0 ****  ****    0 ROOT
