@<TRIPOS>MOLECULE
855
   39    42     1     0     0
SMALL
bcc


@<TRIPOS>ATOM
      1 C1          0.8080   -1.7400    0.7270 c3        1 855     -0.148400
      2 C2          1.8380   -0.7170    0.3690 ca        1 855      0.413600
      3 C3          2.1130    0.3260    1.2830 ca        1 855     -0.241300
      4 C4          3.0770    1.2790    0.9560 ca        1 855     -0.095000
      5 C5          3.7410    1.1810   -0.2670 ca        1 855     -0.219300
      6 C6          3.3980    0.1130   -1.1200 cp        1 855      0.374300
      7 N7          2.4730   -0.8260   -0.8250 nb        1 855     -0.637000
      8 C8          4.1060    0.0080   -2.4440 cp        1 855      0.635000
      9 N9          3.3100    0.2040   -3.5620 nb        1 855     -0.734000
     10 C10         3.9140    0.1240   -4.7640 ca        1 855      0.694200
     11 C12         1.8060    0.6030   -5.9830 ca        1 855      0.178600
     12 C17         1.1900    1.5680   -5.1580 ca        1 855     -0.263800
     13 C16        -0.1820    1.8170   -5.3300 ca        1 855      0.409200
     14 N15        -0.9560    1.2030   -6.2440 nb        1 855     -0.675000
     15 C14        -0.3580    0.2890   -7.0320 ca        1 855      0.409200
     16 C13         1.0000   -0.0500   -6.9470 ca        1 855     -0.263800
     17 C18         5.3470   -0.1590   -4.8760 ca        1 855     -0.283600
     18 C19         6.0550   -0.2360   -6.0980 ca        1 855     -0.095000
     19 C20         7.4040   -0.5110   -6.1100 ca        1 855     -0.137000
     20 C21         8.1020   -0.7170   -4.9000 ca        1 855     -0.104000
     21 C22         7.4520   -0.6380   -3.6930 ca        1 855     -0.175300
     22 C23         6.0500   -0.3500   -3.6460 ca        1 855      0.435600
     23 N24         5.4180   -0.2640   -2.4200 nb        1 855     -0.697000
     24 N5          3.1900    0.3440   -5.9450 nu        1 855     -0.728300
     25 H1         -0.0180   -1.7420   -0.0270 hc        1 855      0.054367
     26 H1A         0.3760   -1.5180    1.7320 hc        1 855      0.054367
     27 H1B         1.2640   -2.7610    0.7490 hc        1 855      0.054367
     28 H3          1.5730    0.3790    2.2370 ha        1 855      0.143000
     29 H4          3.3130    2.0970    1.6520 ha        1 855      0.140000
     30 H5          4.5140    1.9040   -0.5590 ha        1 855      0.152000
     31 H17         1.7500    2.1180   -4.3910 ha        1 855      0.151500
     32 H14        -1.0100   -0.2050   -7.7750 h4        1 855      0.023100
     33 H13         1.4130   -0.8110   -7.6230 ha        1 855      0.151500
     34 H19         5.5440   -0.0630   -7.0570 ha        1 855      0.131000
     35 H20         7.9510   -0.5700   -7.0620 ha        1 855      0.139000
     36 H21         9.1790   -0.9410   -4.9350 ha        1 855      0.140000
     37 H22         7.9940   -0.7940   -2.7470 ha        1 855      0.157000
     38 H141        3.5330   -0.1690   -6.7310 hn        1 855      0.432800
     39 H16        -0.6920    2.5620   -4.6920 h4        1 855      0.023100
@<TRIPOS>BOND
     1    1    2 1   
     2    1   25 1   
     3    1   26 1   
     4    1   27 1   
     5    2    3 ar  
     6    2    7 ar  
     7    3    4 ar  
     8    3   28 1   
     9    4    5 ar  
    10    4   29 1   
    11    5    6 ar  
    12    5   30 1   
    13    6    7 ar  
    14    6    8 1   
    15    8    9 ar  
    16    8   23 ar  
    17    9   10 ar  
    18   10   17 ar  
    19   10   24 1   
    20   11   12 ar  
    21   11   16 ar  
    22   11   24 1   
    23   12   13 ar  
    24   12   31 1   
    25   13   14 ar  
    26   13   39 1   
    27   14   15 ar  
    28   15   16 ar  
    29   15   32 1   
    30   16   33 1   
    31   17   18 ar  
    32   17   22 ar  
    33   18   19 ar  
    34   18   34 1   
    35   19   20 ar  
    36   19   35 1   
    37   20   21 ar  
    38   20   36 1   
    39   21   22 ar  
    40   21   37 1   
    41   22   23 ar  
    42   24   38 1   
@<TRIPOS>SUBSTRUCTURE
     1 855         1 TEMP              0 ****  ****    0 ROOT
