@<TRIPOS>MOLECULE
855
   39    42     1     0     0
SMALL
bcc


@<TRIPOS>ATOM
      1 C1          0.7950   -1.7380    0.7190 c3        1 855     -0.148400
      2 C2          1.8330   -0.7220    0.3650 ca        1 855      0.413600
      3 C3          2.1170    0.3150    1.2840 ca        1 855     -0.241300
      4 C4          3.0880    1.2600    0.9610 ca        1 855     -0.095000
      5 C5          3.7520    1.1630   -0.2620 ca        1 855     -0.219300
      6 C6          3.4000    0.1020   -1.1200 cp        1 855      0.374300
      7 N7          2.4670   -0.8310   -0.8290 nb        1 855     -0.637000
      8 C8          4.1060   -0.0030   -2.4450 cp        1 855      0.635000
      9 N9          3.3120    0.2050   -3.5610 nb        1 855     -0.734000
     10 C10         3.9150    0.1250   -4.7640 ca        1 855      0.694200
     11 C12         1.8100    0.6280   -5.9800 ca        1 855      0.178600
     12 C17         1.2030    1.5950   -5.1510 ca        1 855     -0.263800
     13 C16        -0.1660    1.8570   -5.3210 ca        1 855      0.409200
     14 N15        -0.9470    1.2530   -6.2360 nb        1 855     -0.675000
     15 C14        -0.3580    0.3370   -7.0280 ca        1 855      0.409200
     16 C13         0.9970   -0.0150   -6.9460 ca        1 855     -0.263800
     17 C18         5.3450   -0.1690   -4.8780 ca        1 855     -0.283600
     18 C19         6.0520   -0.2460   -6.1000 ca        1 855     -0.095000
     19 C20         7.3980   -0.5320   -6.1140 ca        1 855     -0.137000
     20 C21         8.0950   -0.7490   -4.9050 ca        1 855     -0.104000
     21 C22         7.4460   -0.6700   -3.6980 ca        1 855     -0.175300
     22 C23         6.0470   -0.3710   -3.6490 ca        1 855      0.435600
     23 N24         5.4150   -0.2850   -2.4230 nb        1 855     -0.697000
     24 N5          3.1920    0.3570   -5.9440 nh        1 855     -0.728300
     25 H1          1.2410   -2.7640    0.7330 hc        1 855      0.054367
     26 H1A         0.3660   -1.5190    1.7260 hc        1 855      0.054367
     27 H1B        -0.0330   -1.7280   -0.0340 hc        1 855      0.054367
     28 H3          1.5770    0.3670    2.2390 ha        1 855      0.143000
     29 H4          3.3310    2.0730    1.6610 ha        1 855      0.140000
     30 H5          4.5290    1.8810   -0.5510 ha        1 855      0.152000
     31 H17         1.7690    2.1370   -4.3820 ha        1 855      0.151500
     32 H14        -1.0150   -0.1490   -7.7720 h4        1 855      0.023100
     33 H13         1.4030   -0.7760   -7.6240 ha        1 855      0.151500
     34 H19         5.5420   -0.0650   -7.0580 ha        1 855      0.131000
     35 H20         7.9450   -0.5910   -7.0670 ha        1 855      0.139000
     36 H21         9.1710   -0.9810   -4.9420 ha        1 855      0.140000
     37 H22         7.9870   -0.8350   -2.7530 ha        1 855      0.157000
     38 H141        3.5300   -0.1560   -6.7320 hn        1 855      0.432800
     39 H16        -0.6690    2.6050   -4.6790 h4        1 855      0.023100
@<TRIPOS>BOND
     1    1    2 1   
     2    1   25 1   
     3    1   26 1   
     4    1   27 1   
     5    2    3 ar  
     6    2    7 ar  
     7    3    4 ar  
     8    3   28 1   
     9    4    5 ar  
    10    4   29 1   
    11    5    6 ar  
    12    5   30 1   
    13    6    7 ar  
    14    6    8 1   
    15    8    9 ar  
    16    8   23 ar  
    17    9   10 ar  
    18   10   17 ar  
    19   10   24 1   
    20   11   12 ar  
    21   11   16 ar  
    22   11   24 1   
    23   12   13 ar  
    24   12   31 1   
    25   13   14 ar  
    26   13   39 1   
    27   14   15 ar  
    28   15   16 ar  
    29   15   32 1   
    30   16   33 1   
    31   17   18 ar  
    32   17   22 ar  
    33   18   19 ar  
    34   18   34 1   
    35   19   20 ar  
    36   19   35 1   
    37   20   21 ar  
    38   20   36 1   
    39   21   22 ar  
    40   21   37 1   
    41   22   23 ar  
    42   24   38 1   
@<TRIPOS>SUBSTRUCTURE
     1 855         1 TEMP              0 ****  ****    0 ROOT
