@<TRIPOS>MOLECULE
857
   63    62     1     0     0
SMALL
bcc


@<TRIPOS>ATOM
      1 C21        -1.2750    0.0930    0.4990 ca        1 857     -0.095000
      2 C24         0.0600   -0.0630    0.1420 ca        1 857     -0.148000
      3 C25         1.0690   -0.0050    1.1270 ca        1 857     -0.005000
      4 C6          0.7120    0.2140    2.4740 ca        1 857     -0.110000
      5 C7         -0.6390    0.3670    2.7890 ca        1 857      0.081000
      6 C10        -1.6530    0.3080    1.8250 ca        1 857     -0.356000
      7 C11         8.5410    6.2410   -2.1230 c2        1 857     -0.203000
      8 N3          9.6290    6.0920   -3.0200 n2        1 857     -0.008000
      9 C12         7.5740    5.1280   -2.3600 c2        1 857     -0.245000
     10 C13         6.3850    5.0030   -1.6570 c2        1 857      0.283000
     11 C8          8.1230    4.3730   -3.4160 c2        1 857      0.037000
     12 C9          9.3840    5.0170   -3.7670 c2        1 857     -0.159000
     13 C14         4.6840    1.8740   -1.4400 c2        1 857      0.066000
     14 C15         4.5300    0.5480   -1.9040 c2        1 857     -0.147000
     15 C16         5.2270    0.1570   -3.0710 c2        1 857      0.214000
     16 C17         6.1030    1.1100   -3.8150 c3        1 857     -0.165000
     17 C1          6.2140    2.4470   -3.2710 c1        1 857     -0.222000
     18 C18         5.5150    2.7680   -2.1340 c2        1 857     -0.133000
     19 C19         3.0030   -0.1910   -0.2640 c1        1 857      0.125000
     20 N2          2.4360   -0.1810    0.8400 n2        1 857     -0.103000
     21 N4          3.7410   -0.4280   -1.2650 n2        1 857     -0.202000
     22 Cl         -3.3680    0.4900    2.2150 cl        1 857      0.538000
     23 O4          5.1840   -1.0610   -3.6260 oh        1 857     -0.194000
     24 O2          7.4510    7.3730   -0.3760 oh        1 857     -0.270000
     25 N5          8.4760    9.7170    0.9950 n2        1 857     -0.325000
     26 C22         7.9770   10.8870    0.9990 c2        1 857     -0.061000
     27 O3         -1.0320    0.6570    4.1070 os        1 857     -0.158000
     28 C23        -0.2670    0.1120    5.0700 c1        1 857     -0.023000
     29 N1          1.8630   -2.0160    5.2620 n8        1 857     -0.234000
     30 C2          2.1950   -2.1540    6.5030 c1        1 857     -0.227000
     31 C3         -0.4700    0.3310    8.8520 c3        1 857     -0.226000
     32 C4         -0.0740    0.0080    7.4710 c2        1 857      0.008000
     33 C5         -0.7250    0.4840    6.3870 c2        1 857     -0.320000
     34 C26        -4.4710    0.7480    3.3470 c2        1 857     -0.309000
     35 H21        -2.0470    0.0380   -0.2850 ha        1 857      0.142000
     36 H24         0.3230   -0.2420   -0.9120 ha        1 857      0.135000
     37 H6          1.4680    0.2630    3.2760 ha        1 857      0.174000
     38 H12         7.6470    3.4850   -3.8850 ha        1 857      0.253000
     39 H8          6.0490    5.8520   -0.9980 h4        1 857      0.213000
     40 H9         10.0720    4.6800   -4.5520 h4        1 857      0.201000
     41 H14         4.1480    2.2030   -0.5300 ha        1 857      0.173000
     42 H17         7.1400    0.6600   -3.9030 hc        1 857      0.200000
     43 H1          5.7250    1.1950   -4.8830 hc        1 857      0.200000
     44 HN2         4.6140   -1.6740   -3.1190 ho        1 857      0.286000
     45 HN5         9.2960    8.0370   -1.1570 h4        1 857      0.183000
     46 H221        7.0830   11.0830    0.3750 h4        1 857      0.125000
     47 H222        9.2790    9.5620    1.5670 hn        1 857      0.161000
     48 H223        8.3460   11.7610    1.5720 h4        1 857      0.125000
     49 H231        1.9840    0.9880    5.4180 ha        1 857      0.001500
     50 H232        2.4880    1.3290    5.1170 ha        1 857      0.001500
     51 H21A        2.1910   -2.5730    4.4980 hn        1 857      0.202000
     52 H22         0.8090   -0.6690    7.3630 ha        1 857      0.203000
     53 H31         2.9160   -2.9560    6.7590 ha        1 857      0.046000
     54 H32        -1.3510    1.0170    8.8990 hc        1 857      0.100000
     55 H41        -0.7250   -0.6140    9.3980 hc        1 857      0.100000
     56 H42         0.3880    0.8150    9.3850 hc        1 857      0.100000
     57 H5         -1.5960    1.1520    6.4970 ha        1 857      0.113000
     58 H261        1.1980   -1.2930    5.0090 hn        1 857      0.202000
     59 H262       -4.8140   -0.0580    4.0110 h4        1 857      0.120000
     60 H263       -4.6880    1.7580    3.7220 h4        1 857      0.120000
     61 H52         7.5750    8.1660    0.2020 ho        1 857      0.303000
     62 O1          5.4710    4.0600   -1.5640 os        1 857     -0.080000
     63 C20         8.4950    7.2720   -1.2170 c2        1 857      0.193000
@<TRIPOS>BOND
     1    1    2 1   
     2    1    6 1   
     3    1   35 1   
     4    2    3 1   
     5    2   36 1   
     6    3    4 1   
     7    3   20 1   
     8    4    5 1   
     9    4   37 1   
    10    5    6 1   
    11    5   27 1   
    12    6   22 1   
    13    7    8 1   
    14    7    9 1   
    15    7   63 1   
    16    8   12 1   
    17    9   10 1   
    18    9   11 1   
    19   10   39 1   
    20   10   62 1   
    21   11   12 1   
    22   11   38 1   
    23   12   40 1   
    24   13   14 1   
    25   13   18 1   
    26   13   41 1   
    27   14   15 1   
    28   14   21 1   
    29   15   16 1   
    30   15   23 1   
    31   16   17 1   
    32   16   42 1   
    33   16   43 1   
    34   17   18 1   
    35   18   62 1   
    36   19   20 1   
    37   19   21 1   
    38   22   34 1   
    39   23   44 1   
    40   24   61 1   
    41   24   63 1   
    42   25   26 1   
    43   25   47 1   
    44   26   46 1   
    45   26   48 1   
    46   27   28 1   
    47   28   33 1   
    48   29   30 1   
    49   29   51 1   
    50   29   58 1   
    51   30   53 1   
    52   31   32 1   
    53   31   54 1   
    54   31   55 1   
    55   31   56 1   
    56   32   33 1   
    57   32   52 1   
    58   33   57 1   
    59   34   59 1   
    60   34   60 1   
    61   45   63 1   
    62   49   50 1   
@<TRIPOS>SUBSTRUCTURE
     1 857         1 TEMP              0 ****  ****    0 ROOT
