@<TRIPOS>MOLECULE
857
   62    52     1     0     0
SMALL
bcc


@<TRIPOS>ATOM
      1 C21        -3.6920    1.9240    2.6640 c1        1 857     -0.098000
      2 C24        -2.3030    1.8910    2.7160 c1        1 857     -0.131000
      3 C25        -1.6460    0.7170    3.0800 c1        1 857      0.056000
      4 C6         -2.3800   -0.4190    3.3900 c2        1 857     -0.173000
      5 C7         -3.7710   -0.3840    3.3370 c1        1 857      0.084000
      6 C10        -4.4240    0.7910    2.9720 c1        1 857     -0.091000
      7 C11         6.7580    2.3680   -4.5720 c1        1 857     -0.040000
      8 N3          7.7230    2.4950   -3.6410 n1        1 857     -0.155000
      9 C12         5.5300    1.7800   -4.2330 c2        1 857     -0.145000
     10 C13         5.3110    1.3320   -2.9440 c1        1 857      0.100000
     11 C8          6.2790    1.4610   -2.0130 c1        1 857     -0.125250
     12 C9          7.5060    2.0490   -2.3550 c1        1 857     -0.125250
     13 C14         2.8800    0.5140   -0.7610 c1        1 857     -0.079000
     14 C15         1.9580    0.9260    0.2290 c1        1 857     -0.035500
     15 C16         1.5580    2.2460    0.2940 c1        1 857     -0.035500
     16 C17         2.0740    3.1910   -0.6360 c1        1 857     -0.125250
     17 C1          2.9860    2.7810   -1.6160 c1        1 857     -0.125250
     18 C18         3.3880    1.4440   -1.6780 c1        1 857      0.026000
     19 C19         0.5330    1.1320    1.9440 c1        1 857      0.171000
     20 N2         -0.1870    0.6660    3.0750 n1        1 857     -0.217000
     21 N4          1.3270    0.2370    1.2460 n1        1 857     -0.181000
     22 CL         -5.9410    1.5250    2.7660 cl        1 857      0.008000
     23 O1          4.1180    0.6700   -2.6240 o         1 857     -0.149000
     24 O4          0.6740    2.3710    1.3600 o         1 857     -0.135000
     25 C20         6.9590    2.9910   -5.9910 c1        1 857      0.351000
     26 O2          6.1020    2.8790   -6.8170 o         1 857     -0.368000
     27 N5          8.2080    3.5980   -6.3350 n2        1 857     -0.360000
     28 C22         8.2590    4.5560   -7.3370 c3        1 857     -0.080000
     29 O3         -4.5100   -1.5120    3.6780 os        1 857     -0.230000
     30 C23        -5.1370   -2.1630    2.5600 c3        1 857     -0.013000
     31 N1         -6.6910   -3.8950    2.3140 n3        1 857     -0.257000
     32 C2         -6.6060   -5.4950    2.1080 c3        1 857     -0.074000
     33 C3         -5.3190   -5.7820    1.9180 c3        1 857     -0.174000
     34 C4         -4.5510   -4.6660    2.6480 c3        1 857     -0.163000
     35 C5         -5.6350   -3.5620    2.9950 c3        1 857     -0.026000
     36 C26        -7.8680   -3.5720    3.0770 c3        1 857     -0.118000
     37 H21        -4.1660    2.7700    2.4010 ha        1 857      0.155000
     38 H24        -1.7960    2.6770    2.5010 ha        1 857      0.163000
     39 H6         -1.9110   -1.2640    3.6520 ha        1 857      0.153000
     40 H12         4.8200    1.6860   -4.9190 ha        1 857      0.187000
     41 H8          6.1200    1.1320   -1.0590 ha        1 857      0.160250
     42 H9          8.1560    2.1360   -1.7320 ha        1 857      0.160250
     43 H14         3.1710   -0.4490   -0.8080 ha        1 857      0.172000
     44 H17         1.7800    4.1700   -0.5890 ha        1 857      0.160250
     45 H1          3.3680    3.4750   -2.3020 ha        1 857      0.160250
     46 HN2         0.2470    0.2730    3.7470 hn        1 857      0.251000
     47 HN5         8.9390    3.4300   -5.8390 hn        1 857      0.241000
     48 H221        9.1630    4.7070   -7.5860 h1        1 857      0.084667
     49 H222        7.8520    5.4240   -6.9970 h1        1 857      0.084667
     50 H223        7.7180    4.2200   -8.1720 h1        1 857      0.084667
     51 H231       -4.4840   -2.2590    1.8270 h1        1 857      0.088000
     52 H232       -5.9240   -1.6080    2.2430 h1        1 857      0.088000
     53 H21A       -6.9450   -5.9670    2.9320 h1        1 857      0.082500
     54 H22        -7.1370   -5.7680    1.3190 h1        1 857      0.082500
     55 H31        -5.0940   -6.7000    2.3240 hc        1 857      0.087000
     56 H32        -5.0840   -5.7680    0.8740 hc        1 857      0.087000
     57 H41        -3.8960   -4.3090    2.0940 hc        1 857      0.092500
     58 H42        -4.1440   -5.0180    3.4740 hc        1 857      0.092500
     59 H5         -5.8410   -3.5690    3.9840 h1        1 857      0.096000
     60 H261       -8.6450   -3.8470    2.5960 h1        1 857      0.072667
     61 H262       -7.9040   -2.5960    3.2270 h1        1 857      0.072667
     62 H263       -7.8330   -4.0610    3.9900 h1        1 857      0.072667
@<TRIPOS>BOND
     1    1    6 1   
     2    1   37 1   
     3    2    3 1   
     4    2   38 1   
     5    3    4 1   
     6    4    5 1   
     7    4   39 1   
     8    5   29 1   
     9    6   22 1   
    10    7    8 1   
    11    7    9 1   
    12    9   10 1   
    13    9   40 1   
    14   10   23 1   
    15   11   12 1   
    16   11   41 1   
    17   12   42 1   
    18   13   18 1   
    19   13   43 1   
    20   14   15 1   
    21   16   17 1   
    22   16   44 1   
    23   17   45 1   
    24   19   21 1   
    25   19   24 1   
    26   20   46 1   
    27   25   26 1   
    28   27   28 1   
    29   27   47 1   
    30   28   48 1   
    31   28   49 1   
    32   28   50 1   
    33   29   30 1   
    34   30   35 1   
    35   30   51 1   
    36   30   52 1   
    37   31   32 1   
    38   31   35 1   
    39   31   36 1   
    40   32   33 1   
    41   32   53 1   
    42   32   54 1   
    43   33   34 1   
    44   33   55 1   
    45   33   56 1   
    46   34   35 1   
    47   34   57 1   
    48   34   58 1   
    49   35   59 1   
    50   36   60 1   
    51   36   61 1   
    52   36   62 1   
@<TRIPOS>SUBSTRUCTURE
     1 857         1 TEMP              0 ****  ****    0 ROOT
