@<TRIPOS>MOLECULE
857
   62    66     1     0     0
SMALL
bcc


@<TRIPOS>ATOM
      1 C21        -3.1310    1.6910    1.8970 ca        1 857     -0.078000
      2 C24        -2.1860    1.7740    0.8780 ca        1 857     -0.160000
      3 C25        -2.3530    1.0210   -0.2990 ca        1 857      0.164600
      4 C6         -3.4860    0.1870   -0.4320 ca        1 857     -0.239000
      5 C7         -4.4340    0.1230    0.5940 ca        1 857      0.166100
      6 C10        -4.2590    0.8810    1.7730 ca        1 857     -0.025600
      7 C11         7.4210   -1.1420    0.4340 ca        1 857      0.385800
      8 N3          8.7020   -0.9900    0.0210 nb        1 857     -0.681000
      9 C12         6.3510   -0.3640   -0.0530 ca        1 857     -0.255300
     10 C13         6.6390    0.6150   -1.0130 ca        1 857      0.147100
     11 C8          7.9620    0.7930   -1.4560 ca        1 857     -0.253300
     12 C9          8.9460   -0.0400   -0.9000 ca        1 857      0.415200
     13 C14         3.3970    1.0560   -2.0140 ca        1 857     -0.081000
     14 C15         2.0810    1.1460   -1.5580 ca        1 857      0.100400
     15 C16         1.8340    1.5590   -0.2030 ca        1 857      0.015100
     16 C17         2.8350    1.8810    0.6990 ca        1 857     -0.085000
     17 C1          4.1450    1.7940    0.2270 ca        1 857     -0.140000
     18 C18         4.4010    1.3940   -1.0960 ca        1 857      0.073100
     19 C19        -0.0880    1.1470   -1.2540 cc        1 857      0.746500
     20 N2         -1.4670    1.1350   -1.3940 nh        1 857     -0.658600
     21 N4          0.8500    0.8860   -2.1930 nd        1 857     -0.612100
     22 CL         -5.3810    0.8330    3.0460 cl        1 857     -0.070400
     23 O4          0.4540    1.5650    0.0090 os        1 857     -0.309700
     24 O2          6.0710   -2.0040    2.2060 o         1 857     -0.610100
     25 N5          7.8720   -3.2870    1.5910 n         1 857     -0.549900
     26 C22         7.6660   -4.2750    2.6040 c3        1 857      0.075300
     27 O3         -5.5460   -0.6870    0.5440 os        1 857     -0.317900
     28 C23        -5.8850   -1.2280   -0.7410 c3        1 857      0.134400
     29 N1         -8.3430   -0.8270   -0.5920 n3        1 857     -0.729600
     30 C2         -9.4330   -1.3090   -1.4400 c3        1 857      0.161800
     31 C3         -8.9830   -2.5870   -2.1640 c3        1 857     -0.091400
     32 C4         -7.5550   -2.8500   -1.7080 c3        1 857     -0.084400
     33 C5         -7.2830   -1.8470   -0.5670 c3        1 857      0.171500
     34 C26        -8.7510   -0.3780    0.7150 c3        1 857      0.155100
     35 H21        -2.9840    2.2850    2.8140 ha        1 857      0.154000
     36 H24        -1.3140    2.4340    1.0080 ha        1 857      0.163000
     37 H6         -3.6260   -0.4150   -1.3420 ha        1 857      0.144000
     38 H12         5.3320   -0.5260    0.3300 ha        1 857      0.183000
     39 H8          8.2080    1.5540   -2.2070 ha        1 857      0.164000
     40 H9         10.0020    0.0590   -1.2120 h4        1 857      0.029100
     41 H14         3.6420    0.7510   -3.0410 ha        1 857      0.170000
     42 H17         2.6110    2.1870    1.7300 ha        1 857      0.161000
     43 H1          4.9880    2.0370    0.8920 ha        1 857      0.157000
     44 HN2        -1.7800    0.6990   -2.2410 hn        1 857      0.454800
     45 HN5         8.7200   -3.3330    1.0770 hn        1 857      0.327500
     46 H221        6.6430   -4.1650    3.0520 h1        1 857      0.046033
     47 H222        7.7620   -5.2970    2.1480 h1        1 857      0.046033
     48 H223        8.4310   -4.1730    3.4210 h1        1 857      0.046033
     49 H231       -5.8750   -0.4240   -1.5190 h1        1 857      0.049200
     50 H232       -5.1470   -2.0330   -0.9980 h1        1 857      0.049200
     51 H21A      -10.3710   -1.5090   -0.8520 h1        1 857      0.042200
     52 H22        -9.6600   -0.4940   -2.1800 h1        1 857      0.042200
     53 H31        -9.6520   -3.4420   -1.8970 hc        1 857      0.049200
     54 H32        -9.0330   -2.4480   -3.2710 hc        1 857      0.049200
     55 H41        -7.4280   -3.8960   -1.3380 hc        1 857      0.049700
     56 H42        -6.8380   -2.6950   -2.5520 hc        1 857      0.049700
     57 H5         -7.2790   -2.4000    0.4200 h1        1 857      0.054700
     58 H261       -9.2590   -1.1730    1.3280 h1        1 857      0.038700
     59 H262       -7.8400   -0.0250    1.2690 h1        1 857      0.038700
     60 H263       -9.4610    0.4800    0.5860 h1        1 857      0.038700
     61 O1          5.7030    1.4430   -1.6070 os        1 857     -0.242200
     62 C20         7.0790   -2.1690    1.4890 c         1 857      0.566600
@<TRIPOS>BOND
     1    1    2 ar  
     2    1    6 ar  
     3    1   35 1   
     4    2    3 ar  
     5    2   36 1   
     6    3    4 ar  
     7    3   20 1   
     8    4    5 ar  
     9    4   37 1   
    10    5    6 ar  
    11    5   27 1   
    12    6   22 1   
    13    7    8 ar  
    14    7    9 ar  
    15    7   62 1   
    16    8   12 ar  
    17    9   10 ar  
    18    9   38 1   
    19   10   11 ar  
    20   10   61 1   
    21   11   12 ar  
    22   11   39 1   
    23   12   40 1   
    24   13   14 ar  
    25   13   18 ar  
    26   13   41 1   
    27   14   15 ar  
    28   14   21 1   
    29   15   16 ar  
    30   15   23 1   
    31   16   17 ar  
    32   16   42 1   
    33   17   18 ar  
    34   17   43 1   
    35   18   61 1   
    36   19   20 1   
    37   19   21 2   
    38   19   23 1   
    39   20   44 1   
    40   24   62 2   
    41   25   26 1   
    42   25   45 1   
    43   25   62 1   
    44   26   46 1   
    45   26   47 1   
    46   26   48 1   
    47   27   28 1   
    48   28   33 1   
    49   28   49 1   
    50   28   50 1   
    51   29   30 1   
    52   29   33 1   
    53   29   34 1   
    54   30   31 1   
    55   30   51 1   
    56   30   52 1   
    57   31   32 1   
    58   31   53 1   
    59   31   54 1   
    60   32   33 1   
    61   32   55 1   
    62   32   56 1   
    63   33   57 1   
    64   34   58 1   
    65   34   59 1   
    66   34   60 1   
@<TRIPOS>SUBSTRUCTURE
     1 857         1 TEMP              0 ****  ****    0 ROOT
