@<TRIPOS>MOLECULE
859
   39    41     1     0     0
SMALL
bcc


@<TRIPOS>ATOM
      1 C1          1.2460    0.8130    7.1280 ca        1 859      0.899900
      2 N2          1.6940   -0.1610    6.2580 nb        1 859     -0.791000
      3 C3          1.0700   -0.2270    5.0390 ca        1 859      0.715200
      4 C4          0.0200    0.6810    4.6900 ca        1 859     -0.459600
      5 C5         -0.3610    1.6100    5.6630 ca        1 859      0.483200
      6 N6          0.2050    1.7040    6.8750 nb        1 859     -0.773000
      7 N7          1.4200   -1.2080    4.1090 nh        1 859     -0.745300
      8 C8          2.4510   -2.1460    4.2880 ca        1 859      0.203600
      9 C9          3.4220   -2.3580    3.2750 ca        1 859     -0.185600
     10 C10         4.3680   -3.3790    3.4170 ca        1 859     -0.090000
     11 C11         4.3900   -4.1760    4.5550 ca        1 859     -0.153000
     12 C12         3.4570   -3.9550    5.5690 ca        1 859     -0.092000
     13 C13         2.4960   -2.9600    5.4440 ca        1 859     -0.126000
     14 N14         1.9010    0.9820    8.3650 nh        1 859     -0.719300
     15 C15         2.8170    0.0490    8.8960 ca        1 859      0.174600
     16 C16         2.6140   -0.4510   10.2060 ca        1 859     -0.204000
     17 C17         3.5530   -1.2920   10.7890 ca        1 859     -0.077000
     18 C18         4.7050   -1.6660   10.1010 ca        1 859     -0.229000
     19 C19         4.9050   -1.1720    8.8060 ca        1 859      0.133100
     20 C20         3.9780   -0.3160    8.1920 ca        1 859     -0.140000
     21 O21         6.0220   -1.4840    8.0620 oh        1 859     -0.497100
     22 C22         3.4380   -1.5160    2.0460 c         1 859      0.677700
     23 N23         4.6520   -1.0530    1.6040 n         1 859     -0.665000
     24 O24         2.4000   -1.2190    1.4120 o         1 859     -0.637100
     25 H4         -0.4730    0.6480    3.7120 ha        1 859      0.160000
     26 H5         -1.1780    2.3300    5.4670 h4        1 859      0.027100
     27 HN7         1.1870   -0.9930    3.1560 hn        1 859      0.472800
     28 H10         5.0980   -3.5640    2.6130 ha        1 859      0.134000
     29 H11         5.1380   -4.9750    4.6550 ha        1 859      0.136000
     30 H12         3.4760   -4.5780    6.4770 ha        1 859      0.137000
     31 H13         1.7640   -2.8120    6.2540 ha        1 859      0.158000
     32 HN14        1.3730    1.4830    9.0520 hn        1 859      0.445800
     33 H16         1.7130   -0.1730   10.7730 ha        1 859      0.135000
     34 H17         3.3820   -1.6710   11.8090 ha        1 859      0.134000
     35 H18         5.4430   -2.3320   10.5660 ha        1 859      0.134000
     36 H20         4.1810    0.0480    7.1730 ha        1 859      0.171000
     37 HO21        6.5840   -2.0610    8.6010 ho        1 859      0.417000
     38 H231        5.4780   -1.2210    2.1170 hn        1 859      0.316000
     39 H232        4.6900   -0.4760    0.8010 hn        1 859      0.316000
@<TRIPOS>BOND
     1    1    2 ar  
     2    1    6 ar  
     3    1   14 1   
     4    2    3 ar  
     5    3    4 ar  
     6    3    7 1   
     7    4    5 ar  
     8    4   25 1   
     9    5    6 ar  
    10    5   26 1   
    11    7    8 1   
    12    7   27 1   
    13    8    9 ar  
    14    8   13 ar  
    15    9   10 ar  
    16    9   22 1   
    17   10   11 ar  
    18   10   28 1   
    19   11   12 ar  
    20   11   29 1   
    21   12   13 ar  
    22   12   30 1   
    23   13   31 1   
    24   14   15 1   
    25   14   32 1   
    26   15   16 ar  
    27   15   20 ar  
    28   16   17 ar  
    29   16   33 1   
    30   17   18 ar  
    31   17   34 1   
    32   18   19 ar  
    33   18   35 1   
    34   19   20 ar  
    35   19   21 1   
    36   20   36 1   
    37   21   37 1   
    38   22   23 1   
    39   22   24 2   
    40   23   38 1   
    41   23   39 1   
@<TRIPOS>SUBSTRUCTURE
     1 859         1 TEMP              0 ****  ****    0 ROOT
