@<TRIPOS>MOLECULE
859
   40    42     1     0     0
SMALL
bcc


@<TRIPOS>ATOM
      1 C1          0.2630    0.0180    0.1460 ca        1 859      0.924900
      2 N2          1.6330   -0.1710    0.2120 nb        1 859     -0.832000
      3 C3          2.2320    0.1190    1.4070 ca        1 859      0.639200
      4 C4          1.4950    0.5710    2.5260 ca        1 859     -0.435600
      5 C5          0.1050    0.7350    2.3460 ca        1 859      0.500200
      6 N6         -0.5290    0.4880    1.1990 nb        1 859     -0.723000
      7 N7          3.6440   -0.1250    1.5130 nu        1 859     -0.743300
      8 C8          4.4750    0.6370    0.6310 ca        1 859      0.138600
      9 C9          5.2390   -0.0230   -0.3590 ca        1 859     -0.174600
     10 C10         6.1370    0.6980   -1.1620 ca        1 859     -0.058000
     11 C11         6.2560    2.0760   -1.0150 ca        1 859     -0.119000
     12 C12         5.4910    2.7410   -0.0560 ca        1 859     -0.057000
     13 C13         4.6160    2.0310    0.7630 ca        1 859     -0.147000
     14 N14        -0.4040   -0.2600   -1.0490 nu        1 859     -0.741300
     15 C15         0.1980   -0.8850   -2.1550 ca        1 859      0.196600
     16 C16        -0.0470   -0.3970   -3.4590 ca        1 859     -0.171000
     17 C17         0.5400   -1.0160   -4.5580 ca        1 859     -0.060000
     18 C18         1.4070   -2.0980   -4.3990 ca        1 859     -0.195000
     19 C19         1.6430   -2.5790   -3.1080 ca        1 859      0.106100
     20 C20         1.0130   -2.0220   -1.9880 ca        1 859     -0.217000
     21 O21         2.5510   -3.5870   -2.8420 oh        1 859     -0.562100
     22 C22         5.1790   -1.4740   -0.5750 c         1 859      0.585700
     23 N23         3.8050   -2.0670   -0.7120 nz        1 859     -0.747400
     24 O24         6.1060   -2.2610   -0.7080 o         1 859     -0.423100
     25 H4          1.9620    0.7870    3.4940 ha        1 859      0.170000
     26 H5         -0.5340    1.0950    3.1780 h4        1 859      0.055100
     27 HN7         3.9440    0.0020    2.4670 hn        1 859      0.423800
     28 H10         6.7520    0.1640   -1.9060 ha        1 859      0.165000
     29 H11         6.9600    2.6380   -1.6520 ha        1 859      0.170000
     30 H12         5.5830    3.8340    0.0620 ha        1 859      0.167000
     31 H13         4.0300    2.5740    1.5250 ha        1 859      0.162000
     32 HN14       -1.3400    0.0710   -1.1510 hn        1 859      0.483800
     33 H16        -0.7070    0.4710   -3.6150 ha        1 859      0.158000
     34 H17         0.3270   -0.6370   -5.5710 ha        1 859      0.159000
     35 H18         1.8830   -2.5690   -5.2710 ha        1 859      0.156000
     36 H20         1.1160   -2.5100   -1.0080 ha        1 859      0.147000
     37 HO21        2.6270   -4.1450   -3.6310 ho        1 859      0.454000
     38 H231        3.8440   -2.9660   -1.2130 hn        1 859      0.480800
     39 H232        3.1870   -1.4250   -1.2310 hn        1 859      0.480800
     40 H233        3.3990   -2.2240    0.2180 hn        1 859      0.480800
@<TRIPOS>BOND
     1    1    2 ar  
     2    1    6 ar  
     3    1   14 1   
     4    2    3 ar  
     5    3    4 ar  
     6    3    7 1   
     7    4    5 ar  
     8    4   25 1   
     9    5    6 ar  
    10    5   26 1   
    11    7    8 1   
    12    7   27 1   
    13    8    9 ar  
    14    8   13 ar  
    15    9   10 ar  
    16    9   22 1   
    17   10   11 ar  
    18   10   28 1   
    19   11   12 ar  
    20   11   29 1   
    21   12   13 ar  
    22   12   30 1   
    23   13   31 1   
    24   14   15 1   
    25   14   32 1   
    26   15   16 ar  
    27   15   20 ar  
    28   16   17 ar  
    29   16   33 1   
    30   17   18 ar  
    31   17   34 1   
    32   18   19 ar  
    33   18   35 1   
    34   19   20 ar  
    35   19   21 1   
    36   20   36 1   
    37   21   37 1   
    38   22   23 1   
    39   22   24 2   
    40   23   38 1   
    41   23   39 1   
    42   23   40 1   
@<TRIPOS>SUBSTRUCTURE
     1 859         1 TEMP              0 ****  ****    0 ROOT
