@<TRIPOS>MOLECULE
859
   42    44     1     0     0
SMALL
bcc


@<TRIPOS>ATOM
      1 C1          0.2760   -0.0360   -0.6350 ca        1 859      0.779900
      2 N2          1.4500    0.3640   -0.0610 nb        1 859     -0.677000
      3 C3          2.1730   -0.6260    0.5540 ca        1 859      0.516200
      4 C4          1.7680   -1.9720    0.5740 ca        1 859     -0.272600
      5 C5          0.5320   -2.2640   -0.0730 ca        1 859      0.509200
      6 N6         -0.2170   -1.3280   -0.6650 nb        1 859     -0.596000
      7 N7          3.3920   -0.1970    1.2950 n4        1 859     -0.638100
      8 C8          4.6710   -0.6260    0.7000 ca        1 859      0.020600
      9 C9          5.8480   -0.7770    1.5040 ca        1 859     -0.179600
     10 C10         7.0320   -1.1730    0.8680 ca        1 859     -0.049000
     11 C11         7.0850   -1.4010   -0.5110 ca        1 859     -0.061000
     12 C12         5.9430   -1.2290   -1.2850 ca        1 859     -0.019000
     13 C13         4.7380   -0.8410   -0.6790 ca        1 859     -0.086000
     14 N14        -0.5690    1.0140   -1.2920 n4        1 859     -0.606100
     15 C15        -0.5280    0.9240   -2.7610 ca        1 859     -0.047400
     16 C16         0.2410    1.8530   -3.4820 ca        1 859     -0.149000
     17 C17         0.1840    1.8270   -4.8770 ca        1 859     -0.056000
     18 C18        -0.6010    0.8940   -5.5470 ca        1 859     -0.140000
     19 C19        -1.3490   -0.0420   -4.8100 ca        1 859      0.178100
     20 C20        -1.3230   -0.0380   -3.4010 ca        1 859     -0.143000
     21 O21        -2.1300   -1.0070   -5.3730 oh        1 859     -0.459100
     22 C22         5.8230   -0.5160    2.9490 c         1 859      0.571700
     23 N23         7.0970   -0.5820    3.7380 n4        1 859     -0.741400
     24 O24         4.8350   -0.2270    3.6240 o         1 859     -0.455100
     25 H4          2.3370   -2.7810    1.0610 ha        1 859      0.214000
     26 H5          0.1290   -3.3070   -0.1010 h4        1 859      0.122100
     27 HN7         3.4120    0.8390    1.3710 hn        1 859      0.496300
     28 H10         7.9710   -1.3230    1.4300 ha        1 859      0.168000
     29 H11         8.0390   -1.7150   -0.9820 ha        1 859      0.220000
     30 H12         5.9760   -1.3940   -2.3810 ha        1 859      0.215000
     31 H13         3.8520   -0.7060   -1.3270 ha        1 859      0.182000
     32 HN14       -1.5500    0.8750   -0.9820 hn        1 859      0.498800
     33 H16         0.8590    2.6150   -2.9820 ha        1 859      0.157000
     34 H17         0.7650    2.5690   -5.4540 ha        1 859      0.188000
     35 H18        -0.6450    0.8930   -6.6510 ha        1 859      0.191000
     36 H20        -1.9390   -0.7750   -2.8600 ha        1 859      0.190000
     37 HO21       -2.1630   -0.8750   -6.3380 ho        1 859      0.466000
     38 H231        7.7940    0.0760    3.3600 hn        1 859      0.499133
     39 H232        6.9040   -0.3270    4.7260 hn        1 859      0.499133
     40 H72         3.2990   -0.5880    2.2520 hn        1 859      0.496300
     41 H142       -0.2510    1.9530   -1.0010 hn        1 859      0.498800
     42 H233        7.4890   -1.5340    3.7180 hn        1 859      0.499133
@<TRIPOS>BOND
     1    1    2 ar  
     2    1    6 ar  
     3    1   14 1   
     4    2    3 ar  
     5    3    4 ar  
     6    3    7 1   
     7    4    5 ar  
     8    4   25 1   
     9    5    6 ar  
    10    5   26 1   
    11    7    8 1   
    12    7   27 1   
    13    7   40 1   
    14    8    9 ar  
    15    8   13 ar  
    16    9   10 ar  
    17    9   22 1   
    18   10   11 ar  
    19   10   28 1   
    20   11   12 ar  
    21   11   29 1   
    22   12   13 ar  
    23   12   30 1   
    24   13   31 1   
    25   14   15 1   
    26   14   32 1   
    27   14   41 1   
    28   15   16 ar  
    29   15   20 ar  
    30   16   17 ar  
    31   16   33 1   
    32   17   18 ar  
    33   17   34 1   
    34   18   19 ar  
    35   18   35 1   
    36   19   20 ar  
    37   19   21 1   
    38   20   36 1   
    39   21   37 1   
    40   22   23 1   
    41   22   24 2   
    42   23   38 1   
    43   23   39 1   
    44   23   42 1   
@<TRIPOS>SUBSTRUCTURE
     1 859         1 TEMP              0 ****  ****    0 ROOT
