@<TRIPOS>MOLECULE
859
   40    42     1     0     0
SMALL
bcc


@<TRIPOS>ATOM
      1 C1          0.2730    0.0520    0.1560 ca        1 859      0.924900
      2 N2          1.6400   -0.1580    0.2160 nb        1 859     -0.832000
      3 C3          2.2480    0.1200    1.4090 ca        1 859      0.639200
      4 C4          1.5230    0.5810    2.5330 ca        1 859     -0.435600
      5 C5          0.1350    0.7660    2.3590 ca        1 859      0.500200
      6 N6         -0.5070    0.5310    1.2140 nb        1 859     -0.723000
      7 N7          3.6560   -0.1450    1.5090 nh        1 859     -0.743300
      8 C8          4.4960    0.6070    0.6260 ca        1 859      0.138600
      9 C9          5.2460   -0.0620   -0.3690 ca        1 859     -0.174600
     10 C10         6.1510    0.6480   -1.1730 ca        1 859     -0.058000
     11 C11         6.2920    2.0240   -1.0240 ca        1 859     -0.119000
     12 C12         5.5400    2.6970   -0.0600 ca        1 859     -0.057000
     13 C13         4.6570    1.9990    0.7610 ca        1 859     -0.147000
     14 N14        -0.4030   -0.2130   -1.0370 nh        1 859     -0.741300
     15 C15         0.1850   -0.8450   -2.1460 ca        1 859      0.196600
     16 C16        -0.0580   -0.3510   -3.4480 ca        1 859     -0.171000
     17 C17         0.5150   -0.9770   -4.5510 ca        1 859     -0.060000
     18 C18         1.3660   -2.0710   -4.3980 ca        1 859     -0.195000
     19 C19         1.6000   -2.5580   -3.1090 ca        1 859      0.106100
     20 C20         0.9830   -1.9940   -1.9850 ca        1 859     -0.217000
     21 O21         2.4940   -3.5810   -2.8480 oh        1 859     -0.562100
     22 C22         5.1630   -1.5110   -0.5880 c         1 859      0.585700
     23 N23         3.7800   -2.0830   -0.7210 n4        1 859     -0.747400
     24 O24         6.0770   -2.3120   -0.7280 o         1 859     -0.423100
     25 H4          1.9970    0.7880    3.4990 ha        1 859      0.170000
     26 H5         -0.4950    1.1340    3.1940 h4        1 859      0.055100
     27 HN7         3.9620   -0.0250    2.4620 hn        1 859      0.423800
     28 H10         6.7550    0.1070   -1.9220 ha        1 859      0.165000
     29 H11         7.0010    2.5760   -1.6620 ha        1 859      0.170000
     30 H12         5.6490    3.7890    0.0600 ha        1 859      0.167000
     31 H13         4.0840    2.5480    1.5270 ha        1 859      0.162000
     32 HN14       -1.3350    0.1320   -1.1340 hn        1 859      0.483800
     33 H16        -0.7060    0.5270   -3.6000 ha        1 859      0.158000
     34 H17         0.3030   -0.5920   -5.5630 ha        1 859      0.159000
     35 H18         1.8320   -2.5480   -5.2730 ha        1 859      0.156000
     36 H20         1.0830   -2.4860   -1.0060 ha        1 859      0.147000
     37 HO21        2.5590   -4.1380   -3.6390 ho        1 859      0.454000
     38 H231        3.8030   -2.9820   -1.2240 hn        1 859      0.480800
     39 H232        3.3760   -2.2370    0.2100 hn        1 859      0.480800
     40 H233        3.1690   -1.4310   -1.2360 hn        1 859      0.480800
@<TRIPOS>BOND
     1    1    2 ar  
     2    1    6 ar  
     3    1   14 1   
     4    2    3 ar  
     5    3    4 ar  
     6    3    7 1   
     7    4    5 ar  
     8    4   25 1   
     9    5    6 ar  
    10    5   26 1   
    11    7    8 1   
    12    7   27 1   
    13    8    9 ar  
    14    8   13 ar  
    15    9   10 ar  
    16    9   22 1   
    17   10   11 ar  
    18   10   28 1   
    19   11   12 ar  
    20   11   29 1   
    21   12   13 ar  
    22   12   30 1   
    23   13   31 1   
    24   14   15 1   
    25   14   32 1   
    26   15   16 ar  
    27   15   20 ar  
    28   16   17 ar  
    29   16   33 1   
    30   17   18 ar  
    31   17   34 1   
    32   18   19 ar  
    33   18   35 1   
    34   19   20 ar  
    35   19   21 1   
    36   20   36 1   
    37   21   37 1   
    38   22   23 1   
    39   22   24 2   
    40   23   38 1   
    41   23   39 1   
    42   23   40 1   
@<TRIPOS>SUBSTRUCTURE
     1 859         1 TEMP              0 ****  ****    0 ROOT
