@<TRIPOS>MOLECULE
859
   39    34     1     0     0
SMALL
bcc


@<TRIPOS>ATOM
      1 C1         -1.1360    0.5080   -0.9470 c1        1 859      0.177000
      2 N2          0.2270    0.4700   -0.9480 n1        1 859     -0.273000
      3 C3          0.9000    0.5470    0.2100 c1        1 859      0.191000
      4 C4          0.2210    0.6640    1.3870 c1        1 859     -0.138250
      5 C5         -1.1430    0.7020    1.3870 c1        1 859     -0.138250
      6 N6         -1.8150    0.6240    0.2280 n1        1 859     -0.222000
      7 N7          2.3170    0.4710    0.2120 n3        1 859     -0.268000
      8 C8          2.9670   -0.6360    0.8170 c2        1 859      0.130000
      9 C9          3.9500   -0.4260    1.7710 c2        1 859     -0.166000
     10 C10         4.6220   -1.5050    2.3240 c1        1 859     -0.077000
     11 C11         4.3110   -2.7940    1.9220 c1        1 859     -0.138250
     12 C12         3.3280   -3.0050    0.9680 c1        1 859     -0.138250
     13 C13         2.6560   -1.9260    0.4150 c1        1 859     -0.188000
     14 N14        -1.8460    0.4570   -2.1740 n3        1 859     -0.230000
     15 C15        -3.2650    0.4300   -2.1720 c2        1 859      0.088000
     16 C16        -3.9360   -0.6850   -1.6930 c2        1 859     -0.140000
     17 C17        -5.3210   -0.7300   -1.7330 c1        1 859     -0.090000
     18 C18        -6.0350    0.3390   -2.2510 c1        1 859     -0.165000
     19 C19        -5.3640    1.4530   -2.7300 c1        1 859      0.093000
     20 C20        -3.9790    1.4990   -2.6900 c1        1 859     -0.253000
     21 O21        -6.0910    2.5620   -3.2030 oh        1 859     -0.252000
     22 C22         4.3120    0.9840    2.1870 c2        1 859      0.354000
     23 N23         5.3190    1.2000    3.1640 n         1 859     -0.427000
     24 O24         3.7520    1.9320    1.6720 o         1 859     -0.385000
     25 H4          0.7110    0.7200    2.2300 ha        1 859      0.151000
     26 H5         -1.6300    0.7850    2.2290 ha        1 859      0.151000
     27 HN7         2.8100    1.1230   -0.1930 hn        1 859      0.275000
     28 H10         5.3140   -1.3570    2.9950 ha        1 859      0.138000
     29 H11         4.7840   -3.5540    2.3110 ha        1 859      0.151000
     30 H12         3.1090   -3.9130    0.6850 ha        1 859      0.151000
     31 H13         1.9640   -2.0740   -0.2570 ha        1 859      0.151000
     32 HN14       -1.3920    0.4440   -2.9650 hn        1 859      0.235000
     33 H16        -3.4330   -1.4370   -1.3280 ha        1 859      0.157000
     34 H17        -5.7930   -1.5150   -1.3960 ha        1 859      0.137000
     35 H18        -7.0100    0.3070   -2.2790 ha        1 859      0.151000
     36 H20        -3.5070    2.2840   -3.0280 ha        1 859      0.134000
     37 HO21       -6.1630    2.5140   -4.0870 ho        1 859      0.218000
     38 H231        5.7510    0.4880    3.5380 hn        1 859      0.228000
     39 H232        5.5300    2.0510    3.4220 hn        1 859      0.228000
@<TRIPOS>BOND
     1    1    6 1   
     2    1   14 1   
     3    2    3 1   
     4    3    7 1   
     5    4    5 1   
     6    4   25 1   
     7    5   26 1   
     8    7    8 1   
     9    7   27 1   
    10    8    9 1   
    11    8   13 1   
    12    9   10 1   
    13    9   22 1   
    14   10   28 1   
    15   11   12 1   
    16   11   29 1   
    17   12   30 1   
    18   13   31 1   
    19   14   15 1   
    20   14   32 1   
    21   15   16 1   
    22   15   20 1   
    23   16   17 1   
    24   16   33 1   
    25   17   34 1   
    26   18   19 1   
    27   18   35 1   
    28   19   21 1   
    29   20   36 1   
    30   21   37 1   
    31   22   23 1   
    32   22   24 1   
    33   23   38 1   
    34   23   39 1   
@<TRIPOS>SUBSTRUCTURE
     1 859         1 TEMP              0 ****  ****    0 ROOT
