@<TRIPOS>MOLECULE
85A
   56    51     1     0     0
SMALL
bcc


@<TRIPOS>ATOM
      1 C1         -0.2650    0.0590    1.2480 c1        1 85A     -0.240000
      2 C2          1.1060    0.1430    1.2000 c1        1 85A      0.114000
      3 C3          1.8740    0.2640    2.4450 c1        1 85A     -0.023000
      4 C4          1.2240    0.2940    3.6490 c2        1 85A     -0.112000
      5 C5         -0.1810    0.2090    3.6950 c1        1 85A     -0.090000
      6 C6         -0.9290    0.0900    2.4880 c2        1 85A      0.068000
      7 N7         -2.3710    0.1760    2.5260 n3        1 85A     -0.256000
      8 CL8        -1.0120    0.3860    5.2180 cl        1 85A      0.006000
      9 C9          1.4110    3.6920   -4.0180 c1        1 85A     -0.067000
     10 N10         0.8960    4.2720   -4.8540 n1        1 85A     -0.012000
     11 N11         3.3180    0.4520    2.3930 n2        1 85A     -0.276000
     12 C12         3.6240    1.4680    1.4640 c2        1 85A      0.365000
     13 N13         4.0300    0.8720    0.2090 n         1 85A     -0.266000
     14 O14         2.9930    2.5060    1.4690 o         1 85A     -0.330000
     15 C15         3.3810    1.5650   -0.8960 c2        1 85A      0.108000
     16 N16         3.1020    0.8650   -2.0940 n2        1 85A     -0.231000
     17 C17         2.4410    1.5950   -3.1050 c1        1 85A      0.141000
     18 C18         2.0960    2.9220   -2.9070 c1        1 85A     -0.027000
     19 N19         2.3850    3.5440   -1.7460 n1        1 85A     -0.036000
     20 C20         3.0140    2.8920   -0.7520 c1        1 85A     -0.129000
     21 O21         1.7960   -0.0980   -0.0490 os        1 85A     -0.223000
     22 C22         0.9970   -0.7880   -1.0370 c3        1 85A     -0.015000
     23 C23         0.7260   -1.0350   -3.9060 c3        1 85A     -0.177000
     24 C24         0.7290    0.4860   -4.2030 c3        1 85A     -0.011000
     25 O25         2.0650    0.9450   -4.3060 o         1 85A     -0.185000
     26 C26         1.8840   -1.8760   -1.7780 c3        1 85A     -0.153000
     27 C27         2.1050   -1.4500   -3.2610 c3        1 85A     -0.144000
     28 C28        -3.1290   -0.7640    3.3170 c3        1 85A     -0.034000
     29 C29        -4.3620   -1.2380    2.5150 c2        1 85A     -0.081000
     30 C30        -5.5860   -0.6740    2.7460 c2        1 85A     -0.172000
     31 C31        -6.7090   -1.1560    2.0840 c1        1 85A     -0.069000
     32 N32        -6.5910   -2.1900    1.2070 n1        1 85A     -0.134000
     33 C33        -5.3700   -2.7550    0.9750 c1        1 85A     -0.068000
     34 C34        -4.2460   -2.2750    1.6340 c1        1 85A     -0.184000
     35 H20         3.2130    3.3600    0.0810 ha        1 85A      0.211000
     36 H13         4.8810    0.5470    0.1100 hn        1 85A      0.256000
     37 H11         3.8190    0.3630    3.1560 hn        1 85A      0.217000
     38 H4          1.7380    0.3750    4.4810 ha        1 85A      0.157000
     39 H1         -0.7820   -0.0220    0.4160 ha        1 85A      0.146000
     40 H221        0.2440   -1.2280   -0.5960 h1        1 85A      0.084500
     41 H222        0.6570   -0.1360   -1.6980 h1        1 85A      0.084500
     42 H261        2.7500   -1.9530   -1.3280 hc        1 85A      0.093000
     43 H262        1.4240   -2.7460   -1.7520 hc        1 85A      0.093000
     44 H271        2.7200   -0.6920   -3.2930 hc        1 85A      0.089500
     45 H272        2.4860   -2.2010   -3.7630 hc        1 85A      0.089500
     46 H231       -0.0040   -1.2460   -3.2820 hc        1 85A      0.090500
     47 H232        0.5950   -1.5300   -4.7410 hc        1 85A      0.090500
     48 H241        0.2730    0.9650   -3.4720 h1        1 85A      0.102000
     49 H242        0.2570    0.6560   -5.0520 h1        1 85A      0.102000
     50 HN7        -2.8010    0.8050    2.0330 hn        1 85A      0.184000
     51 H281       -2.5650   -1.5370    3.5360 h1        1 85A      0.118000
     52 H282       -3.4260   -0.3290    4.1490 h1        1 85A      0.118000
     53 H34        -3.3730   -2.6790    1.4680 ha        1 85A      0.149000
     54 H33        -5.2870   -3.4960    0.3450 ha        1 85A      0.162000
     55 H31        -7.5950   -0.7480    2.2520 ha        1 85A      0.162000
     56 H30        -5.6710    0.0740    3.3800 ha        1 85A      0.146000
@<TRIPOS>BOND
     1    1    6 1   
     2    1   39 1   
     3    2    3 1   
     4    2   21 1   
     5    3    4 1   
     6    4    5 1   
     7    4   38 1   
     8    5    6 1   
     9    6    7 1   
    10    7   28 1   
    11    7   50 1   
    12    9   10 1   
    13   11   12 1   
    14   11   37 1   
    15   12   13 1   
    16   12   14 1   
    17   13   15 1   
    18   13   36 1   
    19   15   16 1   
    20   15   20 1   
    21   16   17 1   
    22   17   18 1   
    23   18   19 1   
    24   20   35 1   
    25   21   22 1   
    26   22   26 1   
    27   22   40 1   
    28   22   41 1   
    29   23   24 1   
    30   23   27 1   
    31   23   46 1   
    32   23   47 1   
    33   24   25 1   
    34   24   48 1   
    35   24   49 1   
    36   26   27 1   
    37   26   42 1   
    38   26   43 1   
    39   27   44 1   
    40   27   45 1   
    41   28   29 1   
    42   28   51 1   
    43   28   52 1   
    44   29   30 1   
    45   29   34 1   
    46   30   31 1   
    47   30   56 1   
    48   31   55 1   
    49   32   33 1   
    50   33   54 1   
    51   34   53 1   
@<TRIPOS>SUBSTRUCTURE
     1 85A         1 TEMP              0 ****  ****    0 ROOT
