@<TRIPOS>MOLECULE
85A
   59    62     1     0     0
SMALL
bcc


@<TRIPOS>ATOM
      1 C1         -0.1730   -0.3550   -0.1830 ca        1 85A     -0.170000
      2 C2          1.2230   -0.2100   -0.2290 ca        1 85A      0.213100
      3 C3          1.9270    0.1790    0.9480 ca        1 85A     -0.056400
      4 C4          1.2210    0.4230    2.1340 ca        1 85A     -0.018000
      5 C5         -0.1710    0.2900    2.1730 ca        1 85A     -0.007600
      6 C6         -0.8680   -0.1100    1.0100 ca        1 85A      0.065600
      7 N7         -2.3210   -0.2830    1.0490 n4        1 85A     -0.659400
      8 CL8        -0.9770    0.5950    3.6200 cl        1 85A      0.042600
      9 C9          9.0280   -2.4040   -1.3910 cg        1 85A      0.096600
     10 N10         9.6640   -3.1680   -2.0090 n1        1 85A     -0.002800
     11 N11         3.3880    0.3270    0.9070 n4        1 85A     -0.514200
     12 C12         4.1040   -0.6110    1.8810 c         1 85A      0.644100
     13 N13         5.4900   -0.5600    1.9780 n         1 85A     -0.515900
     14 O14         3.4010   -1.3070    2.6100 o         1 85A     -0.413100
     15 C15         6.3800   -0.0700    0.9400 c3        1 85A      0.147600
     16 N16         6.0170   -0.4750   -0.4120 n2        1 85A     -0.718900
     17 C17         6.9100   -1.0320   -1.1940 ce        1 85A      0.584300
     18 C18         8.2680   -1.4690   -0.6670 ce        1 85A      0.598600
     19 N19         8.6850   -0.9650    0.5210 n1        1 85A     -0.440800
     20 C20         7.8660   -0.2900    1.2980 c2        1 85A      0.522900
     21 O21         1.9900   -0.4070   -1.3370 os        1 85A     -0.363900
     22 C22         1.3250   -0.7390   -2.5870 c3        1 85A      0.138400
     23 C23         4.3870   -1.9450   -2.7950 c3        1 85A     -0.112400
     24 C24         5.5140   -1.0140   -3.1880 c3        1 85A      0.134400
     25 O25         6.7470   -1.3380   -2.4930 os        1 85A     -0.351400
     26 C26         2.3890   -0.6480   -3.6670 c3        1 85A     -0.095400
     27 C27         3.2510   -1.8840   -3.7970 c3        1 85A     -0.087400
     28 C28        -3.0770    0.9910    0.7070 c3        1 85A      0.187100
     29 C29        -4.5410    0.7370    0.7510 ca        1 85A     -0.170300
     30 C30        -5.2150    0.2830   -0.3900 ca        1 85A     -0.223300
     31 C31        -6.6120    0.1130   -0.3150 ca        1 85A      0.430700
     32 N32        -7.3270    0.3610    0.7990 nb        1 85A     -0.586000
     33 C33        -6.6670    0.7990    1.8870 ca        1 85A      0.430700
     34 C34        -5.2710    1.0010    1.9160 ca        1 85A     -0.223300
     35 H20         8.2900    0.1960    2.2130 h4        1 85A      0.140800
     36 H13         5.8610   -1.2620    2.6020 hn        1 85A      0.386500
     37 H11         3.7020    0.1300   -0.0600 hn        1 85A      0.489300
     38 H4          1.7520    0.7050    3.0660 ha        1 85A      0.203000
     39 H1         -0.7080   -0.6730   -1.0960 ha        1 85A      0.192000
     40 H221        0.5150    0.0140   -2.7720 h1        1 85A      0.073200
     41 H222        0.9010   -1.7720   -2.4900 h1        1 85A      0.073200
     42 H261        3.0260    0.2580   -3.4900 hc        1 85A      0.084700
     43 H262        1.8410   -0.4880   -4.6390 hc        1 85A      0.084700
     44 H271        2.6170   -2.8040   -3.6740 hc        1 85A      0.084200
     45 H272        3.6700   -1.9220   -4.8410 hc        1 85A      0.084200
     46 H231        4.0000   -1.6800   -1.7760 hc        1 85A      0.058700
     47 H232        4.7780   -2.9980   -2.7530 hc        1 85A      0.058700
     48 H241        5.8430   -1.1840   -4.2580 h1        1 85A      0.105700
     49 H242        5.2670    0.0650   -3.0230 h1        1 85A      0.105700
     50 HN7        -2.6090   -0.5900    1.9940 hn        1 85A      0.475800
     51 H281       -2.7470    1.3120   -0.3220 hx        1 85A      0.113700
     52 H282       -2.7740    1.7750    1.4610 hx        1 85A      0.113700
     53 H34        -4.7920    1.3820    2.8290 ha        1 85A      0.149500
     54 H33        -7.2900    1.0050    2.7820 h4        1 85A      0.067100
     55 H31        -7.1930   -0.2340   -1.1930 h4        1 85A      0.067100
     56 H30        -4.6900    0.0890   -1.3350 ha        1 85A      0.149500
     57 H72        -2.6010   -1.0190    0.3830 hn        1 85A      0.475800
     58 H112        3.6200    1.3010    1.1470 hn        1 85A      0.489300
     59 H132        6.3030    1.0840    0.9300 h2        1 85A      0.165700
@<TRIPOS>BOND
     1    1    2 ar  
     2    1    6 ar  
     3    1   39 1   
     4    2    3 ar  
     5    2   21 1   
     6    3    4 ar  
     7    3   11 1   
     8    4    5 ar  
     9    4   38 1   
    10    5    6 ar  
    11    5    8 1   
    12    6    7 1   
    13    7   28 1   
    14    7   50 1   
    15    7   57 1   
    16    9   10 3   
    17    9   18 1   
    18   11   12 1   
    19   11   37 1   
    20   11   58 1   
    21   12   13 1   
    22   12   14 2   
    23   13   15 1   
    24   13   36 1   
    25   15   16 1   
    26   15   20 1   
    27   15   59 1   
    28   16   17 2   
    29   17   18 1   
    30   17   25 1   
    31   18   19 2   
    32   19   20 2   
    33   20   35 1   
    34   21   22 1   
    35   22   26 1   
    36   22   40 1   
    37   22   41 1   
    38   23   24 1   
    39   23   27 1   
    40   23   46 1   
    41   23   47 1   
    42   24   25 1   
    43   24   48 1   
    44   24   49 1   
    45   26   27 1   
    46   26   42 1   
    47   26   43 1   
    48   27   44 1   
    49   27   45 1   
    50   28   29 1   
    51   28   51 1   
    52   28   52 1   
    53   29   30 ar  
    54   29   34 ar  
    55   30   31 ar  
    56   30   56 1   
    57   31   32 ar  
    58   31   55 1   
    59   32   33 ar  
    60   33   34 ar  
    61   33   54 1   
    62   34   53 1   
@<TRIPOS>SUBSTRUCTURE
     1 85A         1 TEMP              0 ****  ****    0 ROOT
