@<TRIPOS>MOLECULE
85A
   56    59     1     0     0
SMALL
bcc


@<TRIPOS>ATOM
      1 C1         -0.9710   -1.8750    0.0140 ca        1 85A     -0.236000
      2 C2         -1.9940   -2.5340    0.6920 ca        1 85A      0.129100
      3 C3         -2.9850   -1.8110    1.4210 ca        1 85A     -0.001400
      4 C4         -2.8800   -0.4090    1.4400 ca        1 85A     -0.068000
      5 C5         -1.8510    0.2460    0.7700 ca        1 85A     -0.057600
      6 C6         -0.8740   -0.4650    0.0320 ca        1 85A      0.178600
      7 N7          0.0960    0.2070   -0.7190 nh        1 85A     -0.728600
      8 CL8        -1.8000    1.9480    0.8560 cl        1 85A     -0.091400
      9 C9         -8.1560   -7.6360    2.8870 cg        1 85A      0.157800
     10 N10        -8.6480   -8.6650    2.6630 n1        1 85A     -0.345800
     11 N11        -4.0600   -2.4930    2.0310 n         1 85A     -0.426100
     12 C12        -4.6430   -2.0390    3.2110 c         1 85A      0.783100
     13 N13        -5.7050   -2.7440    3.8360 n         1 85A     -0.549400
     14 O14        -4.3520   -0.9520    3.7630 o         1 85A     -0.617100
     15 C15        -6.2600   -3.9830    3.5530 ca        1 85A      0.504900
     16 N16        -5.6520   -4.8710    2.7100 nb        1 85A     -0.781000
     17 C17        -6.2840   -6.0580    2.5210 ca        1 85A      0.610300
     18 C18        -7.5380   -6.3810    3.1490 ca        1 85A      0.303000
     19 N19        -8.1300   -5.4940    3.9890 nb        1 85A     -0.538000
     20 C20        -7.5140   -4.3320    4.1970 ca        1 85A      0.196900
     21 O21        -2.0980   -3.9140    0.7250 os        1 85A     -0.345900
     22 C22        -1.4230   -4.6170   -0.3300 c3        1 85A      0.133400
     23 C23        -4.3460   -6.0350   -0.0080 c3        1 85A     -0.110400
     24 C24        -4.4220   -6.9130    1.2260 c3        1 85A      0.137400
     25 O25        -5.7690   -7.0310    1.7100 os        1 85A     -0.426100
     26 C26        -1.8250   -6.0770   -0.2210 c3        1 85A     -0.088400
     27 C27        -3.1550   -6.3970   -0.8700 c3        1 85A     -0.075400
     28 C28         1.3390   -0.4770   -1.0050 c3        1 85A      0.231100
     29 C29         2.4590    0.4510   -1.3730 ca        1 85A     -0.070300
     30 C30         2.2880    1.4410   -2.3470 ca        1 85A     -0.235300
     31 C31         3.3870    2.2570   -2.6730 ca        1 85A      0.394700
     32 N32         4.6010    2.1370   -2.1010 nb        1 85A     -0.658000
     33 C33         4.7480    1.1780   -1.1670 ca        1 85A      0.394700
     34 C34         3.7130    0.3150   -0.7660 ca        1 85A     -0.235300
     35 H20        -8.0150   -3.6350    4.8920 h4        1 85A      0.046100
     36 H13        -6.1350   -2.2300    4.5800 hn        1 85A      0.354500
     37 H11        -4.1360   -3.4580    1.7830 hn        1 85A      0.355500
     38 H4         -3.6180    0.1890    2.0060 ha        1 85A      0.184000
     39 H1         -0.2290   -2.4590   -0.5500 ha        1 85A      0.145000
     40 H221       -0.3150   -4.5170   -0.1730 h1        1 85A      0.044200
     41 H222       -1.7080   -4.1780   -1.3200 h1        1 85A      0.044200
     42 H261       -1.8440   -6.3740    0.8610 hc        1 85A      0.058200
     43 H262       -1.0210   -6.6780   -0.7250 hc        1 85A      0.058200
     44 H271       -3.2380   -5.8500   -1.8460 hc        1 85A      0.047700
     45 H272       -3.1870   -7.4950   -1.1040 hc        1 85A      0.047700
     46 H231       -4.2740   -4.9570    0.2910 hc        1 85A      0.064200
     47 H232       -5.2880   -6.1620   -0.6060 hc        1 85A      0.064200
     48 H241       -4.1830   -7.9850    0.9750 h1        1 85A      0.069700
     49 H242       -3.7390   -6.5530    2.0370 h1        1 85A      0.069700
     50 HN7         0.2110    1.1710   -0.4740 hn        1 85A      0.418800
     51 H281        1.1520   -1.1670   -1.8820 h1        1 85A      0.052200
     52 H282        1.6620   -1.1220   -0.1330 h1        1 85A      0.052200
     53 H34         3.8920   -0.4450    0.0060 ha        1 85A      0.150500
     54 H33         5.7530    1.1010   -0.7130 h4        1 85A      0.026100
     55 H31         3.2920    3.0510   -3.4360 h4        1 85A      0.026100
     56 H30         1.3230    1.5800   -2.8520 ha        1 85A      0.150500
@<TRIPOS>BOND
     1    1    2 ar  
     2    1    6 ar  
     3    1   39 1   
     4    2    3 ar  
     5    2   21 1   
     6    3    4 ar  
     7    3   11 1   
     8    4    5 ar  
     9    4   38 1   
    10    5    6 ar  
    11    5    8 1   
    12    6    7 1   
    13    7   28 1   
    14    7   50 1   
    15    9   10 3   
    16    9   18 1   
    17   11   12 1   
    18   11   37 1   
    19   12   13 1   
    20   12   14 2   
    21   13   15 1   
    22   13   36 1   
    23   15   16 ar  
    24   15   20 ar  
    25   16   17 ar  
    26   17   18 ar  
    27   17   25 1   
    28   18   19 ar  
    29   19   20 ar  
    30   20   35 1   
    31   21   22 1   
    32   22   26 1   
    33   22   40 1   
    34   22   41 1   
    35   23   24 1   
    36   23   27 1   
    37   23   46 1   
    38   23   47 1   
    39   24   25 1   
    40   24   48 1   
    41   24   49 1   
    42   26   27 1   
    43   26   42 1   
    44   26   43 1   
    45   27   44 1   
    46   27   45 1   
    47   28   29 1   
    48   28   51 1   
    49   28   52 1   
    50   29   30 ar  
    51   29   34 ar  
    52   30   31 ar  
    53   30   56 1   
    54   31   32 ar  
    55   31   55 1   
    56   32   33 ar  
    57   33   34 ar  
    58   33   54 1   
    59   34   53 1   
@<TRIPOS>SUBSTRUCTURE
     1 85A         1 TEMP              0 ****  ****    0 ROOT
