@<TRIPOS>MOLECULE
85A
   56    59     1     0     0
SMALL
bcc


@<TRIPOS>ATOM
      1 C1         -0.1660   -0.2410   -0.1780 ca        1 85A     -0.236000
      2 C2          1.2270   -0.2800   -0.1670 ca        1 85A      0.129100
      3 C3          1.9510   -0.5110    1.0410 ca        1 85A     -0.001400
      4 C4          1.2050   -0.6810    2.2200 ca        1 85A     -0.069000
      5 C5         -0.1850   -0.6310    2.2090 ca        1 85A     -0.057600
      6 C6         -0.9110   -0.4190    1.0100 ca        1 85A      0.178600
      7 N7         -2.3080   -0.4700    0.9920 nu        1 85A     -0.728600
      8 Cl8        -1.0050   -0.8400    3.6890 cl        1 85A     -0.091400
      9 C9          9.2090   -1.7220   -1.9030 cg        1 85A      0.157800
     10 N10         9.9470   -2.0210   -2.7500 n1        1 85A     -0.345800
     11 N11         3.3570   -0.6310    1.0170 ns        1 85A     -0.426100
     12 C12         4.1490   -0.2140    2.0830 c         1 85A      0.783100
     13 N13         5.5650   -0.3110    2.0420 ns        1 85A     -0.549400
     14 O14         3.6920    0.1870    3.1800 o         1 85A     -0.617100
     15 C15         6.4190   -0.6570    1.0060 ca        1 85A      0.504900
     16 N16         5.9910   -0.7290   -0.2900 nb        1 85A     -0.781000
     17 C17         6.9220   -1.0660   -1.2180 ca        1 85A      0.610300
     18 C18         8.2910   -1.3530   -0.8800 ca        1 85A      0.303000
     19 N19         8.7070   -1.2720    0.4100 nb        1 85A     -0.538000
     20 C20         7.8090   -0.9280    1.3310 ca        1 85A      0.196900
     21 O21         1.9870   -0.0740   -1.3050 os        1 85A     -0.345900
     22 C22         1.3140   -0.2930   -2.5540 c3        1 85A      0.133400
     23 C23         4.2520   -1.6900   -2.8400 c3        1 85A     -0.110400
     24 C24         5.3550   -0.6670   -3.0230 c3        1 85A      0.137400
     25 O25         6.6180   -1.1590   -2.5490 os        1 85A     -0.426100
     26 C26         2.3650   -0.2100   -3.6470 c3        1 85A     -0.088400
     27 C27         3.1420   -1.4930   -3.8500 c3        1 85A     -0.075400
     28 C28        -3.0090    0.2430   -0.0550 c3        1 85A      0.231100
     29 C29        -4.4450    0.5240    0.2740 ca        1 85A     -0.070300
     30 C30        -5.2930   -0.4890    0.7360 ca        1 85A     -0.235300
     31 C31        -6.6390   -0.1700    0.9930 ca        1 85A      0.394700
     32 N32        -7.1620    1.0580    0.8150 nb        1 85A     -0.658000
     33 C33        -6.3320    2.0210    0.3680 ca        1 85A      0.394700
     34 C34        -4.9710    1.8070    0.0870 ca        1 85A     -0.235300
     35 H20         8.1780   -0.8620    2.3690 h4        1 85A      0.046100
     36 H13         5.9980   -0.1300    2.9270 hn        1 85A      0.354500
     37 H11         3.7550   -0.6900    0.1010 hn        1 85A      0.355500
     38 H4          1.7280   -0.8460    3.1810 ha        1 85A      0.184000
     39 H1         -0.6970   -0.0740   -1.1270 ha        1 85A      0.145000
     40 H221        0.5540    0.5210   -2.6970 h1        1 85A      0.044200
     41 H222        0.8050   -1.2910   -2.5400 h1        1 85A      0.044200
     42 H261        3.0690    0.6330   -3.4170 hc        1 85A      0.058200
     43 H262        1.8290    0.0450   -4.6010 hc        1 85A      0.058200
     44 H271        2.4420   -2.3690   -3.7920 hc        1 85A      0.047700
     45 H272        3.5800   -1.4890   -4.8850 hc        1 85A      0.047700
     46 H231        3.8280   -1.6160   -1.8040 hc        1 85A      0.064200
     47 H232        4.6830   -2.7200   -2.9590 hc        1 85A      0.064200
     48 H241        5.5780   -0.5050   -4.1160 h1        1 85A      0.069700
     49 H242        5.1020    0.3110   -2.5410 h1        1 85A      0.069700
     50 HN7        -2.7340   -0.3870    1.8940 hn        1 85A      0.418800
     51 H281       -2.9810   -0.4040   -0.9830 h1        1 85A      0.052200
     52 H282       -2.4880    1.2150   -0.3070 h1        1 85A      0.052200
     53 H34        -4.3430    2.6340   -0.2700 ha        1 85A      0.150500
     54 H33        -6.7850    3.0200    0.2320 h4        1 85A      0.026100
     55 H31        -7.3400   -0.9420    1.3600 h4        1 85A      0.026100
     56 H30        -4.9240   -1.5120    0.8920 ha        1 85A      0.150500
@<TRIPOS>BOND
     1    1    2 ar  
     2    1    6 ar  
     3    1   39 1   
     4    2    3 ar  
     5    2   21 1   
     6    3    4 ar  
     7    3   11 1   
     8    4    5 ar  
     9    4   38 1   
    10    5    6 ar  
    11    5    8 1   
    12    6    7 1   
    13    7   28 1   
    14    7   50 1   
    15    9   10 3   
    16    9   18 1   
    17   11   12 1   
    18   11   37 1   
    19   12   13 1   
    20   12   14 2   
    21   13   15 1   
    22   13   36 1   
    23   15   16 ar  
    24   15   20 ar  
    25   16   17 ar  
    26   17   18 ar  
    27   17   25 1   
    28   18   19 ar  
    29   19   20 ar  
    30   20   35 1   
    31   21   22 1   
    32   22   26 1   
    33   22   40 1   
    34   22   41 1   
    35   23   24 1   
    36   23   27 1   
    37   23   46 1   
    38   23   47 1   
    39   24   25 1   
    40   24   48 1   
    41   24   49 1   
    42   26   27 1   
    43   26   42 1   
    44   26   43 1   
    45   27   44 1   
    46   27   45 1   
    47   28   29 1   
    48   28   51 1   
    49   28   52 1   
    50   29   30 ar  
    51   29   34 ar  
    52   30   31 ar  
    53   30   56 1   
    54   31   32 ar  
    55   31   55 1   
    56   32   33 ar  
    57   33   34 ar  
    58   33   54 1   
    59   34   53 1   
@<TRIPOS>SUBSTRUCTURE
     1 85A         1 TEMP              0 ****  ****    0 ROOT
