@<TRIPOS>MOLECULE
85Z
   50    53     1     0     0
SMALL
bcc


@<TRIPOS>ATOM
      1 C1          0.7740    0.6540    0.4790 c3        1 85Z     -0.066800
      2 C2          2.2110    0.5580    0.1330 ca        1 85Z     -0.010300
      3 C3          3.1770    0.7300    1.1280 ca        1 85Z     -0.171000
      4 C4          4.5420    0.6480    0.8060 ca        1 85Z      0.126900
      5 C5          4.9460    0.3920   -0.5170 ca        1 85Z     -0.180000
      6 C6          3.9780    0.2200   -1.4990 ca        1 85Z     -0.087000
      7 C7          2.6140    0.2970   -1.1910 ca        1 85Z     -0.046800
      8 C8          1.6240    0.1190   -2.2570 cc        1 85Z     -0.191400
      9 C9          1.2740   -1.0990   -2.7660 cd        1 85Z      0.098600
     10 C10         0.2830   -1.1590   -3.8200 ca        1 85Z     -0.183800
     11 C11        -0.1780   -2.3670   -4.3800 ca        1 85Z     -0.015000
     12 C12        -1.1580   -2.3760   -5.3560 ca        1 85Z     -0.230000
     13 C13        -1.7050   -1.1570   -5.8070 ca        1 85Z      0.174100
     14 C14        -1.2690    0.0660   -5.2930 ca        1 85Z     -0.196000
     15 C15        -0.2810    0.0430   -4.2950 ca        1 85Z      0.179100
     16 O16         0.0910    1.2790   -3.8130 os        1 85Z     -0.327200
     17 C17         1.0190    1.3440   -2.7760 c         1 85Z      0.732800
     18 O18         1.2030    2.5170   -2.4470 o         1 85Z     -0.583500
     19 O19        -2.6740   -1.1070   -6.7790 oh        1 85Z     -0.497100
     20 C20         1.9360   -2.3540   -2.3010 c3        1 85Z     -0.006900
     21 C21         1.0270   -3.3990   -1.7550 ca        1 85Z     -0.127300
     22 C22         1.4050   -4.7430   -1.8670 ca        1 85Z     -0.136500
     23 C23         0.5790   -5.7500   -1.3800 ca        1 85Z     -0.128500
     24 C24        -0.6550   -5.4400   -0.7840 ca        1 85Z      0.004200
     25 C25        -1.0190   -4.0910   -0.6510 ca        1 85Z     -0.128500
     26 C26        -0.1810   -3.0850   -1.1240 ca        1 85Z     -0.136500
     27 C27        -1.5080   -6.5180   -0.3140 ce        1 85Z     -0.196200
     28 C28        -2.8450   -6.5450   -0.3220 cf        1 85Z     -0.138200
     29 C29        -3.8010   -5.4970   -0.8440 c         1 85Z      0.895800
     30 O30        -4.3370   -5.7070   -1.9680 o         1 85Z     -0.830800
     31 O31        -4.0480   -4.4920   -0.1150 o         1 85Z     -0.830800
     32 F32         5.4760    0.8180    1.7750 f         1 85Z     -0.149900
     33 H11C        0.6280    0.9570    1.5440 hc        1 85Z      0.057367
     34 H12C        0.2720   -0.3350    0.3190 hc        1 85Z      0.057367
     35 H13C        0.2750    1.4110   -0.1800 hc        1 85Z      0.057367
     36 H3          2.8760    0.9310    2.1660 ha        1 85Z      0.147000
     37 H5          6.0150    0.3320   -0.7610 ha        1 85Z      0.141000
     38 H6          4.2880    0.0220   -2.5370 ha        1 85Z      0.136000
     39 H201        2.7010   -2.1070   -1.5100 hc        1 85Z      0.062200
     40 H202        2.5020   -2.7760   -3.1810 hc        1 85Z      0.062200
     41 H11         0.2320   -3.3250   -4.0140 ha        1 85Z      0.168000
     42 H12        -1.5330   -3.3290   -5.7560 ha        1 85Z      0.151000
     43 H14        -1.6950    1.0170   -5.6400 ha        1 85Z      0.168000
     44 H19        -3.0100   -2.0070   -6.9100 ho        1 85Z      0.429000
     45 H22         2.3590   -5.0040   -2.3480 ha        1 85Z      0.117000
     46 H26        -0.4850   -2.0320   -1.0180 ha        1 85Z      0.117000
     47 H23         0.8840   -6.8020   -1.4780 ha        1 85Z      0.163000
     48 H25        -2.0000   -3.8410   -0.1950 ha        1 85Z      0.163000
     49 H27        -0.9470   -7.3940    0.0610 ha        1 85Z      0.089000
     50 H28        -3.3650   -7.4400    0.0620 ha        1 85Z      0.100000
@<TRIPOS>BOND
     1    1    2 1   
     2    1   33 1   
     3    1   34 1   
     4    1   35 1   
     5    2    3 ar  
     6    2    7 ar  
     7    3    4 ar  
     8    3   36 1   
     9    4    5 ar  
    10    4   32 1   
    11    5    6 ar  
    12    5   37 1   
    13    6    7 ar  
    14    6   38 1   
    15    7    8 1   
    16    8    9 2   
    17    8   17 1   
    18    9   10 1   
    19    9   20 1   
    20   10   11 ar  
    21   10   15 ar  
    22   11   12 ar  
    23   11   41 1   
    24   12   13 ar  
    25   12   42 1   
    26   13   14 ar  
    27   13   19 1   
    28   14   15 ar  
    29   14   43 1   
    30   15   16 1   
    31   16   17 1   
    32   17   18 2   
    33   19   44 1   
    34   20   21 1   
    35   20   39 1   
    36   20   40 1   
    37   21   22 ar  
    38   21   26 ar  
    39   22   23 ar  
    40   22   45 1   
    41   23   24 ar  
    42   23   47 1   
    43   24   25 ar  
    44   24   27 1   
    45   25   26 ar  
    46   25   48 1   
    47   26   46 1   
    48   27   28 2   
    49   27   49 1   
    50   28   29 1   
    51   28   50 1   
    52   29   30 1   
    53   29   31 1   
@<TRIPOS>SUBSTRUCTURE
     1 85Z         1 TEMP              0 ****  ****    0 ROOT
