@<TRIPOS>MOLECULE
861
   67    69     1     0     0
SMALL
bcc


@<TRIPOS>ATOM
      1 O6         -0.2010   -0.4570   -0.0400 o         1 861     -0.641800
      2 S           1.1840   -0.2250    0.0740 s6        1 861      1.439900
      3 O5          1.7260   -0.1930    1.3770 o         1 861     -0.641800
      4 C18         2.0560   -1.3920   -0.8550 c3        1 861     -0.258300
      5 C19         1.9210   -2.7730   -0.3320 ca        1 861     -0.073300
      6 C24         2.5180   -3.1280    0.8850 ca        1 861     -0.112500
      7 C23         2.4170   -4.4340    1.3590 ca        1 861     -0.129500
      8 C22         1.7250   -5.3960    0.6220 ca        1 861     -0.122000
      9 C21         1.1290   -5.0460   -0.5890 ca        1 861     -0.129500
     10 C20         1.2260   -3.7400   -1.0670 ca        1 861     -0.112500
     11 N           1.5590    1.1790   -0.6930 n3        1 861     -0.812500
     12 C17         2.6660    1.9820   -0.2260 c3        1 861      0.214800
     13 C16         3.6270    2.4260   -1.3280 c3        1 861     -0.094400
     14 C15         2.8730    3.1170   -2.4420 c3        1 861     -0.076400
     15 C14         1.7480    2.2430   -2.9500 c3        1 861     -0.092400
     16 C13         0.8370    1.7860   -1.7920 c3        1 861      0.210500
     17 C12        -0.2080    0.8590   -2.4120 c         1 861      0.624100
     18 O4         -0.0180   -0.2200   -2.9780 o         1 861     -0.549000
     19 O3         -1.4580    1.3840   -2.3590 os        1 861     -0.415900
     20 C11        -2.5260    0.5380   -2.8350 c3        1 861      0.138400
     21 C10        -3.8100    1.2830   -2.5270 c3        1 861     -0.083400
     22 C9         -5.0030    0.4550   -2.9630 c3        1 861     -0.037100
     23 C3         -6.2880    1.1220   -2.6100 ca        1 861     -0.019300
     24 C2         -7.0830    1.6850   -3.6110 ca        1 861     -0.224000
     25 C4         -6.6920    1.1730   -1.2720 ca        1 861     -0.224000
     26 C5         -7.9050    1.7810   -0.9340 ca        1 861      0.139100
     27 O2         -8.3760    1.9050    0.3580 os        1 861     -0.312900
     28 C8         -7.6360    1.2190    1.3640 c3        1 861      0.111700
     29 C6         -8.7320    2.3400   -1.9330 ca        1 861      0.039100
     30 O1         -9.9960    2.8180   -1.6450 os        1 861     -0.310900
     31 C7         -9.9930    4.0800   -0.9740 c3        1 861      0.115700
     32 C1         -8.2950    2.3020   -3.2740 ca        1 861      0.139100
     33 O          -9.1320    2.9140   -4.1840 os        1 861     -0.312900
     34 C          -8.8200    2.7090   -5.5570 c3        1 861      0.111700
     35 H1          3.1510   -1.1410   -0.8920 h1        1 861      0.125200
     36 H2          1.7050   -1.3740   -1.9270 h1        1 861      0.125200
     37 H3          3.0480   -2.3640    1.4770 ha        1 861      0.145500
     38 H4          2.8840   -4.7050    2.3170 ha        1 861      0.134000
     39 H5          1.6480   -6.4270    0.9970 ha        1 861      0.132000
     40 H6          0.5790   -5.8010   -1.1700 ha        1 861      0.134000
     41 H7          0.7520   -3.4680   -2.0230 ha        1 861      0.145500
     42 H8          2.2550    2.9050    0.2810 h1        1 861      0.061200
     43 H9          3.2380    1.3930    0.5490 h1        1 861      0.061200
     44 H10         4.3800    3.1250   -0.8790 hc        1 861      0.052700
     45 H11         4.1820    1.5420   -1.7350 hc        1 861      0.052700
     46 H12         2.4540    4.0880   -2.0670 hc        1 861      0.049200
     47 H13         3.5710    3.3550   -3.2860 hc        1 861      0.049200
     48 H14         2.1660    1.3430   -3.4740 hc        1 861      0.062700
     49 H15         1.1190    2.8090   -3.6830 hc        1 861      0.062700
     50 H16         0.2930    2.6970   -1.3890 h1        1 861      0.082700
     51 H17        -2.4700   -0.4450   -2.2980 h1        1 861      0.060200
     52 H18        -2.3860    0.3750   -3.9350 h1        1 861      0.060200
     53 H19        -3.8100    2.2720   -3.0540 hc        1 861      0.061200
     54 H20        -3.8670    1.4910   -1.4260 hc        1 861      0.061200
     55 H21        -4.9510    0.2790   -4.0710 hc        1 861      0.053200
     56 H22        -4.9620   -0.5510   -2.4640 hc        1 861      0.053200
     57 H23        -6.7520    1.6430   -4.6570 ha        1 861      0.142000
     58 H24        -6.0500    0.7290   -0.4990 ha        1 861      0.142000
     59 H25        -6.6150    1.6600    1.4680 h1        1 861      0.045700
     60 H26        -8.2390    1.3950    2.2910 h1        1 861      0.045700
     61 H27        -7.5720    0.1280    1.1350 h1        1 861      0.045700
     62 H28       -11.0790    4.2930   -0.8130 h1        1 861      0.040700
     63 H29        -9.4530    4.0000    0.0000 h1        1 861      0.040700
     64 H30        -9.5270    4.8620   -1.6200 h1        1 861      0.040700
     65 H31        -8.7780    1.6200   -5.8000 h1        1 861      0.045700
     66 H32        -7.8550    3.2070   -5.8180 h1        1 861      0.045700
     67 H33        -9.6730    3.2010   -6.0900 h1        1 861      0.045700
@<TRIPOS>BOND
     1    1    2 2   
     2    2    3 2   
     3    2    4 1   
     4    2   11 1   
     5    4    5 1   
     6    4   35 1   
     7    4   36 1   
     8    5    6 ar  
     9    5   10 ar  
    10    6    7 ar  
    11    6   37 1   
    12    7    8 ar  
    13    7   38 1   
    14    8    9 ar  
    15    8   39 1   
    16    9   10 ar  
    17    9   40 1   
    18   10   41 1   
    19   11   12 1   
    20   11   16 1   
    21   12   13 1   
    22   12   42 1   
    23   12   43 1   
    24   13   14 1   
    25   13   44 1   
    26   13   45 1   
    27   14   15 1   
    28   14   46 1   
    29   14   47 1   
    30   15   16 1   
    31   15   48 1   
    32   15   49 1   
    33   16   17 1   
    34   16   50 1   
    35   17   18 2   
    36   17   19 1   
    37   19   20 1   
    38   20   21 1   
    39   20   51 1   
    40   20   52 1   
    41   21   22 1   
    42   21   53 1   
    43   21   54 1   
    44   22   23 1   
    45   22   55 1   
    46   22   56 1   
    47   23   24 ar  
    48   23   25 ar  
    49   24   32 ar  
    50   24   57 1   
    51   25   26 ar  
    52   25   58 1   
    53   26   27 1   
    54   26   29 ar  
    55   27   28 1   
    56   28   59 1   
    57   28   60 1   
    58   28   61 1   
    59   29   30 1   
    60   29   32 ar  
    61   30   31 1   
    62   31   62 1   
    63   31   63 1   
    64   31   64 1   
    65   32   33 1   
    66   33   34 1   
    67   34   65 1   
    68   34   66 1   
    69   34   67 1   
@<TRIPOS>SUBSTRUCTURE
     1 861         1 TEMP              0 ****  ****    0 ROOT
