@<TRIPOS>MOLECULE
861
   67    69     1     0     0
SMALL
bcc


@<TRIPOS>ATOM
      1 O6          2.4940   -0.7760    0.6910 o         1 861     -0.641800
      2 S           3.7700   -0.2160    0.8950 s6        1 861      1.439900
      3 O5          4.4630   -0.6000    2.0630 o         1 861     -0.641800
      4 C18         4.7790   -0.5340   -0.4710 c3        1 861     -0.258300
      5 C19         5.0890   -1.9730   -0.6450 ca        1 861     -0.073300
      6 C24         5.9240   -2.6310    0.2680 ca        1 861     -0.112500
      7 C23         6.2400   -3.9750    0.0840 ca        1 861     -0.129500
      8 C22         5.7300   -4.6720   -1.0110 ca        1 861     -0.122000
      9 C21         4.8970   -4.0210   -1.9210 ca        1 861     -0.129500
     10 C20         4.5780   -2.6760   -1.7430 ca        1 861     -0.112500
     11 N           3.6480    1.4220    0.8620 n3        1 861     -0.812500
     12 C17         4.5590    2.2290    1.6450 c3        1 861      0.214800
     13 C16         5.2040    3.3770    0.8690 c3        1 861     -0.094400
     14 C15         4.1450    4.2260    0.2010 c3        1 861     -0.076400
     15 C14         3.2310    3.3720   -0.6490 c3        1 861     -0.092400
     16 C13         2.6450    2.2040    0.1700 c3        1 861      0.210500
     17 C12         1.8050    1.3790   -0.8040 c         1 861      0.624100
     18 O4          2.1910    0.7710   -1.8060 o         1 861     -0.549000
     19 O3          0.4810    1.4250   -0.5090 os        1 861     -0.415900
     20 C11        -0.3820    0.5970   -1.3180 c3        1 861      0.138400
     21 C10        -1.7590    0.7050   -0.6930 c3        1 861     -0.083400
     22 C9         -2.7400   -0.1640   -1.4570 c3        1 861     -0.037100
     23 C3         -4.0910   -0.1420   -0.8270 ca        1 861     -0.019300
     24 C2         -5.1420    0.5340   -1.4490 ca        1 861     -0.224000
     25 C4         -4.2960   -0.8090    0.3840 ca        1 861     -0.224000
     26 C5         -5.5650   -0.8100    0.9730 ca        1 861      0.139100
     27 O2         -5.8600   -1.4150    2.1770 os        1 861     -0.312900
     28 C8         -4.8280   -2.2150    2.7470 c3        1 861      0.111700
     29 C6         -6.6450   -0.1470    0.3500 ca        1 861      0.039100
     30 O1         -7.9360   -0.2500    0.8340 os        1 861     -0.310900
     31 C7         -8.1700    0.5230    2.0130 c3        1 861      0.115700
     32 C1         -6.4120    0.5420   -0.8590 ca        1 861      0.139100
     33 O          -7.5040    1.2070   -1.3770 os        1 861     -0.312900
     34 C          -7.3510    1.7320   -2.6920 c3        1 861      0.111700
     35 H1          4.2880   -0.1510   -1.4130 h1        1 861      0.125200
     36 H2          5.7520    0.0230   -0.3920 h1        1 861      0.125200
     37 H3          6.3120   -2.0860    1.1440 ha        1 861      0.145500
     38 H4          6.8910   -4.4860    0.8080 ha        1 861      0.134000
     39 H5          5.9810   -5.7330   -1.1550 ha        1 861      0.132000
     40 H6          4.4900   -4.5690   -2.7840 ha        1 861      0.134000
     41 H7          3.9180   -2.1670   -2.4620 ha        1 861      0.145500
     42 H8          3.9940    2.6650    2.5210 h1        1 861      0.061200
     43 H9          5.3690    1.5610    2.0580 h1        1 861      0.061200
     44 H10         5.8000    3.9960    1.5870 hc        1 861      0.052700
     45 H11         5.9090    2.9720    0.0980 hc        1 861      0.052700
     46 H12         3.5420    4.7590    0.9830 hc        1 861      0.049200
     47 H13         4.6300    5.0070   -0.4410 hc        1 861      0.049200
     48 H14         2.3770    3.9860   -1.0370 hc        1 861      0.062700
     49 H15         3.7930    2.9660   -1.5310 hc        1 861      0.062700
     50 H16         1.9430    2.6370    0.9500 h1        1 861      0.082700
     51 H17        -0.3630    0.9860   -2.3680 h1        1 861      0.060200
     52 H18         0.0090   -0.4540   -1.2980 h1        1 861      0.060200
     53 H19        -1.7100    0.3790    0.3800 hc        1 861      0.061200
     54 H20        -2.0970    1.7730   -0.7020 hc        1 861      0.061200
     55 H21        -2.8030    0.1910   -2.5200 hc        1 861      0.053200
     56 H22        -2.3620   -1.2220   -1.4800 hc        1 861      0.053200
     57 H23        -4.9660    1.0590   -2.3980 ha        1 861      0.142000
     58 H24        -3.4550   -1.3310    0.8610 ha        1 861      0.142000
     59 H25        -5.3150   -2.6550    3.6540 h1        1 861      0.045700
     60 H26        -4.5100   -3.0180    2.0390 h1        1 861      0.045700
     61 H27        -3.9560   -1.5790    3.0380 h1        1 861      0.045700
     62 H28        -9.2390    0.3050    2.2600 h1        1 861      0.040700
     63 H29        -7.4930    0.1900    2.8360 h1        1 861      0.040700
     64 H30        -8.0260    1.6090    1.7990 h1        1 861      0.040700
     65 H31        -6.6000    2.5590   -2.6980 h1        1 861      0.045700
     66 H32        -7.0570    0.9300   -3.4110 h1        1 861      0.045700
     67 H33        -8.3710    2.1250   -2.9320 h1        1 861      0.045700
@<TRIPOS>BOND
     1    1    2 2   
     2    2    3 2   
     3    2    4 1   
     4    2   11 1   
     5    4    5 1   
     6    4   35 1   
     7    4   36 1   
     8    5    6 ar  
     9    5   10 ar  
    10    6    7 ar  
    11    6   37 1   
    12    7    8 ar  
    13    7   38 1   
    14    8    9 ar  
    15    8   39 1   
    16    9   10 ar  
    17    9   40 1   
    18   10   41 1   
    19   11   12 1   
    20   11   16 1   
    21   12   13 1   
    22   12   42 1   
    23   12   43 1   
    24   13   14 1   
    25   13   44 1   
    26   13   45 1   
    27   14   15 1   
    28   14   46 1   
    29   14   47 1   
    30   15   16 1   
    31   15   48 1   
    32   15   49 1   
    33   16   17 1   
    34   16   50 1   
    35   17   18 2   
    36   17   19 1   
    37   19   20 1   
    38   20   21 1   
    39   20   51 1   
    40   20   52 1   
    41   21   22 1   
    42   21   53 1   
    43   21   54 1   
    44   22   23 1   
    45   22   55 1   
    46   22   56 1   
    47   23   24 ar  
    48   23   25 ar  
    49   24   32 ar  
    50   24   57 1   
    51   25   26 ar  
    52   25   58 1   
    53   26   27 1   
    54   26   29 ar  
    55   27   28 1   
    56   28   59 1   
    57   28   60 1   
    58   28   61 1   
    59   29   30 1   
    60   29   32 ar  
    61   30   31 1   
    62   31   62 1   
    63   31   63 1   
    64   31   64 1   
    65   32   33 1   
    66   33   34 1   
    67   34   65 1   
    68   34   66 1   
    69   34   67 1   
@<TRIPOS>SUBSTRUCTURE
     1 861         1 TEMP              0 ****  ****    0 ROOT
