@<TRIPOS>MOLECULE
861
   67    69     1     0     0
SMALL
bcc


@<TRIPOS>ATOM
      1 O6         -0.2060   -0.4640   -0.0480 o         1 861     -0.641800
      2 S           1.1780   -0.2320    0.0720 s6        1 861      1.439900
      3 O5          1.7170   -0.2070    1.3760 o         1 861     -0.641800
      4 C18         2.0530   -1.3930   -0.8620 c3        1 861     -0.258300
      5 C19         1.9170   -2.7770   -0.3470 ca        1 861     -0.073300
      6 C24         2.5110   -3.1390    0.8700 ca        1 861     -0.112500
      7 C23         2.4100   -4.4480    1.3360 ca        1 861     -0.129500
      8 C22         1.7200   -5.4050    0.5920 ca        1 861     -0.122000
      9 C21         1.1270   -5.0490   -0.6190 ca        1 861     -0.129500
     10 C20         1.2250   -3.7410   -1.0900 ca        1 861     -0.112500
     11 N           1.5540    1.1760   -0.6870 n3        1 861     -0.812500
     12 C17         2.6600    1.9780   -0.2120 c3        1 861      0.214800
     13 C16         3.6240    2.4270   -1.3090 c3        1 861     -0.094400
     14 C15         2.8730    3.1230   -2.4230 c3        1 861     -0.076400
     15 C14         1.7500    2.2510   -2.9370 c3        1 861     -0.092400
     16 C13         0.8360    1.7890   -1.7850 c3        1 861      0.210500
     17 C12        -0.2080    0.8660   -2.4120 c         1 861      0.624100
     18 O4         -0.0160   -0.2110   -2.9830 o         1 861     -0.549000
     19 O3         -1.4590    1.3900   -2.3580 os        1 861     -0.415900
     20 C11        -2.5250    0.5460   -2.8400 c3        1 861      0.138400
     21 C10        -3.8100    1.2880   -2.5280 c3        1 861     -0.083400
     22 C9         -5.0020    0.4610   -2.9700 c3        1 861     -0.037100
     23 C3         -6.2880    1.1250   -2.6120 ca        1 861     -0.019300
     24 C2         -7.0830    1.6930   -3.6100 ca        1 861     -0.224000
     25 C4         -6.6920    1.1670   -1.2750 ca        1 861     -0.224000
     26 C5         -7.9060    1.7720   -0.9320 ca        1 861      0.139100
     27 O2         -8.3770    1.8870    0.3600 os        1 861     -0.312900
     28 C8         -7.6370    1.1960    1.3610 c3        1 861      0.111700
     29 C6         -8.7330    2.3360   -1.9280 ca        1 861      0.039100
     30 O1         -9.9970    2.8120   -1.6380 os        1 861     -0.310900
     31 C7         -9.9960    4.0690   -0.9590 c3        1 861      0.115700
     32 C1         -8.2960    2.3070   -3.2690 ca        1 861      0.139100
     33 O          -9.1330    2.9230   -4.1760 os        1 861     -0.312900
     34 C          -8.8210    2.7270   -5.5510 c3        1 861      0.111700
     35 H1          1.7050   -1.3690   -1.9350 h1        1 861      0.125200
     36 H2          3.1480   -1.1420   -0.8950 h1        1 861      0.125200
     37 H3          3.0400   -2.3780    1.4670 ha        1 861      0.145500
     38 H4          2.8740   -4.7230    2.2940 ha        1 861      0.134000
     39 H5          1.6420   -6.4380    0.9610 ha        1 861      0.132000
     40 H6          0.5780   -5.8010   -1.2060 ha        1 861      0.134000
     41 H7          0.7520   -3.4630   -2.0440 ha        1 861      0.145500
     42 H8          3.2300    1.3850    0.5620 h1        1 861      0.061200
     43 H9          2.2480    2.8980    0.2980 h1        1 861      0.061200
     44 H10         4.1800    1.5450   -1.7190 hc        1 861      0.052700
     45 H11         4.3750    3.1230   -0.8550 hc        1 861      0.052700
     46 H12         2.4540    4.0930   -2.0440 hc        1 861      0.049200
     47 H13         3.5740    3.3650   -3.2640 hc        1 861      0.049200
     48 H14         2.1690    1.3550   -3.4650 hc        1 861      0.062700
     49 H15         1.1220    2.8210   -3.6700 hc        1 861      0.062700
     50 H16         0.2910    2.6990   -1.3780 h1        1 861      0.082700
     51 H17        -2.4690   -0.4410   -2.3090 h1        1 861      0.060200
     52 H18        -2.3840    0.3900   -3.9410 h1        1 861      0.060200
     53 H19        -3.8680    1.4890   -1.4260 hc        1 861      0.061200
     54 H20        -3.8110    2.2800   -3.0490 hc        1 861      0.061200
     55 H21        -4.9490    0.2920   -4.0780 hc        1 861      0.053200
     56 H22        -4.9600   -0.5480   -2.4770 hc        1 861      0.053200
     57 H23        -6.7520    1.6580   -4.6570 ha        1 861      0.142000
     58 H24        -6.0500    0.7190   -0.5040 ha        1 861      0.142000
     59 H25        -7.5710    0.1060    1.1270 h1        1 861      0.045700
     60 H26        -6.6160    1.6370    1.4690 h1        1 861      0.045700
     61 H27        -8.2400    1.3650    2.2890 h1        1 861      0.045700
     62 H28        -9.4550    3.9840    0.0150 h1        1 861      0.040700
     63 H29       -11.0820    4.2800   -0.7970 h1        1 861      0.040700
     64 H30        -9.5300    4.8560   -1.6000 h1        1 861      0.040700
     65 H31        -9.6740    3.2210   -6.0810 h1        1 861      0.045700
     66 H32        -8.7780    1.6400   -5.8000 h1        1 861      0.045700
     67 H33        -7.8560    3.2280   -5.8080 h1        1 861      0.045700
@<TRIPOS>BOND
     1    1    2 2   
     2    2    3 2   
     3    2    4 1   
     4    2   11 1   
     5    4    5 1   
     6    4   35 1   
     7    4   36 1   
     8    5    6 ar  
     9    5   10 ar  
    10    6    7 ar  
    11    6   37 1   
    12    7    8 ar  
    13    7   38 1   
    14    8    9 ar  
    15    8   39 1   
    16    9   10 ar  
    17    9   40 1   
    18   10   41 1   
    19   11   12 1   
    20   11   16 1   
    21   12   13 1   
    22   12   42 1   
    23   12   43 1   
    24   13   14 1   
    25   13   44 1   
    26   13   45 1   
    27   14   15 1   
    28   14   46 1   
    29   14   47 1   
    30   15   16 1   
    31   15   48 1   
    32   15   49 1   
    33   16   17 1   
    34   16   50 1   
    35   17   18 2   
    36   17   19 1   
    37   19   20 1   
    38   20   21 1   
    39   20   51 1   
    40   20   52 1   
    41   21   22 1   
    42   21   53 1   
    43   21   54 1   
    44   22   23 1   
    45   22   55 1   
    46   22   56 1   
    47   23   24 ar  
    48   23   25 ar  
    49   24   32 ar  
    50   24   57 1   
    51   25   26 ar  
    52   25   58 1   
    53   26   27 1   
    54   26   29 ar  
    55   27   28 1   
    56   28   59 1   
    57   28   60 1   
    58   28   61 1   
    59   29   30 1   
    60   29   32 ar  
    61   30   31 1   
    62   31   62 1   
    63   31   63 1   
    64   31   64 1   
    65   32   33 1   
    66   33   34 1   
    67   34   65 1   
    68   34   66 1   
    69   34   67 1   
@<TRIPOS>SUBSTRUCTURE
     1 861         1 TEMP              0 ****  ****    0 ROOT
