@<TRIPOS>MOLECULE
861
   67    69     1     0     0
SMALL
bcc


@<TRIPOS>ATOM
      1 O6         -0.1990   -0.4690   -0.0450 o         1 861     -0.641800
      2 S           1.1850   -0.2380    0.0680 s6        1 861      1.439900
      3 O5          1.7310   -0.2130    1.3690 o         1 861     -0.641800
      4 C18         2.0550   -1.4030   -0.8680 c3        1 861     -0.258300
      5 C19         1.9200   -2.7850   -0.3500 ca        1 861     -0.073300
      6 C24         2.5190   -3.1460    0.8650 ca        1 861     -0.112500
      7 C23         2.4180   -4.4540    1.3330 ca        1 861     -0.129500
      8 C22         1.7240   -5.4120    0.5940 ca        1 861     -0.122000
      9 C21         1.1250   -5.0570   -0.6140 ca        1 861     -0.129500
     10 C20         1.2230   -3.7500   -1.0880 ca        1 861     -0.112500
     11 N           1.5600    1.1680   -0.6950 n3        1 861     -0.812500
     12 C17         2.6700    1.9680   -0.2260 c3        1 861      0.214800
     13 C16         3.6290    2.4160   -1.3290 c3        1 861     -0.094400
     14 C15         2.8730    3.1110   -2.4390 c3        1 861     -0.076400
     15 C14         1.7470    2.2400   -2.9470 c3        1 861     -0.092400
     16 C13         0.8370    1.7800   -1.7900 c3        1 861      0.210500
     17 C12        -0.2100    0.8570   -2.4120 c         1 861      0.624100
     18 O4         -0.0220   -0.2200   -2.9820 o         1 861     -0.549000
     19 O3         -1.4600    1.3840   -2.3540 os        1 861     -0.415900
     20 C11        -2.5290    0.5410   -2.8320 c3        1 861      0.138400
     21 C10        -3.8120    1.2880   -2.5200 c3        1 861     -0.083400
     22 C9         -5.0070    0.4640   -2.9600 c3        1 861     -0.037100
     23 C3         -6.2900    1.1330   -2.6040 ca        1 861     -0.019300
     24 C2         -7.0810    1.7060   -3.6020 ca        1 861     -0.224000
     25 C4         -6.6950    1.1760   -1.2670 ca        1 861     -0.224000
     26 C5         -7.9070    1.7860   -0.9250 ca        1 861      0.139100
     27 O2         -8.3790    1.9020    0.3670 os        1 861     -0.312900
     28 C8         -7.6430    1.2060    1.3680 c3        1 861      0.111700
     29 C6         -8.7300    2.3550   -1.9210 ca        1 861      0.039100
     30 O1         -9.9930    2.8360   -1.6320 os        1 861     -0.310900
     31 C7         -9.9870    4.0920   -0.9520 c3        1 861      0.115700
     32 C1         -8.2920    2.3250   -3.2620 ca        1 861      0.139100
     33 O          -9.1250    2.9460   -4.1690 os        1 861     -0.312900
     34 C          -8.8120    2.7500   -5.5430 c3        1 861      0.111700
     35 H1          1.7010   -1.3800   -1.9400 h1        1 861      0.125200
     36 H2          3.1500   -1.1530   -0.9070 h1        1 861      0.125200
     37 H3          3.0510   -2.3850    1.4580 ha        1 861      0.145500
     38 H4          2.8870   -4.7280    2.2900 ha        1 861      0.134000
     39 H5          1.6470   -6.4440    0.9660 ha        1 861      0.132000
     40 H6          0.5730   -5.8090   -1.1970 ha        1 861      0.134000
     41 H7          0.7460   -3.4730   -2.0410 ha        1 861      0.145500
     42 H8          2.2610    2.8900    0.2840 h1        1 861      0.061200
     43 H9          3.2430    1.3760    0.5450 h1        1 861      0.061200
     44 H10         4.1820    1.5320   -1.7400 hc        1 861      0.052700
     45 H11         4.3830    3.1110   -0.8780 hc        1 861      0.052700
     46 H12         3.5700    3.3520   -3.2830 hc        1 861      0.049200
     47 H13         2.4570    4.0820   -2.0590 hc        1 861      0.049200
     48 H14         1.1160    2.8110   -3.6780 hc        1 861      0.062700
     49 H15         2.1620    1.3430   -3.4760 hc        1 861      0.062700
     50 H16         0.2960    2.6910   -1.3820 h1        1 861      0.082700
     51 H17        -2.3900    0.3810   -3.9320 h1        1 861      0.060200
     52 H18        -2.4750   -0.4440   -2.2980 h1        1 861      0.060200
     53 H19        -3.8680    1.4910   -1.4180 hc        1 861      0.061200
     54 H20        -3.8090    2.2790   -3.0430 hc        1 861      0.061200
     55 H21        -4.9680   -0.5440   -2.4660 hc        1 861      0.053200
     56 H22        -4.9550    0.2930   -4.0690 hc        1 861      0.053200
     57 H23        -6.7490    1.6700   -4.6480 ha        1 861      0.142000
     58 H24        -6.0560    0.7240   -0.4950 ha        1 861      0.142000
     59 H25        -6.6210    1.6420    1.4770 h1        1 861      0.045700
     60 H26        -8.2470    1.3770    2.2960 h1        1 861      0.045700
     61 H27        -7.5820    0.1160    1.1320 h1        1 861      0.045700
     62 H28       -11.0720    4.3080   -0.7910 h1        1 861      0.040700
     63 H29        -9.5160    4.8770   -1.5910 h1        1 861      0.040700
     64 H30        -9.4480    4.0030    0.0230 h1        1 861      0.040700
     65 H31        -9.6630    3.2480   -6.0740 h1        1 861      0.045700
     66 H32        -8.7740    1.6620   -5.7940 h1        1 861      0.045700
     67 H33        -7.8450    3.2460   -5.7990 h1        1 861      0.045700
@<TRIPOS>BOND
     1    1    2 2   
     2    2    3 2   
     3    2    4 1   
     4    2   11 1   
     5    4    5 1   
     6    4   35 1   
     7    4   36 1   
     8    5    6 ar  
     9    5   10 ar  
    10    6    7 ar  
    11    6   37 1   
    12    7    8 ar  
    13    7   38 1   
    14    8    9 ar  
    15    8   39 1   
    16    9   10 ar  
    17    9   40 1   
    18   10   41 1   
    19   11   12 1   
    20   11   16 1   
    21   12   13 1   
    22   12   42 1   
    23   12   43 1   
    24   13   14 1   
    25   13   44 1   
    26   13   45 1   
    27   14   15 1   
    28   14   46 1   
    29   14   47 1   
    30   15   16 1   
    31   15   48 1   
    32   15   49 1   
    33   16   17 1   
    34   16   50 1   
    35   17   18 2   
    36   17   19 1   
    37   19   20 1   
    38   20   21 1   
    39   20   51 1   
    40   20   52 1   
    41   21   22 1   
    42   21   53 1   
    43   21   54 1   
    44   22   23 1   
    45   22   55 1   
    46   22   56 1   
    47   23   24 ar  
    48   23   25 ar  
    49   24   32 ar  
    50   24   57 1   
    51   25   26 ar  
    52   25   58 1   
    53   26   27 1   
    54   26   29 ar  
    55   27   28 1   
    56   28   59 1   
    57   28   60 1   
    58   28   61 1   
    59   29   30 1   
    60   29   32 ar  
    61   30   31 1   
    62   31   62 1   
    63   31   63 1   
    64   31   64 1   
    65   32   33 1   
    66   33   34 1   
    67   34   65 1   
    68   34   66 1   
    69   34   67 1   
@<TRIPOS>SUBSTRUCTURE
     1 861         1 TEMP              0 ****  ****    0 ROOT
