@<TRIPOS>MOLECULE
861
   67    62     1     0     0
SMALL
bcc


@<TRIPOS>ATOM
      1 O6          1.4370    4.1430   -2.4110 o         1 861     -0.921000
      2 S           2.4460    3.4450   -1.5890 ss        1 861      2.795000
      3 O5          1.6550    3.0920   -0.4070 o         1 861     -0.921000
      4 C18         3.8180    4.5530   -1.1560 c2        1 861     -0.805000
      5 C19         3.2580    5.8960   -0.7350 c2        1 861     -0.066000
      6 C24         3.4170    6.9920   -1.5450 c1        1 861     -0.121000
      7 C23         2.9480    8.2440   -1.1290 c1        1 861     -0.125000
      8 C22         2.3280    8.3730    0.0900 c1        1 861     -0.125000
      9 C21         2.1680    7.2610    0.9080 c1        1 861     -0.132000
     10 C20         2.6330    6.0270    0.4950 c2        1 861     -0.104000
     11 N           3.0160    2.0930   -2.3580 n2        1 861     -0.832000
     12 C17         3.7550    2.2230   -3.6140 c3        1 861     -0.022000
     13 C16         4.7250    1.3220   -3.7810 c3        1 861     -0.173000
     14 C15         4.3700    0.0680   -3.6190 c3        1 861     -0.155000
     15 C14         3.6610   -0.2040   -2.3380 c3        1 861     -0.171000
     16 C13         2.3610    0.6890   -2.0870 c3        1 861      0.063000
     17 C12         1.7620    0.5410   -0.8180 c2        1 861      0.296000
     18 O4          2.3510    0.8890    0.1640 o         1 861     -0.360000
     19 O3          0.4920   -0.1030   -0.7000 os        1 861     -0.254000
     20 C11         0.2850   -0.7810    0.5550 c3        1 861     -0.013000
     21 C10        -1.0650   -1.4460    0.5440 c3        1 861     -0.163000
     22 C9         -1.5700   -1.6360    2.0080 c3        1 861     -0.121000
     23 C3         -2.6750   -2.7560    2.0380 c2        1 861     -0.055000
     24 C2         -3.7950   -2.6440    1.2260 c2        1 861     -0.138000
     25 C4         -2.4900   -3.8960    2.8200 c1        1 861     -0.141000
     26 C5         -3.4290   -4.9220    2.7860 c1        1 861      0.028000
     27 O2         -3.2310   -6.1020    3.5720 os        1 861     -0.226000
     28 C8         -3.4810   -5.9210    4.9630 c3        1 861     -0.075000
     29 C6         -4.5530   -4.8090    1.9710 c1        1 861      0.028000
     30 O1         -5.3980   -5.8740    1.8240 os        1 861     -0.226000
     31 C7         -4.9370   -6.8430    0.9500 c3        1 861     -0.075000
     32 C1         -4.7340   -3.6690    1.1920 c1        1 861      0.046000
     33 O          -5.8480   -3.5680    0.3470 o         1 861     -0.227000
     34 C          -7.0050   -3.0680    0.9850 c3        1 861     -0.077000
     35 H1          4.4110    4.6730   -1.9470 ha        1 861      0.164500
     36 H2          4.3420    4.1590   -0.4030 ha        1 861      0.164500
     37 H3          3.8480    6.9000   -2.3940 ha        1 861      0.150000
     38 H4          3.0610    9.0210   -1.7030 ha        1 861      0.133000
     39 H5          1.9900    9.2740    0.3920 ha        1 861      0.133000
     40 H6          1.7360    7.3490    1.7600 ha        1 861      0.133000
     41 H7          2.5230    5.2660    1.0550 ha        1 861      0.142000
     42 H8          4.1590    3.1320   -3.6470 h1        1 861      0.100500
     43 H9          3.1170    2.1370   -4.3600 h1        1 861      0.100500
     44 H10         5.4290    1.5200   -3.1470 hc        1 861      0.092000
     45 H11         5.0970    1.4280   -4.7110 hc        1 861      0.092000
     46 H12         3.7800   -0.1920   -4.3660 hc        1 861      0.088500
     47 H13         5.1800   -0.4900   -3.6510 hc        1 861      0.088500
     48 H14         3.3900   -1.1560   -2.3330 hc        1 861      0.101500
     49 H15         4.2860   -0.0560   -1.5980 hc        1 861      0.101500
     50 H16         1.6490    0.4880   -2.6760 h1        1 861      0.123000
     51 H17         0.9880   -1.4660    0.6810 h1        1 861      0.100000
     52 H18         0.3250   -0.1280    1.2930 h1        1 861      0.100000
     53 H19        -0.9930   -2.3190    0.1080 hc        1 861      0.101500
     54 H20        -1.6970   -0.8910    0.0530 hc        1 861      0.101500
     55 H21        -0.8190   -1.9030    2.5840 hc        1 861      0.093500
     56 H22        -1.9490   -0.7910    2.3340 hc        1 861      0.093500
     57 H23        -3.9250   -1.8460    0.6790 ha        1 861      0.153000
     58 H24        -1.7230   -3.9710    3.3760 ha        1 861      0.150000
     59 H25        -3.7410   -5.0090    5.1270 h1        1 861      0.085500
     60 H26        -4.2070   -6.5270    5.2480 h1        1 861      0.085500
     61 H27        -2.6570   -6.1280    5.4760 h1        1 861      0.085500
     62 H28        -4.0160   -6.6150    0.6570 h1        1 861      0.085500
     63 H29        -4.9300   -7.7120    1.4010 h1        1 861      0.085500
     64 H30        -5.5390   -6.8850    0.1520 h1        1 861      0.085500
     65 H31        -7.7610   -3.5780    0.7160 h1        1 861      0.085000
     66 H32        -6.8960   -3.1320    1.9500 h1        1 861      0.085000
     67 H33        -7.1340   -2.1610    0.7420 h1        1 861      0.085000
@<TRIPOS>BOND
     1    1    2 1   
     2    2    3 1   
     3    4    5 1   
     4    4   35 1   
     5    4   36 1   
     6    5    6 1   
     7    5   10 1   
     8    6   37 1   
     9    7    8 1   
    10    7   38 1   
    11    8   39 1   
    12    9   10 1   
    13    9   40 1   
    14   10   41 1   
    15   11   12 1   
    16   11   16 1   
    17   12   13 1   
    18   12   42 1   
    19   12   43 1   
    20   13   14 1   
    21   13   44 1   
    22   13   45 1   
    23   14   15 1   
    24   14   46 1   
    25   14   47 1   
    26   15   16 1   
    27   15   48 1   
    28   15   49 1   
    29   16   17 1   
    30   16   50 1   
    31   17   18 1   
    32   17   19 1   
    33   19   20 1   
    34   20   21 1   
    35   20   51 1   
    36   20   52 1   
    37   21   22 1   
    38   21   53 1   
    39   21   54 1   
    40   22   23 1   
    41   22   55 1   
    42   22   56 1   
    43   23   24 1   
    44   23   25 1   
    45   24   32 1   
    46   24   57 1   
    47   25   58 1   
    48   26   27 1   
    49   26   29 1   
    50   27   28 1   
    51   28   59 1   
    52   28   60 1   
    53   28   61 1   
    54   29   30 1   
    55   30   31 1   
    56   31   62 1   
    57   31   63 1   
    58   31   64 1   
    59   33   34 1   
    60   34   65 1   
    61   34   66 1   
    62   34   67 1   
@<TRIPOS>SUBSTRUCTURE
     1 861         1 TEMP              0 ****  ****    0 ROOT
