@<TRIPOS>MOLECULE
864
   60    61     1     0     0
SMALL
bcc


@<TRIPOS>ATOM
      1 C1          1.0240   -0.3670   -0.9200 c3        1 864     -0.083000
      2 C2          0.9110    1.1150   -1.3420 c2        1 864      0.370000
      3 C3          0.0410   -0.5480    0.1950 ca        1 864     -0.046000
      4 C4          0.3360   -0.8360    1.5300 ca        1 864     -0.056000
      5 C5         -0.6460   -0.6650    2.5130 ca        1 864     -0.122000
      6 C6         -1.8780   -0.0920    2.2000 ca        1 864     -0.100000
      7 C7         -2.1730    0.1870    0.8620 ca        1 864     -0.185000
      8 C8         -1.2720   -0.1850   -0.1390 ca        1 864     -0.115000
      9 C9         -3.2970    1.0660    0.4360 c3        1 864     -0.055000
     10 N10        -2.7080    2.2950   -0.2110 nz        1 864     -0.088000
     11 O13         2.0410    1.7800   -1.3010 os        1 864     -0.606000
     12 O14        -0.1410    1.7000   -1.6690 o         1 864     -0.491000
     13 C15         2.4760   -0.6310   -0.6310 c3        1 864     -0.877000
     14 P24         3.3170    0.8490   -0.5620 p5        1 864      1.997000
     15 C25         3.8700   -1.7910   -3.7270 c2        1 864     -0.599000
     16 C26         4.0740   -3.1750   -3.2340 c3        1 864     -0.017000
     17 C27         2.7190   -3.8340   -3.0470 c3        1 864     -0.205000
     18 C28         4.9320   -4.0020   -4.1760 c3        1 864     -0.205000
     19 N29         4.8630   -0.8220   -3.6240 ny        1 864      0.161000
     20 C30         5.9370   -0.8290   -4.7150 c2        1 864      0.194000
     21 O31         5.7920   -0.5110   -5.8980 o         1 864     -0.358000
     22 O32         7.1530   -1.3000   -4.2980 os        1 864     -0.274000
     23 C33         8.1630   -1.4380   -5.3150 c3        1 864      0.026000
     24 O34         3.3600    1.3610    0.8110 o         1 864     -0.822000
     25 O35         4.4040    0.8530   -1.5570 o         1 864     -0.822000
     26 C36         9.4400   -1.8230   -4.6470 ca        1 864     -0.083000
     27 C37         9.7560   -1.3650   -3.3640 ca        1 864     -0.113500
     28 C38        10.9730   -1.7120   -2.7790 ca        1 864     -0.133000
     29 C39        11.8800   -2.5120   -3.4720 ca        1 864     -0.129000
     30 C40        11.5670   -2.9710   -4.7520 ca        1 864     -0.133000
     31 C41        10.3490   -2.6320   -5.3380 ca        1 864     -0.113500
     32 H1          0.6820   -0.9960   -1.7940 hc        1 864      0.136000
     33 H4          1.3470   -1.1550    1.8310 ha        1 864      0.171000
     34 H5         -0.4160   -0.9260    3.5580 ha        1 864      0.151000
     35 H6         -2.5980    0.1510    2.9950 ha        1 864      0.136000
     36 H8         -1.5440   -0.0930   -1.2040 ha        1 864      0.150000
     37 H91        -3.9300    1.3930    1.3060 hx        1 864      0.135500
     38 H92        -3.9460    0.5620   -0.3350 hx        1 864      0.135500
     39 H101       -2.1900    2.8400    0.4850 hn        1 864      0.263000
     40 H102       -3.4370    2.8720   -0.6240 hn        1 864      0.263000
     41 H151        2.9060   -1.2620   -1.4630 hc        1 864      0.152000
     42 H152        2.6170   -1.2160    0.3050 hc        1 864      0.152000
     43 H25         3.1400   -1.6420   -4.5320 hx        1 864      0.129000
     44 H26         4.5900   -3.1540   -2.2290 hc        1 864      0.061000
     45 H271        2.8460   -4.8600   -2.6270 hc        1 864      0.064500
     46 H272        2.0910   -3.2310   -2.3470 hc        1 864      0.064500
     47 H273        2.1830   -3.9130   -4.0230 hc        1 864      0.064500
     48 H281        5.1180   -5.0170   -3.7510 hc        1 864      0.064500
     49 H282        5.9160   -3.4980   -4.3400 hc        1 864      0.064500
     50 H283        4.4260   -4.1180   -5.1640 hc        1 864      0.064500
     51 HN29        4.4510    0.1200   -3.6780 hn        1 864      0.264000
     52 H331        8.2730   -0.4570   -5.8510 h1        1 864      0.100000
     53 H332        7.8200   -2.2210   -6.0430 h1        1 864      0.100000
     54 H37         9.0330   -0.7380   -2.8180 ha        1 864      0.141000
     55 H38        11.2160   -1.3520   -1.7680 ha        1 864      0.130500
     56 H39        12.8410   -2.7830   -3.0100 ha        1 864      0.128000
     57 H40        12.2810   -3.6040   -5.2990 ha        1 864      0.130500
     58 H41        10.1020   -3.0000   -6.3450 ha        1 864      0.141000
     59 H103       -2.0210    2.0150   -0.9450 hn        1 864      0.263000
     60 H292        5.3670   -0.8980   -2.7320 hn        1 864      0.264000
@<TRIPOS>BOND
     1    1    2 1   
     2    1    3 1   
     3    1   13 1   
     4    1   32 1   
     5    2   11 1   
     6    2   12 1   
     7    3    4 1   
     8    3    8 1   
     9    4    5 1   
    10    4   33 1   
    11    5    6 1   
    12    5   34 1   
    13    6    7 1   
    14    6   35 1   
    15    7    8 1   
    16    7    9 1   
    17    8   36 1   
    18    9   10 1   
    19    9   37 1   
    20    9   38 1   
    21   10   39 1   
    22   10   40 1   
    23   10   59 1   
    24   11   14 1   
    25   13   14 1   
    26   13   41 1   
    27   13   42 1   
    28   14   24 1   
    29   14   25 1   
    30   15   16 1   
    31   15   19 1   
    32   15   43 1   
    33   16   17 1   
    34   16   18 1   
    35   16   44 1   
    36   17   45 1   
    37   17   46 1   
    38   17   47 1   
    39   18   48 1   
    40   18   49 1   
    41   18   50 1   
    42   19   20 1   
    43   19   51 1   
    44   19   60 1   
    45   20   21 1   
    46   20   22 1   
    47   22   23 1   
    48   23   26 1   
    49   23   52 1   
    50   23   53 1   
    51   26   27 1   
    52   26   31 1   
    53   27   28 1   
    54   27   54 1   
    55   28   29 1   
    56   28   55 1   
    57   29   30 1   
    58   29   56 1   
    59   30   31 1   
    60   30   57 1   
    61   31   58 1   
@<TRIPOS>SUBSTRUCTURE
     1 864         1 TEMP              0 ****  ****    0 ROOT
