@<TRIPOS>MOLECULE
864
   59    56     1     0     0
SMALL
bcc


@<TRIPOS>ATOM
      1 C1         -2.3760    1.1950    2.1930 c3        1 864     -0.142000
      2 C2         -2.8940    0.8190    3.5700 c2        1 864      0.334000
      3 C3         -3.4090    2.0800    1.4780 c2        1 864     -0.029000
      4 C4         -4.7020    1.5840    1.2170 c2        1 864     -0.092000
      5 C5         -5.6170    2.3650    0.4880 c1        1 864     -0.145000
      6 C6         -5.2480    3.6150    0.0300 c1        1 864     -0.144000
      7 C7         -3.9610    4.1060    0.2910 c1        1 864     -0.142000
      8 C8         -3.0440    3.3280    1.0190 c2        1 864     -0.122000
      9 C9         -3.5420    5.4400   -0.2620 c2        1 864     -0.048000
     10 N10        -4.3940    6.4620    0.2630 n3        1 864     -0.335000
     11 O13        -2.4060    1.4050    4.6300 o         1 864     -0.554500
     12 O14        -3.8880    0.0330    3.6820 o         1 864     -0.554500
     13 C15        -2.1380   -0.0480    1.3910 c3        1 864     -0.921000
     14 P24        -0.4830   -0.7710    1.8460 p5        1 864      2.803000
     15 C25         0.0030   -1.9930    0.6080 c3        1 864     -0.655000
     16 C26        -0.2490   -3.4400    1.1690 c3        1 864     -0.112000
     17 C27        -1.0050   -4.2310    0.1680 c3        1 864     -0.204000
     18 C28         1.1190   -4.1380    1.4570 c3        1 864     -0.204000
     19 N29         1.3530   -1.8390    0.3080 n         1 864     -0.295000
     20 C30         1.7540   -1.4070   -1.0040 c2        1 864      0.391000
     21 O31         0.9090   -0.9350   -1.7900 o         1 864     -0.411000
     22 O32         3.1790   -1.3900   -1.3630 os        1 864     -0.290000
     23 C33         3.4570   -0.7670   -2.6030 c3        1 864      0.038000
     24 O34         0.5440    0.3210    1.8970 o         1 864     -1.144000
     25 O35        -0.5840   -1.4720    3.2730 oh        1 864     -0.843000
     26 C36         4.9610   -0.8590   -2.8930 c2        1 864     -0.077000
     27 C37         5.7840    0.2210   -2.6280 c2        1 864     -0.100000
     28 C38         7.1320    0.1610   -2.9490 c1        1 864     -0.133000
     29 C39         7.6550   -0.9810   -3.5360 c1        1 864     -0.136000
     30 C40         6.8320   -2.0620   -3.8020 c1        1 864     -0.136000
     31 C41         5.4830   -2.0020   -3.4800 c1        1 864     -0.132000
     32 H1         -1.5390    1.6860    2.2850 hc        1 864      0.091000
     33 H4         -5.0070    0.7110    1.6420 ha        1 864      0.174000
     34 H5         -6.4650    1.9840    0.2190 ha        1 864      0.118000
     35 H6         -5.8790    4.1550   -0.4730 ha        1 864      0.111000
     36 H8         -2.1240    3.6990    1.2350 ha        1 864      0.129000
     37 H91        -3.6140    5.4250   -1.2590 h4        1 864      0.089500
     38 H92        -2.5920    5.6270    0.0020 h4        1 864      0.089500
     39 H101       -5.2160    6.3500   -0.0440 hn        1 864      0.136000
     40 H102       -4.4000    6.4160    1.1310 hn        1 864      0.136000
     41 H151       -2.8350   -0.6910    1.5800 hc        1 864      0.151500
     42 H152       -2.1480    0.1680    0.4600 hc        1 864      0.151500
     43 H25        -0.5480   -1.8570   -0.2380 h1        1 864      0.117000
     44 H26        -0.7560   -3.3840    1.9810 hc        1 864      0.122000
     45 H271       -1.0430   -3.7510   -0.6500 hc        1 864      0.077833
     46 H272       -1.8930   -4.3860    0.4880 hc        1 864      0.077833
     47 H273       -0.5440   -5.1100    0.0190 hc        1 864      0.077833
     48 H281        0.9530   -5.0990    1.7610 hc        1 864      0.077833
     49 H282        1.6730   -4.1430    0.6260 hc        1 864      0.077833
     50 H283        1.6010   -3.6400    2.1760 hc        1 864      0.077833
     51 HN29        1.9850   -1.9380    0.9720 hn        1 864      0.262000
     52 H331        2.9770   -1.2050   -3.2920 h1        1 864      0.099500
     53 H332        3.1920    0.1620   -2.5640 h1        1 864      0.099500
     54 HO35        0.0740   -1.1770    3.7970 ho        1 864      0.321000
     55 H37         5.4360    0.9850   -2.1500 ha        1 864      0.159000
     56 H38         7.6990    0.9060   -2.7660 ha        1 864      0.130000
     57 H39         8.6600   -1.0250   -3.7750 ha        1 864      0.124000
     58 H40         7.2200   -2.9070   -4.1660 ha        1 864      0.124000
     59 H41         4.9060   -2.7580   -3.6660 ha        1 864      0.129000
@<TRIPOS>BOND
     1    1    2 1   
     2    1    3 1   
     3    1   13 1   
     4    1   32 1   
     5    2   11 1   
     6    2   12 1   
     7    3    4 1   
     8    3    8 1   
     9    4    5 1   
    10    4   33 1   
    11    5   34 1   
    12    6    7 1   
    13    6   35 1   
    14    7    8 1   
    15    8   36 1   
    16    9   10 1   
    17    9   37 1   
    18    9   38 1   
    19   10   39 1   
    20   10   40 1   
    21   13   14 1   
    22   13   41 1   
    23   13   42 1   
    24   14   15 1   
    25   14   24 1   
    26   14   25 1   
    27   15   16 1   
    28   15   19 1   
    29   15   43 1   
    30   16   17 1   
    31   16   18 1   
    32   16   44 1   
    33   17   45 1   
    34   17   46 1   
    35   17   47 1   
    36   18   48 1   
    37   18   49 1   
    38   18   50 1   
    39   19   20 1   
    40   19   51 1   
    41   20   21 1   
    42   20   22 1   
    43   22   23 1   
    44   23   26 1   
    45   23   52 1   
    46   23   53 1   
    47   25   54 1   
    48   26   27 1   
    49   26   31 1   
    50   27   28 1   
    51   27   55 1   
    52   28   56 1   
    53   29   30 1   
    54   29   57 1   
    55   30   58 1   
    56   31   59 1   
@<TRIPOS>SUBSTRUCTURE
     1 864         1 TEMP              0 ****  ****    0 ROOT
