@<TRIPOS>MOLECULE
864
   60    61     1     0     0
SMALL
bcc


@<TRIPOS>ATOM
      1 C1          1.0290   -0.3890   -0.8990 c3        1 864     -0.083000
      2 C2          0.9540    1.1210   -1.2200 c2        1 864      0.370000
      3 C3          0.0280   -0.6240    0.1880 ca        1 864     -0.046000
      4 C4          0.2980   -1.0100    1.5040 ca        1 864     -0.056000
      5 C5         -0.6930   -0.8850    2.4850 ca        1 864     -0.122000
      6 C6         -1.9080   -0.2650    2.1970 ca        1 864     -0.100000
      7 C7         -2.1780    0.1120    0.8790 ca        1 864     -0.185000
      8 C8         -1.2720   -0.2090   -0.1350 ca        1 864     -0.115000
      9 C9         -3.2770    1.0440    0.5010 c3        1 864     -0.055000
     10 N10        -2.6540    2.3000   -0.0520 n4        1 864     -0.088000
     11 O13         2.0980    1.7560   -1.1190 os        1 864     -0.606000
     12 O14        -0.0810    1.7510   -1.5170 o         1 864     -0.491000
     13 C15         2.4710   -0.7050   -0.6130 c3        1 864     -0.877000
     14 P24         3.3430    0.7480   -0.4320 p5        1 864      1.997000
     15 C25         3.8740   -1.6750   -3.7700 c2        1 864     -0.599000
     16 C26         4.0390   -3.0950   -3.3740 c3        1 864     -0.017000
     17 C27         2.6660   -3.7320   -3.2490 c3        1 864     -0.205000
     18 C28         4.8890   -3.8750   -4.3630 c3        1 864     -0.205000
     19 N29         4.8880   -0.7410   -3.5870 n4        1 864      0.161000
     20 C30         5.9760   -0.6970   -4.6640 c2        1 864      0.194000
     21 O31         5.8540   -0.2920   -5.8230 o         1 864     -0.358000
     22 O32         7.1750   -1.2260   -4.2680 os        1 864     -0.274000
     23 C33         8.1940   -1.3180   -5.2810 c3        1 864      0.026000
     24 O34         3.3800    1.1630    0.9740 o         1 864     -0.822000
     25 O35         4.4420    0.7960   -1.4130 o         1 864     -0.822000
     26 C36         9.4510   -1.7820   -4.6290 ca        1 864     -0.083000
     27 C37         9.7640   -1.4230   -3.3140 ca        1 864     -0.113500
     28 C38        10.9640   -1.8430   -2.7420 ca        1 864     -0.133000
     29 C39        11.8590   -2.6180   -3.4790 ca        1 864     -0.129000
     30 C40        11.5490   -2.9780   -4.7910 ca        1 864     -0.133000
     31 C41        10.3480   -2.5660   -5.3650 ca        1 864     -0.113500
     32 H1          0.6860   -0.9480   -1.8200 hc        1 864      0.136000
     33 H4          1.2990   -1.3720    1.7930 ha        1 864      0.171000
     34 H5         -0.4820   -1.2230    3.5120 ha        1 864      0.151000
     35 H6         -2.6320   -0.0610    2.9990 ha        1 864      0.136000
     36 H8         -1.5280   -0.0380   -1.1950 ha        1 864      0.150000
     37 H91        -3.9270    0.6090   -0.3100 hx        1 864      0.135500
     38 H92        -3.9150    1.3240    1.3850 hx        1 864      0.135500
     39 H101       -2.1340    2.7840    0.6860 hn        1 864      0.263000
     40 H102       -3.3650    2.9210   -0.4320 hn        1 864      0.263000
     41 H151        2.5870   -1.3560    0.2820 hc        1 864      0.152000
     42 H152        2.8980   -1.2870   -1.4810 hc        1 864      0.152000
     43 H25         3.1590   -1.4520   -4.5700 hx        1 864      0.129000
     44 H26         4.5420   -3.1580   -2.3640 hc        1 864      0.061000
     45 H271        2.0440   -3.1650   -2.5150 hc        1 864      0.064500
     46 H272        2.1410   -3.7280   -4.2340 hc        1 864      0.064500
     47 H273        2.7630   -4.7880   -2.9010 hc        1 864      0.064500
     48 H281        4.3930   -3.9070   -5.3620 hc        1 864      0.064500
     49 H282        5.8860   -3.3840   -4.4800 hc        1 864      0.064500
     50 H283        5.0450   -4.9210   -4.0090 hc        1 864      0.064500
     51 HN29        5.3790   -0.8910   -2.6970 hn        1 864      0.264000
     52 H331        8.3360   -0.3030   -5.7440 h1        1 864      0.100000
     53 H332        7.8410   -2.0360   -6.0680 h1        1 864      0.100000
     54 H37         9.0510   -0.8160   -2.7340 ha        1 864      0.141000
     55 H38        11.2040   -1.5600   -1.7060 ha        1 864      0.130500
     56 H39        12.8060   -2.9450   -3.0280 ha        1 864      0.128000
     57 H40        12.2520   -3.5910   -5.3740 ha        1 864      0.130500
     58 H41        10.1030   -2.8570   -6.3970 ha        1 864      0.141000
     59 H103       -1.9640    2.0570   -0.7960 hn        1 864      0.263000
     60 H292        4.5000    0.2120   -3.5790 hn        1 864      0.264000
@<TRIPOS>BOND
     1    1    2 1   
     2    1    3 1   
     3    1   13 1   
     4    1   32 1   
     5    2   11 1   
     6    2   12 1   
     7    3    4 1   
     8    3    8 1   
     9    4    5 1   
    10    4   33 1   
    11    5    6 1   
    12    5   34 1   
    13    6    7 1   
    14    6   35 1   
    15    7    8 1   
    16    7    9 1   
    17    8   36 1   
    18    9   10 1   
    19    9   37 1   
    20    9   38 1   
    21   10   39 1   
    22   10   40 1   
    23   10   59 1   
    24   11   14 1   
    25   13   14 1   
    26   13   41 1   
    27   13   42 1   
    28   14   24 1   
    29   14   25 1   
    30   15   16 1   
    31   15   19 1   
    32   15   43 1   
    33   16   17 1   
    34   16   18 1   
    35   16   44 1   
    36   17   45 1   
    37   17   46 1   
    38   17   47 1   
    39   18   48 1   
    40   18   49 1   
    41   18   50 1   
    42   19   20 1   
    43   19   51 1   
    44   19   60 1   
    45   20   21 1   
    46   20   22 1   
    47   22   23 1   
    48   23   26 1   
    49   23   52 1   
    50   23   53 1   
    51   26   27 1   
    52   26   31 1   
    53   27   28 1   
    54   27   54 1   
    55   28   29 1   
    56   28   55 1   
    57   29   30 1   
    58   29   56 1   
    59   30   31 1   
    60   30   57 1   
    61   31   58 1   
@<TRIPOS>SUBSTRUCTURE
     1 864         1 TEMP              0 ****  ****    0 ROOT
