@<TRIPOS>MOLECULE
864
   59    60     1     0     0
SMALL
bcc


@<TRIPOS>ATOM
      1 C1          1.3170   -0.4520   -0.2040 c3        1 864     -0.142400
      2 C2          1.7920   -1.4020    0.9460 c         1 864      0.911600
      3 C3         -0.1500   -0.1870   -0.1570 ca        1 864     -0.035300
      4 C4         -1.0730   -1.2400   -0.1000 ca        1 864     -0.094000
      5 C5         -2.4410   -0.9740   -0.0710 ca        1 864     -0.145000
      6 C6         -2.9030    0.3400   -0.0970 ca        1 864     -0.145000
      7 C7         -1.9920    1.3990   -0.1450 ca        1 864     -0.149300
      8 C8         -0.6220    1.1320   -0.1750 ca        1 864     -0.121000
      9 C9         -2.4940    2.8150   -0.1640 c3        1 864      0.196100
     10 N10        -3.1410    3.2720    1.0440 n3        1 864     -0.903800
     11 O13         2.9220   -1.1170    1.4480 o         1 864     -0.821300
     12 O14         1.1090   -2.4050    1.2620 o         1 864     -0.821300
     13 C15         1.7340   -1.0280   -1.5470 c3        1 864     -0.432600
     14 P24         3.1790   -0.4370   -2.0710 p5        1 864      1.486100
     15 C25         4.0620   -1.8350   -2.5020 c3        1 864     -0.192500
     16 C26         4.2930   -2.7250   -1.2680 c3        1 864     -0.099700
     17 C27         3.9220   -4.1610   -1.5830 c3        1 864     -0.089600
     18 C28         5.7060   -2.6770   -0.7190 c3        1 864     -0.089600
     19 N29         5.2360   -1.3990   -3.2150 n         1 864     -0.446900
     20 C30         5.8910   -2.3000   -4.0430 c         1 864      0.727100
     21 O31         5.4420   -3.2880   -4.6470 o         1 864     -0.590000
     22 O32         7.2150   -1.9510   -4.2710 os        1 864     -0.450900
     23 C33         7.8650   -2.7020   -5.3090 c3        1 864      0.194700
     24 O34         3.0510    0.5670   -3.1240 o         1 864     -0.855300
     25 O35         4.0640    0.1630   -0.8810 oh        1 864     -0.821400
     26 C36         9.2100   -2.1000   -5.5430 ca        1 864     -0.085300
     27 C37         9.4650   -0.7500   -5.2810 ca        1 864     -0.114000
     28 C38        10.7260   -0.2140   -5.5420 ca        1 864     -0.134500
     29 C39        11.7350   -1.0200   -6.0690 ca        1 864     -0.134000
     30 C40        11.4830   -2.3670   -6.3310 ca        1 864     -0.134500
     31 C41        10.2270   -2.9080   -6.0660 ca        1 864     -0.114000
     32 H1          1.8540    0.5310   -0.0570 hc        1 864      0.050700
     33 H4         -0.6940   -2.2750   -0.0330 ha        1 864      0.175000
     34 H5         -3.1570   -1.8060   -0.0210 ha        1 864      0.117000
     35 H6         -3.9830    0.5470   -0.0810 ha        1 864      0.111000
     36 H8          0.0950    1.9670   -0.2130 ha        1 864      0.130000
     37 H91        -1.6380    3.5150   -0.3830 h1        1 864      0.050200
     38 H92        -3.2390    2.9170   -1.0060 h1        1 864      0.050200
     39 H101       -3.8850    2.6480    1.2950 hn        1 864      0.340800
     40 H102       -2.4860    3.2920    1.8030 hn        1 864      0.340800
     41 H151        0.9430   -0.7700   -2.3050 hc        1 864      0.111200
     42 H152        1.6800   -2.1470   -1.4580 hc        1 864      0.111200
     43 H25         3.4530   -2.4430   -3.2400 h1        1 864      0.112700
     44 H26         3.6130   -2.3600   -0.4360 hc        1 864      0.098700
     45 H271        2.8360   -4.2380   -1.8300 hc        1 864      0.037700
     46 H272        4.1260   -4.8130   -0.6990 hc        1 864      0.037700
     47 H273        4.5140   -4.5340   -2.4540 hc        1 864      0.037700
     48 H281        6.4420   -3.0860   -1.4540 hc        1 864      0.037700
     49 H282        5.7590   -3.2960    0.2100 hc        1 864      0.037700
     50 H283        5.9970   -1.6310   -0.4510 hc        1 864      0.037700
     51 HN29        5.8310   -0.7980   -2.6780 hn        1 864      0.317500
     52 H331        7.2410   -2.6540   -6.2430 h1        1 864      0.061200
     53 H332        7.9420   -3.7720   -4.9770 h1        1 864      0.061200
     54 HO35        3.9200   -0.1340    0.0280 ho        1 864      0.517000
     55 H37         8.6650   -0.1190   -4.8610 ha        1 864      0.143000
     56 H38        10.9210    0.8470   -5.3310 ha        1 864      0.127500
     57 H39        12.7270   -0.5950   -6.2750 ha        1 864      0.124000
     58 H40        12.2770   -3.0040   -6.7440 ha        1 864      0.127500
     59 H41        10.0320   -3.9720   -6.2670 ha        1 864      0.143000
@<TRIPOS>BOND
     1    1    2 1   
     2    1    3 1   
     3    1   13 1   
     4    1   32 1   
     5    2   11 1   
     6    2   12 1   
     7    3    4 ar  
     8    3    8 ar  
     9    4    5 ar  
    10    4   33 1   
    11    5    6 ar  
    12    5   34 1   
    13    6    7 ar  
    14    6   35 1   
    15    7    8 ar  
    16    7    9 1   
    17    8   36 1   
    18    9   10 1   
    19    9   37 1   
    20    9   38 1   
    21   10   39 1   
    22   10   40 1   
    23   13   14 1   
    24   13   41 1   
    25   13   42 1   
    26   14   15 1   
    27   14   24 2   
    28   14   25 1   
    29   15   16 1   
    30   15   19 1   
    31   15   43 1   
    32   16   17 1   
    33   16   18 1   
    34   16   44 1   
    35   17   45 1   
    36   17   46 1   
    37   17   47 1   
    38   18   48 1   
    39   18   49 1   
    40   18   50 1   
    41   19   20 1   
    42   19   51 1   
    43   20   21 2   
    44   20   22 1   
    45   22   23 1   
    46   23   26 1   
    47   23   52 1   
    48   23   53 1   
    49   25   54 1   
    50   26   27 ar  
    51   26   31 ar  
    52   27   28 ar  
    53   27   55 1   
    54   28   29 ar  
    55   28   56 1   
    56   29   30 ar  
    57   29   57 1   
    58   30   31 ar  
    59   30   58 1   
    60   31   59 1   
@<TRIPOS>SUBSTRUCTURE
     1 864         1 TEMP              0 ****  ****    0 ROOT
