@<TRIPOS>MOLECULE
865
   82    88     1     0     0
SMALL
bcc


@<TRIPOS>ATOM
      1 C01        -0.0280    0.4350   -0.4360 c3        1 865     -0.071800
      2 C02         1.3630    0.9190   -0.2690 ca        1 865     -0.014300
      3 C03         1.7680    1.4060    0.9780 ca        1 865     -0.274300
      4 C04         3.0710    1.9030    1.1170 ca        1 865      0.409200
      5 N05         3.9690    1.9400    0.1240 nb        1 865     -0.695000
      6 C06         3.5890    1.4480   -1.0970 ca        1 865      0.532800
      7 C07         2.2810    0.9150   -1.3390 cp        1 865     -0.121300
      8 C08         1.8540    0.4880   -2.6720 cp        1 865     -0.068000
      9 C09         1.7590    1.4710   -3.6660 ca        1 865     -0.112000
     10 C10         1.2350    1.2050   -4.9340 ca        1 865     -0.169000
     11 C11         0.7550   -0.0590   -5.2520 ca        1 865     -0.091000
     12 C12         0.8360   -1.0700   -4.3000 ca        1 865     -0.082800
     13 C13         0.3760   -2.4410   -4.2930 cc        1 865     -0.154400
     14 C14        -0.3310   -3.1170   -5.3900 c3        1 865     -0.008200
     15 C15         0.5760   -3.3690   -6.5820 c3        1 865     -0.076400
     16 C16        -0.1500   -4.2320   -7.5980 c3        1 865      0.126400
     17 O17         0.6340   -4.1700   -8.8040 os        1 865     -0.330900
     18 C18         0.1660   -4.9020   -9.8680 ca        1 865      0.164100
     19 C19        -0.9790   -5.6780   -9.8500 ca        1 865     -0.232000
     20 C20        -1.3640   -6.3830  -11.0110 ca        1 865     -0.082000
     21 C21        -0.6210   -6.3120  -12.1630 ca        1 865     -0.174000
     22 C22         0.5610   -5.5220  -12.2070 ca        1 865     -0.008000
     23 C23         1.3510   -5.4320  -13.3860 ca        1 865     -0.138000
     24 C24         2.4900   -4.6660  -13.4080 ca        1 865     -0.120000
     25 C25         2.8970   -3.9540  -12.2560 ca        1 865     -0.154000
     26 C26         2.1530   -4.0220  -11.1020 ca        1 865     -0.081000
     27 C27         0.9700   -4.8060  -11.0550 ca        1 865     -0.061000
     28 C28         0.6890   -2.9840   -3.0460 cd        1 865     -0.066300
     29 C29         0.2530   -4.3420   -2.5090 c         1 865      0.924800
     30 O30         0.0450   -4.4490   -1.2650 o         1 865     -0.810300
     31 O31         0.1110   -5.2800   -3.3340 o         1 865     -0.810300
     32 N32         1.3590   -2.0130   -2.2620 na        1 865     -0.056400
     33 C33         2.0790   -2.3250   -1.0680 c3        1 865     -0.033700
     34 C34         3.5700   -2.6640   -1.2830 c         1 865      0.632100
     35 O35         4.3950   -1.7230   -1.2590 o         1 865     -0.644100
     36 N36         4.0100   -3.9510   -1.5160 n         1 865     -0.445800
     37 C37         5.4290   -4.2140   -1.6410 c3        1 865      0.071000
     38 C38         5.9740   -5.1390   -0.5300 c3        1 865      0.140300
     39 N39         5.1790   -6.3370   -0.3450 n3        1 865     -0.821200
     40 C40         3.7530   -6.0880   -0.2580 c3        1 865      0.140300
     41 C41         3.2190   -5.1490   -1.3630 c3        1 865      0.071000
     42 C42         1.4350   -0.8180   -3.0000 ca        1 865     -0.029200
     43 N43         4.5500    1.5250   -2.1310 na        1 865     -0.246700
     44 C44         4.8420    0.5550   -3.1010 cc        1 865     -0.175600
     45 C45         5.9360    1.0510   -3.8250 cd        1 865      0.255200
     46 N46         6.3380    2.2910   -3.3140 nd        1 865     -0.684000
     47 C47         5.5110    2.5520   -2.2880 cc        1 865      0.399400
     48 H1         -0.0830   -0.6610   -0.2080 hc        1 865      0.060700
     49 H2         -0.7190    0.9740    0.2570 hc        1 865      0.060700
     50 H3         -0.3830    0.5840   -1.4870 hc        1 865      0.060700
     51 H4          1.0760    1.4080    1.8300 ha        1 865      0.140000
     52 H5          3.4270    2.3010    2.0850 h4        1 865      0.014100
     53 H6          2.0990    2.4920   -3.4350 ha        1 865      0.124000
     54 H7          1.1930    2.0120   -5.6780 ha        1 865      0.119000
     55 H8          0.3110   -0.2680   -6.2360 ha        1 865      0.128000
     56 H9         -0.7290   -4.1030   -5.0130 hc        1 865      0.060200
     57 H10        -1.2040   -2.4890   -5.7180 hc        1 865      0.060200
     58 H11         0.8800   -2.3990   -7.0530 hc        1 865      0.056700
     59 H12         1.5100   -3.8910   -6.2480 hc        1 865      0.056700
     60 H13        -0.2160   -5.2950   -7.2490 h1        1 865      0.044200
     61 H14        -1.1770   -3.8360   -7.8110 h1        1 865      0.044200
     62 H15        -1.5990   -5.7640   -8.9470 ha        1 865      0.145000
     63 H16        -2.2770   -6.9960  -10.9730 ha        1 865      0.125000
     64 H17        -0.9210   -6.8620  -13.0660 ha        1 865      0.125000
     65 H18         1.0280   -5.9910  -14.2770 ha        1 865      0.125000
     66 H19         3.1010   -4.5980  -14.3210 ha        1 865      0.122000
     67 H20         3.8130   -3.3480  -12.2950 ha        1 865      0.129000
     68 H21         2.4550   -3.4760  -10.1940 ha        1 865      0.155000
     69 H23         2.0830   -1.4150   -0.3980 h1        1 865      0.104700
     70 H24         1.5350   -3.1620   -0.5370 h1        1 865      0.104700
     71 H25         5.6000   -4.7060   -2.6400 h1        1 865      0.082450
     72 H26         6.0100   -3.2490   -1.6110 h1        1 865      0.082450
     73 H27         7.0100   -5.4630   -0.8290 h1        1 865      0.030700
     74 H28         6.0660   -4.5360    0.4210 h1        1 865      0.030700
     75 H29         5.4890   -6.8250    0.4750 hn        1 865      0.350800
     76 H31         3.2290   -7.0770   -0.3750 h1        1 865      0.030700
     77 H32         3.4600   -5.6600    0.7450 h1        1 865      0.030700
     78 H33         2.1410   -4.9160   -1.1270 h1        1 865      0.082450
     79 H34         3.2390   -5.6990   -2.3490 h1        1 865      0.082450
     80 H35         4.2790   -0.3790   -3.1650 h4        1 865      0.210000
     81 H36         6.4460    0.5930   -4.6700 h4        1 865      0.035100
     82 H37         5.5360    3.4310   -1.6380 h5        1 865      0.061100
@<TRIPOS>BOND
     1    1    2 1   
     2    1   48 1   
     3    1   49 1   
     4    1   50 1   
     5    2    3 ar  
     6    2    7 ar  
     7    3    4 ar  
     8    3   51 1   
     9    4    5 ar  
    10    4   52 1   
    11    5    6 ar  
    12    6    7 ar  
    13    6   43 1   
    14    7    8 1   
    15    8    9 ar  
    16    8   42 ar  
    17    9   10 ar  
    18    9   53 1   
    19   10   11 ar  
    20   10   54 1   
    21   11   12 ar  
    22   11   55 1   
    23   12   13 1   
    24   12   42 ar  
    25   13   14 1   
    26   13   28 2   
    27   14   15 1   
    28   14   56 1   
    29   14   57 1   
    30   15   16 1   
    31   15   58 1   
    32   15   59 1   
    33   16   17 1   
    34   16   60 1   
    35   16   61 1   
    36   17   18 1   
    37   18   19 ar  
    38   18   27 ar  
    39   19   20 ar  
    40   19   62 1   
    41   20   21 ar  
    42   20   63 1   
    43   21   22 ar  
    44   21   64 1   
    45   22   23 ar  
    46   22   27 ar  
    47   23   24 ar  
    48   23   65 1   
    49   24   25 ar  
    50   24   66 1   
    51   25   26 ar  
    52   25   67 1   
    53   26   27 ar  
    54   26   68 1   
    55   28   29 1   
    56   28   32 1   
    57   29   30 1   
    58   29   31 1   
    59   32   33 1   
    60   32   42 1   
    61   33   34 1   
    62   33   69 1   
    63   33   70 1   
    64   34   35 2   
    65   34   36 1   
    66   36   37 1   
    67   36   41 1   
    68   37   38 1   
    69   37   71 1   
    70   37   72 1   
    71   38   39 1   
    72   38   73 1   
    73   38   74 1   
    74   39   40 1   
    75   39   75 1   
    76   40   41 1   
    77   40   76 1   
    78   40   77 1   
    79   41   78 1   
    80   41   79 1   
    81   43   44 1   
    82   43   47 1   
    83   44   45 2   
    84   44   80 1   
    85   45   46 1   
    86   45   81 1   
    87   46   47 2   
    88   47   82 1   
@<TRIPOS>SUBSTRUCTURE
     1 865         1 TEMP              0 ****  ****    0 ROOT
