@<TRIPOS>MOLECULE
865
   82    88     1     0     0
SMALL
bcc


@<TRIPOS>ATOM
      1 C01        -0.0910    0.3800   -0.4310 c3        1 865     -0.071800
      2 C02         1.2900    0.8860   -0.2560 ca        1 865     -0.014300
      3 C03         1.6830    1.3740    0.9950 ca        1 865     -0.274300
      4 C04         2.9760    1.8920    1.1410 ca        1 865      0.409200
      5 N05         3.8770    1.9490    0.1520 nb        1 865     -0.695000
      6 C06         3.5100    1.4570   -1.0730 ca        1 865      0.532800
      7 C07         2.2130    0.9030   -1.3230 cp        1 865     -0.121300
      8 C08         1.7970    0.4760   -2.6590 cp        1 865     -0.068000
      9 C09         1.6900    1.4610   -3.6490 ca        1 865     -0.112000
     10 C10         1.1760    1.1930   -4.9210 ca        1 865     -0.169000
     11 C11         0.7180   -0.0780   -5.2460 ca        1 865     -0.091000
     12 C12         0.8120   -1.0910   -4.2990 ca        1 865     -0.082800
     13 C13         0.3740   -2.4700   -4.3010 cc        1 865     -0.154400
     14 C14        -0.3170   -3.1520   -5.4030 c3        1 865     -0.008200
     15 C15         0.5990   -3.3830   -6.5920 c3        1 865     -0.076400
     16 C16        -0.1090   -4.2530   -7.6160 c3        1 865      0.126400
     17 O17         0.6790   -4.1720   -8.8180 os        1 865     -0.330900
     18 C18         0.2270   -4.9070   -9.8870 ca        1 865      0.164100
     19 C19        -0.9050   -5.7010   -9.8780 ca        1 865     -0.232000
     20 C20        -1.2730   -6.4080  -11.0440 ca        1 865     -0.082000
     21 C21        -0.5260   -6.3190  -12.1920 ca        1 865     -0.174000
     22 C22         0.6430   -5.5110  -12.2270 ca        1 865     -0.008000
     23 C23         1.4370   -5.4030  -13.4020 ca        1 865     -0.138000
     24 C24         2.5640   -4.6180  -13.4160 ca        1 865     -0.120000
     25 C25         2.9530   -3.9040  -12.2590 ca        1 865     -0.154000
     26 C26         2.2050   -3.9890  -11.1090 ca        1 865     -0.081000
     27 C27         1.0360   -4.7930  -11.0700 ca        1 865     -0.061000
     28 C28         0.6920   -3.0140   -3.0540 cd        1 865     -0.066300
     29 C29         0.2760   -4.3810   -2.5250 c         1 865      0.924800
     30 O30         0.0630   -4.4960   -1.2820 o         1 865     -0.810300
     31 O31         0.1520   -5.3170   -3.3540 o         1 865     -0.810300
     32 N32         1.3420   -2.0350   -2.2640 na        1 865     -0.056400
     33 C33         2.0630   -2.3410   -1.0680 c3        1 865     -0.033700
     34 C34         3.5590   -2.6570   -1.2800 c         1 865      0.632100
     35 O35         4.3700   -1.7030   -1.2520 o         1 865     -0.644100
     36 N36         4.0210   -3.9360   -1.5130 n         1 865     -0.445800
     37 C37         5.4440   -4.1760   -1.6350 c3        1 865      0.071000
     38 C38         6.0000   -5.0970   -0.5260 c3        1 865      0.140300
     39 N39         5.2230   -6.3070   -0.3470 n7        1 865     -0.821200
     40 C40         3.7930   -6.0810   -0.2640 c3        1 865      0.140300
     41 C41         3.2470   -5.1460   -1.3680 c3        1 865      0.071000
     42 C42         1.4010   -0.8360   -2.9950 ca        1 865     -0.029200
     43 N43         4.4740    1.5560   -2.1030 na        1 865     -0.246700
     44 C44         4.7860    0.5950   -3.0760 cc        1 865     -0.175600
     45 C45         5.8740    1.1140   -3.7940 cd        1 865      0.255200
     46 N46         6.2520    2.3590   -3.2760 nd        1 865     -0.684000
     47 C47         5.4170    2.6000   -2.2520 cc        1 865      0.399400
     48 H1         -0.7950    0.9040    0.2620 hc        1 865      0.060700
     49 H2         -0.1290   -0.7180   -0.2070 hc        1 865      0.060700
     50 H3         -0.4440    0.5270   -1.4820 hc        1 865      0.060700
     51 H4          0.9880    1.3600    1.8440 ha        1 865      0.140000
     52 H5          3.3220    2.2910    2.1120 h4        1 865      0.014100
     53 H6          2.0130    2.4860   -3.4120 ha        1 865      0.124000
     54 H7          1.1240    2.0030   -5.6610 ha        1 865      0.119000
     55 H8          0.2810   -0.2890   -6.2330 ha        1 865      0.128000
     56 H9         -0.7000   -4.1460   -5.0320 hc        1 865      0.060200
     57 H10        -1.1990   -2.5370   -5.7320 hc        1 865      0.060200
     58 H11         0.8890   -2.4050   -7.0580 hc        1 865      0.056700
     59 H12         1.5400   -3.8910   -6.2580 hc        1 865      0.056700
     60 H13        -0.1590   -5.3190   -7.2720 h1        1 865      0.044200
     61 H14        -1.1420   -3.8720   -7.8320 h1        1 865      0.044200
     62 H15        -1.5280   -5.8010   -8.9790 ha        1 865      0.145000
     63 H16        -2.1760   -7.0360  -11.0130 ha        1 865      0.125000
     64 H17        -0.8130   -6.8700  -13.0980 ha        1 865      0.125000
     65 H18         1.1270   -5.9620  -14.2970 ha        1 865      0.125000
     66 H19         3.1770   -4.5360  -14.3250 ha        1 865      0.122000
     67 H20         3.8600   -3.2840  -12.2910 ha        1 865      0.129000
     68 H21         2.4940   -3.4420  -10.1970 ha        1 865      0.155000
     69 H23         2.0510   -1.4350   -0.3940 h1        1 865      0.104700
     70 H24         1.5300   -3.1890   -0.5420 h1        1 865      0.104700
     71 H25         6.0090   -3.2030   -1.6000 h1        1 865      0.082450
     72 H26         5.6250   -4.6620   -2.6360 h1        1 865      0.082450
     73 H27         7.0410   -5.4040   -0.8230 h1        1 865      0.030700
     74 H28         6.0800   -4.4960    0.4270 h1        1 865      0.030700
     75 H29         5.5370   -6.7930    0.4720 hn        1 865      0.350800
     76 H31         3.2840   -7.0780   -0.3860 h1        1 865      0.030700
     77 H32         3.4900   -5.6610    0.7400 h1        1 865      0.030700
     78 H33         2.1650   -4.9310   -1.1340 h1        1 865      0.082450
     79 H34         3.2790   -5.6930   -2.3550 h1        1 865      0.082450
     80 H35         4.2400   -0.3480   -3.1460 h4        1 865      0.210000
     81 H36         6.3950    0.6690   -4.6390 h4        1 865      0.035100
     82 H37         5.4240    3.4770   -1.5980 h5        1 865      0.061100
@<TRIPOS>BOND
     1    1    2 1   
     2    1   48 1   
     3    1   49 1   
     4    1   50 1   
     5    2    3 ar  
     6    2    7 ar  
     7    3    4 ar  
     8    3   51 1   
     9    4    5 ar  
    10    4   52 1   
    11    5    6 ar  
    12    6    7 ar  
    13    6   43 1   
    14    7    8 1   
    15    8    9 ar  
    16    8   42 ar  
    17    9   10 ar  
    18    9   53 1   
    19   10   11 ar  
    20   10   54 1   
    21   11   12 ar  
    22   11   55 1   
    23   12   13 1   
    24   12   42 ar  
    25   13   14 1   
    26   13   28 2   
    27   14   15 1   
    28   14   56 1   
    29   14   57 1   
    30   15   16 1   
    31   15   58 1   
    32   15   59 1   
    33   16   17 1   
    34   16   60 1   
    35   16   61 1   
    36   17   18 1   
    37   18   19 ar  
    38   18   27 ar  
    39   19   20 ar  
    40   19   62 1   
    41   20   21 ar  
    42   20   63 1   
    43   21   22 ar  
    44   21   64 1   
    45   22   23 ar  
    46   22   27 ar  
    47   23   24 ar  
    48   23   65 1   
    49   24   25 ar  
    50   24   66 1   
    51   25   26 ar  
    52   25   67 1   
    53   26   27 ar  
    54   26   68 1   
    55   28   29 1   
    56   28   32 1   
    57   29   30 1   
    58   29   31 1   
    59   32   33 1   
    60   32   42 1   
    61   33   34 1   
    62   33   69 1   
    63   33   70 1   
    64   34   35 2   
    65   34   36 1   
    66   36   37 1   
    67   36   41 1   
    68   37   38 1   
    69   37   71 1   
    70   37   72 1   
    71   38   39 1   
    72   38   73 1   
    73   38   74 1   
    74   39   40 1   
    75   39   75 1   
    76   40   41 1   
    77   40   76 1   
    78   40   77 1   
    79   41   78 1   
    80   41   79 1   
    81   43   44 1   
    82   43   47 1   
    83   44   45 2   
    84   44   80 1   
    85   45   46 1   
    86   45   81 1   
    87   46   47 2   
    88   47   82 1   
@<TRIPOS>SUBSTRUCTURE
     1 865         1 TEMP              0 ****  ****    0 ROOT
