@<TRIPOS>MOLECULE
866
   58    53     1     0     0
SMALL
bcc


@<TRIPOS>ATOM
      1 C1         -4.5450    2.7920   -3.0700 c3        1 866     -0.240000
      2 C2         -3.0440    2.7950   -3.2440 c3        1 866     -0.027000
      3 N1         -2.4250    2.1270   -2.1110 n         1 866     -0.319000
      4 C3         -2.3900    0.6930   -2.0560 c3        1 866     -0.052000
      5 C4         -0.8920    0.2020   -2.1290 c3        1 866      0.018000
      6 O1         -0.0490    1.1430   -1.4690 oh        1 866     -0.309000
      7 C5         -0.7640   -1.1590   -1.4510 c3        1 866     -0.060000
      8 N2          0.5990   -1.3460   -0.9860 n         1 866     -0.344000
      9 C6          0.9860   -2.6040   -0.3710 c2        1 866      0.396000
     10 O2          0.3290   -3.5970   -0.5670 o         1 866     -0.419000
     11 C7          2.2550   -2.6750    0.5290 c2        1 866     -0.327000
     12 C8          3.4350   -2.0270    0.3030 c1        1 866     -0.093000
     13 N3          4.3300   -2.4390    1.2450 n2        1 866     -0.075000
     14 N4          3.7020   -3.3520    2.0630 n3        1 866     -0.130000
     15 C9          2.4270   -3.4990    1.6260 c1        1 866      0.174000
     16 N5          1.4790   -4.4230    2.1280 n2        1 866     -0.330000
     17 C10         4.2640   -3.9800    3.1700 c1        1 866      0.048000
     18 C11         4.1660   -3.3880    4.4340 c1        1 866     -0.126500
     19 C12         4.7890   -3.9850    5.5380 c1        1 866     -0.126500
     20 C13         5.5100   -5.1740    5.3780 c1        1 866      0.092000
     21 F1          6.0490   -5.7930    6.4640 f         1 866     -0.100000
     22 C14         5.6090   -5.7660    4.1160 c1        1 866     -0.159000
     23 C15         4.9850   -5.1680    3.0080 c1        1 866     -0.090000
     24 C16        -0.4820    0.0870   -3.5500 c3        1 866      0.414000
     25 F2         -1.4680   -0.5090   -4.2540 f         1 866     -0.166000
     26 F3         -0.2540    1.3080   -4.0470 f         1 866     -0.166000
     27 F4          0.6550   -0.6570   -3.6390 f         1 866     -0.166000
     28 C17        -1.9630    2.9090   -0.9690 c2        1 866      0.363000
     29 O3         -1.0560    2.4780   -0.2510 o         1 866     -0.355000
     30 C18        -2.6370    4.2630   -0.6330 c2        1 866     -0.101000
     31 C19        -2.2500    5.4130   -1.3050 c2        1 866     -0.032000
     32 CL1        -1.1070    5.3110   -2.6380 cl        1 866      0.031000
     33 C20        -2.7460    6.6520   -0.9070 c1        1 866     -0.129000
     34 C21        -3.6300    6.7360    0.1640 c1        1 866     -0.126500
     35 C22        -4.0170    5.5880    0.8350 c1        1 866     -0.126500
     36 C23        -3.5240    4.3500    0.4410 c1        1 866     -0.027000
     37 CL2        -3.8830    2.9340    1.3870 cl        1 866      0.011000
     38 H1         -4.7840    3.2860   -2.2430 hc        1 866      0.085000
     39 H1A        -4.8700    1.8480   -3.0020 hc        1 866      0.085000
     40 H1B        -4.9670    3.2280   -3.8480 hc        1 866      0.085000
     41 H2         -2.8110    2.3200   -4.0720 h1        1 866      0.102500
     42 H2A        -2.7210    3.7230   -3.2970 h1        1 866      0.102500
     43 H3         -2.7930    0.3900   -1.2230 h1        1 866      0.120500
     44 H3A        -2.8990    0.3200   -2.8240 h1        1 866      0.120500
     45 HO1         0.1080    0.8710   -0.6470 ho        1 866      0.254000
     46 H5         -1.3770   -1.2020   -0.6910 h1        1 866      0.119500
     47 H5A        -0.9890   -1.8630   -2.0910 h1        1 866      0.119500
     48 HN2         1.2360   -0.7160   -1.1750 hn        1 866      0.230000
     49 H8          3.6040   -1.3940   -0.3930 DU        1 866      0.185000
     50 HN5         0.7310   -4.6140    1.6450 hn        1 866      0.236000
     51 HN5A        1.6360   -4.8570    2.9240 hn        1 866      0.236000
     52 H11         3.6540   -2.5430    4.5480 ha        1 866      0.154750
     53 H12         4.7200   -3.5670    6.4290 ha        1 866      0.154750
     54 H14         6.1190   -6.6080    4.0020 ha        1 866      0.156000
     55 H15         5.0540   -5.5860    2.1180 ha        1 866      0.163000
     56 H20        -2.4730    7.4640   -1.3810 ha        1 866      0.157000
     57 H21        -3.9810    7.6120    0.4460 ha        1 866      0.154750
     58 H22        -4.6440    5.6500    1.5940 ha        1 866      0.154750
@<TRIPOS>BOND
     1    1    2 1   
     2    1   38 1   
     3    1   39 1   
     4    1   40 1   
     5    2    3 1   
     6    2   41 1   
     7    2   42 1   
     8    3    4 1   
     9    3   28 1   
    10    4    5 1   
    11    4   43 1   
    12    4   44 1   
    13    5    6 1   
    14    5    7 1   
    15    5   24 1   
    16    6   45 1   
    17    7    8 1   
    18    7   46 1   
    19    7   47 1   
    20    8    9 1   
    21    8   48 1   
    22    9   10 1   
    23    9   11 1   
    24   11   12 1   
    25   11   15 1   
    26   12   13 1   
    27   13   14 1   
    28   14   15 1   
    29   14   17 1   
    30   16   50 1   
    31   16   51 1   
    32   17   23 1   
    33   18   19 1   
    34   18   52 1   
    35   19   53 1   
    36   20   21 1   
    37   20   22 1   
    38   22   54 1   
    39   23   55 1   
    40   24   25 1   
    41   24   26 1   
    42   24   27 1   
    43   28   29 1   
    44   28   30 1   
    45   30   31 1   
    46   30   36 1   
    47   31   32 1   
    48   31   33 1   
    49   33   56 1   
    50   34   35 1   
    51   34   57 1   
    52   35   58 1   
    53   36   37 1   
@<TRIPOS>SUBSTRUCTURE
     1 866         1 TEMP              0 ****  ****    0 ROOT
