@<TRIPOS>MOLECULE
866
   61    63     1     0     0
SMALL
bcc


@<TRIPOS>ATOM
      1 C1         -0.2900   -0.4530    0.5340 c3        1 866     -0.139100
      2 C2          0.8370    0.2270   -0.2080 c3        1 866      0.120800
      3 N1          2.1790    0.1530    0.4840 n4        1 866     -0.620200
      4 C3          2.5590   -1.2660    0.7250 c3        1 866      0.076800
      5 C4          4.0730   -1.5560    0.8010 c3        1 866      0.081800
      6 O1          4.8300   -0.6010    1.4990 oh        1 866     -0.577800
      7 C5          4.2720   -2.9570    1.4430 c3        1 866      0.070800
      8 N2          5.7130   -3.3450    1.4890 n4        1 866     -0.661800
      9 C6          5.9920   -4.5640    2.3440 c         1 866      0.617700
     10 O2          5.0870   -4.9550    3.0790 o         1 866     -0.472100
     11 C7          7.2930   -5.1430    2.2130 cc        1 866     -0.366900
     12 C8          8.4060   -4.8040    1.3630 cc        1 866      0.389200
     13 N3          9.4400   -5.6600    1.5860 nd        1 866     -0.377800
     14 N4          9.0730   -6.5330    2.5320 na        1 866      0.323300
     15 C9          7.7650   -6.2860    2.9590 cd        1 866     -0.028700
     16 N5          7.0400   -7.0510    3.9470 n4        1 866     -0.687000
     17 C10         9.8950   -7.6070    3.0120 ca        1 866     -0.162200
     18 C11        10.6100   -8.4040    2.0920 ca        1 866     -0.069000
     19 C12        11.4210   -9.4300    2.5600 ca        1 866     -0.148500
     20 C13        11.5490   -9.6570    3.9460 ca        1 866      0.235900
     21 F1         12.3330  -10.6440    4.4010 f         1 866     -0.062900
     22 C14        10.8540   -8.8300    4.8660 ca        1 866     -0.148500
     23 C15        10.0440   -7.8090    4.4050 ca        1 866     -0.069000
     24 C16         4.7080   -1.5570   -0.6650 c3        1 866      0.627900
     25 F2          4.2580   -0.5450   -1.4570 f         1 866     -0.201633
     26 F3          6.0730   -1.4640   -0.6360 f         1 866     -0.201633
     27 F4          4.4430   -2.7260   -1.3270 f         1 866     -0.201633
     28 C17         2.1650    1.0010    1.7680 c         1 866      0.618700
     29 O3          2.4910    0.4000    2.7830 o         1 866     -0.461100
     30 C18         1.8040    2.4110    1.6000 ca        1 866     -0.228600
     31 C19         2.5040    3.2480    0.7030 ca        1 866      0.064400
     32 CL1         3.7380    2.6210   -0.2910 cl        1 866     -0.034900
     33 C20         2.2250    4.6100    0.6360 ca        1 866     -0.101500
     34 C21         1.2300    5.1560    1.4570 ca        1 866     -0.024000
     35 C22         0.5200    4.3450    2.3380 ca        1 866     -0.101500
     36 C23         0.8010    2.9740    2.4170 ca        1 866      0.064400
     37 CL2        -0.0960    2.0200    3.4820 cl        1 866     -0.034900
     38 H1         -0.4220   -0.0420    1.5650 hc        1 866      0.085033
     39 H1A        -1.2390   -0.2610   -0.0370 hc        1 866      0.085033
     40 H1B        -0.1450   -1.5580    0.5960 hc        1 866      0.085033
     41 H2          0.6060    1.3270   -0.3390 hx        1 866      0.119200
     42 H2A         0.9670   -0.2330   -1.2310 hx        1 866      0.119200
     43 H3          2.1380   -1.8930   -0.1200 hx        1 866      0.135700
     44 H3A         2.0670   -1.5970    1.6900 hx        1 866      0.135700
     45 HO1         4.4050   -0.4120    2.3550 ho        1 866      0.471000
     46 H5          3.8730   -2.9420    2.5020 hx        1 866      0.146200
     47 H5A         3.7060   -3.7360    0.8540 hx        1 866      0.146200
     48 HN2         6.2580   -2.5460    1.8580 hn        1 866      0.486300
     49 H8          8.5050   -3.9990    0.6240 h4        1 866      0.092100
     50 HN5         7.3090   -8.0510    3.9000 hn        1 866      0.497133
     51 HN5A        7.2570   -6.6970    4.8940 hn        1 866      0.497133
     52 H11        10.5410   -8.2290    1.0030 ha        1 866      0.159500
     53 H12        11.9820  -10.0650    1.8490 ha        1 866      0.203500
     54 H14        10.9910   -8.9970    5.9490 ha        1 866      0.203500
     55 H15         9.5810   -7.1300    5.1380 ha        1 866      0.159500
     56 H20         2.7870    5.2640   -0.0560 ha        1 866      0.200500
     57 H21         1.0120    6.2400    1.4040 ha        1 866      0.198000
     58 H22        -0.2670    4.7820    2.9820 ha        1 866      0.200500
     59 H111        2.8800    0.6090   -0.1450 hn        1 866      0.480800
     60 H221        6.0470   -3.5310    0.5290 hn        1 866      0.486300
     61 H53         6.0260   -6.9520    3.7720 hn        1 866      0.497133
@<TRIPOS>BOND
     1    1    2 1   
     2    1   38 1   
     3    1   39 1   
     4    1   40 1   
     5    2    3 1   
     6    2   41 1   
     7    2   42 1   
     8    3    4 1   
     9    3   28 1   
    10    3   59 1   
    11    4    5 1   
    12    4   43 1   
    13    4   44 1   
    14    5    6 1   
    15    5    7 1   
    16    5   24 1   
    17    6   45 1   
    18    7    8 1   
    19    7   46 1   
    20    7   47 1   
    21    8    9 1   
    22    8   48 1   
    23    8   60 1   
    24    9   10 2   
    25    9   11 1   
    26   11   12 1   
    27   11   15 2   
    28   12   13 2   
    29   12   49 1   
    30   13   14 1   
    31   14   15 1   
    32   14   17 1   
    33   15   16 1   
    34   16   50 1   
    35   16   51 1   
    36   16   61 1   
    37   17   18 ar  
    38   17   23 ar  
    39   18   19 ar  
    40   18   52 1   
    41   19   20 ar  
    42   19   53 1   
    43   20   21 1   
    44   20   22 ar  
    45   22   23 ar  
    46   22   54 1   
    47   23   55 1   
    48   24   25 1   
    49   24   26 1   
    50   24   27 1   
    51   28   29 2   
    52   28   30 1   
    53   30   31 ar  
    54   30   36 ar  
    55   31   32 1   
    56   31   33 ar  
    57   33   34 ar  
    58   33   56 1   
    59   34   35 ar  
    60   34   57 1   
    61   35   36 ar  
    62   35   58 1   
    63   36   37 1   
@<TRIPOS>SUBSTRUCTURE
     1 866         1 TEMP              0 ****  ****    0 ROOT
