@<TRIPOS>MOLECULE
866
   60    62     1     0     0
SMALL
bcc


@<TRIPOS>ATOM
      1 C1         -0.2000   -0.5590    0.3080 c3        1 866     -0.137100
      2 C2          0.9260    0.2280   -0.3240 c3        1 866      0.120800
      3 N1          2.2350    0.1600    0.4210 nx        1 866     -0.610200
      4 C3          2.6620   -1.2580    0.5970 c3        1 866      0.075800
      5 C4          4.1820   -1.4700    0.7630 c3        1 866      0.079800
      6 O1          4.8080   -0.4740    1.5330 oh        1 866     -0.576800
      7 C5          4.4120   -2.8740    1.3680 c3        1 866      0.066800
      8 N2          5.8470   -3.2100    1.5120 ny        1 866     -0.674800
      9 C6          6.0910   -4.3970    2.4820 c         1 866      0.618700
     10 O2          5.1940   -4.5630    3.3120 o         1 866     -0.532100
     11 C7          7.2890   -5.0730    2.2690 cc        1 866     -0.485900
     12 C8          8.3610   -4.8950    1.2910 cc        1 866      0.348200
     13 N3          9.3310   -5.7920    1.4810 nd        1 866     -0.397800
     14 N4          8.9890   -6.5760    2.5410 na        1 866      0.129300
     15 C9          7.7430   -6.2060    3.0800 cd        1 866      0.321300
     16 N5          7.1080   -6.7680    4.1240 nv        1 866     -0.805200
     17 C10         9.7970   -7.6550    3.0250 ca        1 866     -0.063200
     18 C11        10.2610   -8.6390    2.1310 ca        1 866     -0.088500
     19 C12        11.0460   -9.6840    2.6040 ca        1 866     -0.153000
     20 C13        11.3780   -9.7540    3.9700 ca        1 866      0.176900
     21 F1         12.1340  -10.7710    4.4300 f         1 866     -0.101900
     22 C14        10.9240   -8.7580    4.8610 ca        1 866     -0.153000
     23 C15        10.1470   -7.7100    4.3900 ca        1 866     -0.088500
     24 C16         4.9040   -1.3730   -0.6550 c3        1 866      0.628900
     25 F2          4.4700   -0.3230   -1.4120 f         1 866     -0.205967
     26 F3          6.2590   -1.2430   -0.5480 f         1 866     -0.205967
     27 F4          4.7000   -2.4970   -1.4090 f         1 866     -0.205967
     28 C17         2.1460    0.9240    1.7480 c         1 866      0.610700
     29 O3          2.4490    0.2850    2.7450 o         1 866     -0.441100
     30 C18         1.7440    2.3330    1.6480 ca        1 866     -0.217600
     31 C19         2.4820    3.2520    0.8720 ca        1 866      0.061400
     32 Cl1         3.8070    2.7350   -0.0620 cl        1 866     -0.034900
     33 C20         2.1580    4.6070    0.8770 ca        1 866     -0.105000
     34 C21         1.0840    5.0610    1.6500 ca        1 866     -0.035000
     35 C22         0.3360    4.1670    2.4120 ca        1 866     -0.105000
     36 C23         0.6610    2.8040    2.4180 ca        1 866      0.061400
     37 Cl2        -0.2750    1.7470    3.3450 cl        1 866     -0.034900
     38 H1         -0.0030   -1.6580    0.2880 hc        1 866      0.082700
     39 H1A        -0.3910   -0.2420    1.3630 hc        1 866      0.082700
     40 H1B        -1.1310   -0.3630   -0.2880 hc        1 866      0.082700
     41 H2          1.1220   -0.1470   -1.3710 hx        1 866      0.114200
     42 H2A         0.6460    1.3220   -0.3850 hx        1 866      0.114200
     43 H3          2.1260   -1.6730    1.5020 hx        1 866      0.132700
     44 H3A         2.3310   -1.8420   -0.3140 hx        1 866      0.132700
     45 HO1         4.4590   -0.5140    2.4420 ho        1 866      0.464000
     46 H5          3.9330   -2.9190    2.3940 hx        1 866      0.142700
     47 H5A         3.9230   -3.6560    0.7160 hx        1 866      0.142700
     48 HN2         6.2450   -3.4440    0.5950 hn        1 866      0.462800
     49 H8          8.4290   -4.1520    0.4920 h4        1 866      0.053100
     50 HN5         6.2140   -6.4170    4.3910 hn        1 866      0.481300
     51 HN5A        7.4890   -7.5590    4.5950 hn        1 866      0.481300
     52 H11        10.0210   -8.5880    1.0560 ha        1 866      0.157000
     53 H12        11.4170  -10.4590    1.9120 ha        1 866      0.178500
     54 H14        11.2050   -8.8130    5.9250 ha        1 866      0.178500
     55 H15         9.8350   -6.9200    5.0920 ha        1 866      0.157000
     56 H20         2.7490    5.3240    0.2790 ha        1 866      0.194000
     57 H21         0.8310    6.1370    1.6560 ha        1 866      0.190000
     58 H22        -0.5120    4.5310    3.0210 ha        1 866      0.194000
     59 H111        2.9500    0.6680   -0.1460 hn        1 866      0.480800
     60 H221        6.3540   -2.3930    1.8760 hn        1 866      0.462800
@<TRIPOS>BOND
     1    1    2 1   
     2    1   38 1   
     3    1   39 1   
     4    1   40 1   
     5    2    3 1   
     6    2   41 1   
     7    2   42 1   
     8    3    4 1   
     9    3   28 1   
    10    3   59 1   
    11    4    5 1   
    12    4   43 1   
    13    4   44 1   
    14    5    6 1   
    15    5    7 1   
    16    5   24 1   
    17    6   45 1   
    18    7    8 1   
    19    7   46 1   
    20    7   47 1   
    21    8    9 1   
    22    8   48 1   
    23    8   60 1   
    24    9   10 2   
    25    9   11 1   
    26   11   12 1   
    27   11   15 2   
    28   12   13 2   
    29   12   49 1   
    30   13   14 1   
    31   14   15 1   
    32   14   17 1   
    33   15   16 1   
    34   16   50 1   
    35   16   51 1   
    36   17   18 ar  
    37   17   23 ar  
    38   18   19 ar  
    39   18   52 1   
    40   19   20 ar  
    41   19   53 1   
    42   20   21 1   
    43   20   22 ar  
    44   22   23 ar  
    45   22   54 1   
    46   23   55 1   
    47   24   25 1   
    48   24   26 1   
    49   24   27 1   
    50   28   29 2   
    51   28   30 1   
    52   30   31 ar  
    53   30   36 ar  
    54   31   32 1   
    55   31   33 ar  
    56   33   34 ar  
    57   33   56 1   
    58   34   35 ar  
    59   34   57 1   
    60   35   36 ar  
    61   35   58 1   
    62   36   37 1   
@<TRIPOS>SUBSTRUCTURE
     1 866         1 TEMP              0 ****  ****    0 ROOT
