@<TRIPOS>MOLECULE
866
   58    60     1     0     0
SMALL
bcc


@<TRIPOS>ATOM
      1 C1         -4.9100    2.0980    1.8860 c3        1 866     -0.122100
      2 C2         -4.2450    0.7540    1.6330 c3        1 866      0.088000
      3 N1         -3.6550    0.5890    0.3230 n         1 866     -0.458800
      4 C3         -2.4140    1.2700    0.0540 c3        1 866      0.063000
      5 C4         -1.1290    0.4020    0.0870 c3        1 866      0.095800
      6 O1         -1.1890   -0.7520   -0.7220 oh        1 866     -0.589800
      7 C5          0.0320    1.3310   -0.3630 c3        1 866      0.070000
      8 N2          1.2670    0.6580   -0.6290 n         1 866     -0.554900
      9 C6          2.4820    1.2040   -0.2440 c         1 866      0.728700
     10 O2          2.5320    2.3700    0.2230 o         1 866     -0.662100
     11 C7          3.6750    0.4010   -0.4370 cc        1 866     -0.408900
     12 C8          3.8210   -0.9790   -0.8470 cc        1 866      0.370200
     13 N3          5.1160   -1.3450   -0.8520 nd        1 866     -0.507800
     14 N4          5.8460   -0.2590   -0.4850 na        1 866      0.111300
     15 C9          5.0100    0.8550   -0.2030 cd        1 866      0.226300
     16 N5          5.4260    2.1200    0.1300 nh        1 866     -0.818200
     17 C10         7.2580   -0.2860   -0.3180 ca        1 866      0.002800
     18 C11         7.8740   -1.3730    0.3380 ca        1 866     -0.105000
     19 C12         9.2520   -1.3970    0.5060 ca        1 866     -0.158500
     20 C13        10.0380   -0.3350    0.0230 ca        1 866      0.126900
     21 F1         11.3810   -0.3540    0.1960 f         1 866     -0.134900
     22 C14         9.4310    0.7430   -0.6450 ca        1 866     -0.158500
     23 C15         8.0530    0.7630   -0.8240 ca        1 866     -0.105000
     24 C16        -0.8620   -0.1540    1.5400 c3        1 866      0.631900
     25 F2         -1.7700   -1.0860    1.9680 f         1 866     -0.234633
     26 F3          0.3470   -0.7740    1.7040 f         1 866     -0.234633
     27 F4         -0.8900    0.8230    2.5060 f         1 866     -0.234633
     28 C17        -4.3270   -0.0140   -0.7330 c         1 866      0.690700
     29 O3         -3.7830   -0.0990   -1.8530 o         1 866     -0.601100
     30 C18        -5.6940   -0.5730   -0.5040 ca        1 866     -0.121600
     31 C19        -5.8580   -1.8790   -0.0160 ca        1 866      0.048900
     32 CL1        -4.5090   -2.8110    0.4070 cl        1 866     -0.057900
     33 C20        -7.1380   -2.4270    0.1230 ca        1 866     -0.128500
     34 C21        -8.2560   -1.6730   -0.2250 ca        1 866     -0.098000
     35 C22        -8.1100   -0.3760   -0.7130 ca        1 866     -0.128500
     36 C23        -6.8300    0.1720   -0.8530 ca        1 866      0.048900
     37 CL2        -6.6740    1.7520   -1.4550 cl        1 866     -0.057900
     38 H1         -4.1800    2.9370    1.7910 hc        1 866      0.046033
     39 H1A        -5.7490    2.2770    1.1710 hc        1 866      0.046033
     40 H1B        -5.3190    2.1010    2.9250 hc        1 866      0.046033
     41 H2         -3.4220    0.6060    2.3940 h1        1 866      0.064700
     42 H2A        -5.0020   -0.0670    1.7900 h1        1 866      0.064700
     43 H3         -2.4700    1.7260   -0.9800 h1        1 866      0.081700
     44 H3A        -2.2760    2.0970    0.8090 h1        1 866      0.081700
     45 HO1        -1.7500   -0.5550   -1.4880 ho        1 866      0.453000
     46 H5         -0.2990    1.8420   -1.3140 h1        1 866      0.072700
     47 H5A         0.1850    2.1200    0.4300 h1        1 866      0.072700
     48 HN2         1.2130   -0.3080   -0.8550 hn        1 866      0.326500
     49 H8          3.0280   -1.6780   -1.1210 h4        1 866      0.048100
     50 HN5         4.6810    2.7270    0.4150 hn        1 866      0.438300
     51 HN5A        6.2840    2.2030    0.6270 hn        1 866      0.438300
     52 H11         7.2700   -2.2150    0.7130 ha        1 866      0.161500
     53 H12         9.7360   -2.2440    1.0170 ha        1 866      0.156500
     54 H14        10.0540    1.5630   -1.0350 ha        1 866      0.156500
     55 H15         7.6000    1.5980   -1.3820 ha        1 866      0.161500
     56 H20        -7.2590   -3.4530    0.5040 ha        1 866      0.157000
     57 H21        -9.2630   -2.1060   -0.1180 ha        1 866      0.148000
     58 H22        -8.9960    0.2140   -0.9920 ha        1 866      0.157000
@<TRIPOS>BOND
     1    1    2 1   
     2    1   38 1   
     3    1   39 1   
     4    1   40 1   
     5    2    3 1   
     6    2   41 1   
     7    2   42 1   
     8    3    4 1   
     9    3   28 1   
    10    4    5 1   
    11    4   43 1   
    12    4   44 1   
    13    5    6 1   
    14    5    7 1   
    15    5   24 1   
    16    6   45 1   
    17    7    8 1   
    18    7   46 1   
    19    7   47 1   
    20    8    9 1   
    21    8   48 1   
    22    9   10 2   
    23    9   11 1   
    24   11   12 1   
    25   11   15 2   
    26   12   13 2   
    27   12   49 1   
    28   13   14 1   
    29   14   15 1   
    30   14   17 1   
    31   15   16 1   
    32   16   50 1   
    33   16   51 1   
    34   17   18 ar  
    35   17   23 ar  
    36   18   19 ar  
    37   18   52 1   
    38   19   20 ar  
    39   19   53 1   
    40   20   21 1   
    41   20   22 ar  
    42   22   23 ar  
    43   22   54 1   
    44   23   55 1   
    45   24   25 1   
    46   24   26 1   
    47   24   27 1   
    48   28   29 2   
    49   28   30 1   
    50   30   31 ar  
    51   30   36 ar  
    52   31   32 1   
    53   31   33 ar  
    54   33   34 ar  
    55   33   56 1   
    56   34   35 ar  
    57   34   57 1   
    58   35   36 ar  
    59   35   58 1   
    60   36   37 1   
@<TRIPOS>SUBSTRUCTURE
     1 866         1 TEMP              0 ****  ****    0 ROOT
