@<TRIPOS>MOLECULE
866
   60    62     1     0     0
SMALL
bcc


@<TRIPOS>ATOM
      1 C1         -0.2150   -0.5690    0.3570 c3        1 866     -0.137100
      2 C2          0.9030    0.2070   -0.3010 c3        1 866      0.120800
      3 N1          2.2220    0.1480    0.4260 n4        1 866     -0.610200
      4 C3          2.6500   -1.2670    0.6150 c3        1 866      0.075800
      5 C4          4.1710   -1.4800    0.7630 c3        1 866      0.079800
      6 O1          4.8100   -0.4740    1.5100 oh        1 866     -0.576800
      7 C5          4.4080   -2.8760    1.3840 c3        1 866      0.066800
      8 N2          5.8450   -3.2120    1.5120 n4        1 866     -0.674800
      9 C6          6.1010   -4.3860    2.4950 c         1 866      0.618700
     10 O2          5.2170   -4.5370    3.3410 o         1 866     -0.532100
     11 C7          7.2930   -5.0690    2.2720 cc        1 866     -0.485900
     12 C8          8.3500   -4.9090    1.2750 cc        1 866      0.348200
     13 N3          9.3200   -5.8060    1.4620 nd        1 866     -0.397800
     14 N4          8.9930   -6.5740    2.5370 na        1 866      0.129300
     15 C9          7.7560   -6.1920    3.0920 cd        1 866      0.321300
     16 N5          7.1370   -6.7370    4.1530 nh        1 866     -0.805200
     17 C10         9.8040   -7.6490    3.0240 ca        1 866     -0.063200
     18 C11        10.2510   -8.6470    2.1360 ca        1 866     -0.088500
     19 C12        11.0390   -9.6890    2.6100 ca        1 866     -0.153000
     20 C13        11.3930   -9.7410    3.9720 ca        1 866      0.176900
     21 F1         12.1520  -10.7540    4.4340 f         1 866     -0.101900
     22 C14        10.9570   -8.7320    4.8560 ca        1 866     -0.153000
     23 C15        10.1750   -7.6870    4.3830 ca        1 866     -0.088500
     24 C16         4.8730   -1.4040   -0.6660 c3        1 866      0.628900
     25 F2          4.4300   -0.3640   -1.4320 f         1 866     -0.205967
     26 F3          6.2300   -1.2740   -0.5810 f         1 866     -0.205967
     27 F4          4.6570   -2.5390   -1.4020 f         1 866     -0.205967
     28 C17         2.1530    0.9310    1.7430 c         1 866      0.610700
     29 O3          2.4690    0.3060    2.7440 o         1 866     -0.441100
     30 C18         1.7510    2.3400    1.6280 ca        1 866     -0.217600
     31 C19         2.4790    3.2460    0.8280 ca        1 866      0.061400
     32 CL1         3.7910    2.7130   -0.1160 cl        1 866     -0.034900
     33 C20         2.1560    4.6010    0.8180 ca        1 866     -0.105000
     34 C21         1.0940    5.0670    1.5990 ca        1 866     -0.035000
     35 C22         0.3560    4.1860    2.3850 ca        1 866     -0.105000
     36 C23         0.6800    2.8230    2.4060 ca        1 866      0.061400
     37 CL2        -0.2440    1.7800    3.3620 cl        1 866     -0.034900
     38 H1         -0.0200   -1.6690    0.3500 hc        1 866      0.082700
     39 H1A        -0.3910   -0.2360    1.4100 hc        1 866      0.082700
     40 H1B        -1.1540   -0.3800   -0.2280 hc        1 866      0.082700
     41 H2          1.0840   -0.1830   -1.3460 hx        1 866      0.114200
     42 H2A         0.6230    1.3010   -0.3740 hx        1 866      0.114200
     43 H3          2.1260   -1.6690    1.5340 hx        1 866      0.132700
     44 H3A         2.3050   -1.8650   -0.2820 hx        1 866      0.132700
     45 HO1         4.4740   -0.5000    2.4240 ho        1 866      0.464000
     46 H5          3.9090   -3.6660    0.7510 hx        1 866      0.142700
     47 H5A         3.9440   -2.9050    2.4180 hx        1 866      0.142700
     48 HN2         6.2290   -3.4590    0.5930 hn        1 866      0.462800
     49 H8          8.4080   -4.1770    0.4650 h4        1 866      0.053100
     50 HN5         7.5220   -7.5240    4.6290 hn        1 866      0.481300
     51 HN5A        6.2480   -6.3800    4.4300 hn        1 866      0.481300
     52 H11         9.9940   -8.6100    1.0650 ha        1 866      0.157000
     53 H12        11.3960  -10.4740    1.9240 ha        1 866      0.178500
     54 H14        11.2540   -8.7730    5.9170 ha        1 866      0.178500
     55 H15         9.8770   -6.8870    5.0790 ha        1 866      0.157000
     56 H20         2.7400    5.3090    0.2020 ha        1 866      0.194000
     57 H21         0.8420    6.1440    1.5930 ha        1 866      0.190000
     58 H22        -0.4830    4.5600    3.0000 ha        1 866      0.194000
     59 H111        2.9290    0.6470   -0.1590 hn        1 866      0.480800
     60 H221        6.3590   -2.3900    1.8580 hn        1 866      0.462800
@<TRIPOS>BOND
     1    1    2 1   
     2    1   38 1   
     3    1   39 1   
     4    1   40 1   
     5    2    3 1   
     6    2   41 1   
     7    2   42 1   
     8    3    4 1   
     9    3   28 1   
    10    3   59 1   
    11    4    5 1   
    12    4   43 1   
    13    4   44 1   
    14    5    6 1   
    15    5    7 1   
    16    5   24 1   
    17    6   45 1   
    18    7    8 1   
    19    7   46 1   
    20    7   47 1   
    21    8    9 1   
    22    8   48 1   
    23    8   60 1   
    24    9   10 2   
    25    9   11 1   
    26   11   12 1   
    27   11   15 2   
    28   12   13 2   
    29   12   49 1   
    30   13   14 1   
    31   14   15 1   
    32   14   17 1   
    33   15   16 1   
    34   16   50 1   
    35   16   51 1   
    36   17   18 ar  
    37   17   23 ar  
    38   18   19 ar  
    39   18   52 1   
    40   19   20 ar  
    41   19   53 1   
    42   20   21 1   
    43   20   22 ar  
    44   22   23 ar  
    45   22   54 1   
    46   23   55 1   
    47   24   25 1   
    48   24   26 1   
    49   24   27 1   
    50   28   29 2   
    51   28   30 1   
    52   30   31 ar  
    53   30   36 ar  
    54   31   32 1   
    55   31   33 ar  
    56   33   34 ar  
    57   33   56 1   
    58   34   35 ar  
    59   34   57 1   
    60   35   36 ar  
    61   35   58 1   
    62   36   37 1   
@<TRIPOS>SUBSTRUCTURE
     1 866         1 TEMP              0 ****  ****    0 ROOT
