@<TRIPOS>MOLECULE
869
   57    58     1     0     0
SMALL
bcc


@<TRIPOS>ATOM
      1 O30         0.2220   -0.3200    0.3950 os        1 869     -0.184000
      2 C31         1.1400   -1.3880    0.6510 c3        1 869     -0.079000
      3 C24        -1.5100    1.1330    1.3040 c3        1 869     -0.171000
      4 C25        -2.5750    0.7930    2.3410 c2        1 869      0.278000
      5 C26        -2.1880    0.0650    3.6460 c3        1 869     -0.143000
      6 C27        -0.7010    0.2030    3.8990 c2        1 869     -0.055000
      7 C28         0.0090    0.0850    2.7950 c1        1 869     -0.307000
      8 C29        -0.3320    0.2300    1.5070 c2        1 869      0.119000
      9 C1         -3.6930   -0.5450    5.5200 c2        1 869     -0.171000
     10 C2         -4.4140   -0.2990    6.6390 c2        1 869     -0.096000
     11 C3         -4.4820    1.0640    7.2190 c3        1 869     -0.187000
     12 C4         -3.7570    2.0990    6.5090 c1        1 869     -0.094000
     13 C5         -3.0370    1.7960    5.3230 c2        1 869     -0.645000
     14 C6         -2.9750    0.5140    4.8350 c2        1 869      0.184000
     15 C9         -5.8680   -2.3480    6.6280 c2        1 869     -0.337000
     16 C15        -6.5590   -3.4580    7.1950 c2        1 869      0.166000
     17 C18        -6.1090   -2.4850    5.2060 c2        1 869     -0.109000
     18 N16        -7.1380   -4.1780    6.1430 na        1 869     -0.130000
     19 N17        -6.8730   -3.5790    4.9620 n2        1 869     -0.086000
     20 O19        -6.6860   -3.8420    8.4890 oh        1 869     -0.230000
     21 C8         -5.1240   -1.3700    7.3780 c2        1 869      0.348000
     22 O10        -5.0830   -1.4150    8.6240 o         1 869     -0.351000
     23 S11        -2.4700    3.3050    4.7300 s4        1 869      1.527000
     24 O13        -1.9410    3.0900    3.3540 o         1 869     -0.840000
     25 O12        -3.7610    1.0400    2.1090 o         1 869     -0.299000
     26 C14        -1.0550    3.5180    5.7220 c3        1 869     -0.671000
     27 C20        -7.9670   -5.4000    6.3030 c3        1 869      0.110000
     28 C21        -9.1970   -5.0900    7.1720 c3        1 869     -0.224667
     29 C22        -8.4570   -5.9380    4.9520 c3        1 869     -0.224667
     30 C23        -7.1470   -6.5030    6.9910 c3        1 869     -0.224667
     31 H311        0.5740   -2.3010    0.9580 h1        1 869      0.092000
     32 H312        1.8670   -1.0950    1.4490 h1        1 869      0.092000
     33 H313        1.6490   -1.5420   -0.3320 h1        1 869      0.092000
     34 H24        -1.2340    2.2160    1.4580 hc        1 869      0.163000
     35 H25        -1.9320    1.0140    0.2730 hc        1 869      0.163000
     36 H27        -2.4240   -1.0250    3.4390 hc        1 869      0.141000
     37 H28        -0.3350    0.4400    4.9010 ha        1 869      0.154000
     38 H3         -4.1010    1.0330    8.2870 hc        1 869      0.176000
     39 H4         -5.5600    1.4020    7.2980 hc        1 869      0.176000
     40 H71        -3.6360   -1.5720    5.0910 ha        1 869      0.198000
     41 H72        -4.1360   -4.3800    4.7350 ha        1 869      0.026000
     42 H73        -4.6780   -3.6980    3.1340 ha        1 869      0.026000
     43 H18        -5.8160   -1.7830    4.4150 h4        1 869      0.219000
     44 H19        -6.1960   -3.1820    9.0240 ho        1 869      0.281000
     45 H141       -1.3250    3.4230    6.7990 h1        1 869      0.123333
     46 H142       -0.2330    2.8010    5.5010 h1        1 869      0.123333
     47 H143       -0.6560    4.5450    5.5490 h1        1 869      0.123333
     48 H211       -9.8470   -4.3270    6.6810 hc        1 869      0.094000
     49 H212       -9.7840   -6.0290    7.3060 hc        1 869      0.094000
     50 H213       -8.8870   -4.7130    8.1770 hc        1 869      0.094000
     51 H221       -9.0690   -6.8530    5.1430 hc        1 869      0.094000
     52 H222       -9.0930   -5.1860    4.4270 hc        1 869      0.094000
     53 H223       -7.6000   -6.2120    4.2930 hc        1 869      0.094000
     54 H231       -7.8010   -7.3960    7.1340 hc        1 869      0.094000
     55 H232       -6.2710   -6.7960    6.3650 hc        1 869      0.094000
     56 H233       -6.7830   -6.1620    7.9910 hc        1 869      0.094000
     57 C7         -4.2270   -3.4780    4.1130 c1        1 869     -0.087000
@<TRIPOS>BOND
     1    1    2 1   
     2    1    8 1   
     3    2   31 1   
     4    2   32 1   
     5    2   33 1   
     6    3    4 1   
     7    3    8 1   
     8    3   34 1   
     9    3   35 1   
    10    4    5 1   
    11    4   25 1   
    12    5    6 1   
    13    5   14 1   
    14    5   36 1   
    15    6    7 1   
    16    6   37 1   
    17    7    8 1   
    18    9   10 1   
    19    9   14 1   
    20    9   40 1   
    21   10   11 1   
    22   10   21 1   
    23   11   12 1   
    24   11   38 1   
    25   11   39 1   
    26   12   13 1   
    27   13   14 1   
    28   13   23 1   
    29   15   16 1   
    30   15   17 1   
    31   15   21 1   
    32   16   18 1   
    33   16   20 1   
    34   17   19 1   
    35   17   43 1   
    36   18   19 1   
    37   18   27 1   
    38   20   44 1   
    39   21   22 1   
    40   23   24 1   
    41   23   26 1   
    42   26   45 1   
    43   26   46 1   
    44   26   47 1   
    45   27   28 1   
    46   27   29 1   
    47   27   30 1   
    48   28   48 1   
    49   28   49 1   
    50   28   50 1   
    51   29   51 1   
    52   29   52 1   
    53   29   53 1   
    54   30   54 1   
    55   30   55 1   
    56   30   56 1   
    57   41   57 1   
    58   42   57 1   
@<TRIPOS>SUBSTRUCTURE
     1 869         1 TEMP              0 ****  ****    0 ROOT
