@<TRIPOS>MOLECULE
869
   57    59     1     0     0
SMALL
bcc


@<TRIPOS>ATOM
      1 O30        -5.6750   -3.5620   -0.3290 os        1 869     -0.325900
      2 C31        -6.7920   -3.4030   -1.1970 c3        1 869      0.111700
      3 C24        -3.6570   -2.7270    0.5360 ca        1 869     -0.186500
      4 C25        -2.6550   -1.7680    0.5830 ca        1 869     -0.063500
      5 C26        -2.7140   -0.6270   -0.2350 cp        1 869     -0.147000
      6 C27        -3.7930   -0.4650   -1.1110 ca        1 869     -0.063500
      7 C28        -4.8040   -1.4230   -1.1760 ca        1 869     -0.186500
      8 C29        -4.7360   -2.5520   -0.3530 ca        1 869      0.140100
      9 C1         -0.3630   -0.0350   -0.7140 ca        1 869     -0.054300
     10 C2          0.7130    0.8580   -0.6520 ca        1 869     -0.082600
     11 C3          0.5400    2.1310   -0.0960 ca        1 869     -0.126000
     12 C4         -0.7020    2.5060    0.3910 ca        1 869     -0.050000
     13 C5         -1.8010    1.6330    0.3550 ca        1 869     -0.348500
     14 C6         -1.6180    0.3530   -0.1930 cp        1 869      0.090000
     15 C9          3.0820    0.2150   -0.2170 cc        1 869     -0.445900
     16 C15         4.4310   -0.1290   -0.5230 cd        1 869      0.188800
     17 C18         3.0470    0.1940    1.2300 cc        1 869      0.369200
     18 N16         5.1010   -0.3280    0.6870 na        1 869      0.083400
     19 N17         4.2580   -0.1310    1.7300 nd        1 869     -0.507800
     20 O19         5.0460   -0.2640   -1.7260 oh        1 869     -0.477100
     21 C8          2.0550    0.4940   -1.1830 c         1 869      0.636300
     22 O10         2.2850    0.4470   -2.4060 o         1 869     -0.580100
     23 S11        -3.2610    2.2540    0.9430 sy        1 869      1.389300
     24 O13        -3.0510    3.5680    1.4010 o         1 869     -0.659800
     25 O12        -4.2920    2.0920    0.0070 o         1 869     -0.659800
     26 C14        -3.5260    1.2590    2.2810 c3        1 869     -0.364300
     27 C20         6.5310   -0.6980    0.8180 c3        1 869      0.091700
     28 C21         7.4150    0.3770    0.1660 c3        1 869     -0.106433
     29 C22         6.9520   -0.8380    2.2880 c3        1 869     -0.106433
     30 C23         6.7930   -2.0400    0.1140 c3        1 869     -0.106433
     31 H311       -7.3630   -2.4780   -0.9390 h1        1 869      0.047700
     32 H312       -6.4610   -3.3760   -2.2640 h1        1 869      0.047700
     33 H313       -7.4070   -4.3170   -0.9970 h1        1 869      0.047700
     34 H24        -3.6220   -3.6190    1.1770 ha        1 869      0.150000
     35 H25        -1.8030   -1.9040    1.2670 ha        1 869      0.151500
     36 H27        -3.8650    0.4430   -1.7350 ha        1 869      0.151500
     37 H28        -5.6460   -1.2710   -1.8670 ha        1 869      0.150000
     38 H3          1.3880    2.8320   -0.0530 ha        1 869      0.150000
     39 H4         -0.8330    3.5210    0.8160 ha        1 869      0.172000
     40 H71        -0.1120   -2.1530   -0.5170 hc        1 869      0.057367
     41 H72        -1.0880   -1.6330   -1.9520 hc        1 869      0.057367
     42 H73         0.7130   -1.4280   -1.9660 hc        1 869      0.057367
     43 H18         2.1890    0.4050    1.8720 h4        1 869      0.052100
     44 H19         4.3670   -0.0700   -2.4050 ho        1 869      0.479000
     45 H141       -2.8740    1.5230    3.1500 h1        1 869      0.119033
     46 H142       -4.5820    1.3470    2.6440 h1        1 869      0.119033
     47 H143       -3.3600    0.1720    2.0750 h1        1 869      0.119033
     48 H211        7.2930    1.3580    0.6830 hc        1 869      0.053700
     49 H212        8.4810    0.0580    0.2460 hc        1 869      0.053700
     50 H213        7.1570    0.4990   -0.9150 hc        1 869      0.053700
     51 H221        6.3630   -1.6350    2.8000 hc        1 869      0.053700
     52 H222        8.0330   -1.1170    2.3150 hc        1 869      0.053700
     53 H223        6.8160    0.1230    2.8370 hc        1 869      0.053700
     54 H231        6.5190   -1.9800   -0.9670 hc        1 869      0.053700
     55 H232        7.8800   -2.2790    0.1960 hc        1 869      0.053700
     56 H233        6.2080   -2.8600    0.5940 hc        1 869      0.053700
     57 C7         -0.2000   -1.3790   -1.3210 c3        1 869     -0.064800
@<TRIPOS>BOND
     1    1    2 1   
     2    1    8 1   
     3    2   31 1   
     4    2   32 1   
     5    2   33 1   
     6    3    4 ar  
     7    3    8 ar  
     8    3   34 1   
     9    4    5 ar  
    10    4   35 1   
    11    5    6 ar  
    12    5   14 1   
    13    6    7 ar  
    14    6   36 1   
    15    7    8 ar  
    16    7   37 1   
    17    9   10 ar  
    18    9   14 ar  
    19    9   57 1   
    20   10   11 ar  
    21   10   21 1   
    22   11   12 ar  
    23   11   38 1   
    24   12   13 ar  
    25   12   39 1   
    26   13   14 ar  
    27   13   23 1   
    28   15   16 2   
    29   15   17 1   
    30   15   21 1   
    31   16   18 1   
    32   16   20 1   
    33   17   19 2   
    34   17   43 1   
    35   18   19 1   
    36   18   27 1   
    37   20   44 1   
    38   21   22 2   
    39   23   24 2   
    40   23   25 2   
    41   23   26 1   
    42   26   45 1   
    43   26   46 1   
    44   26   47 1   
    45   27   28 1   
    46   27   29 1   
    47   27   30 1   
    48   28   48 1   
    49   28   49 1   
    50   28   50 1   
    51   29   51 1   
    52   29   52 1   
    53   29   53 1   
    54   30   54 1   
    55   30   55 1   
    56   30   56 1   
    57   40   57 1   
    58   41   57 1   
    59   42   57 1   
@<TRIPOS>SUBSTRUCTURE
     1 869         1 TEMP              0 ****  ****    0 ROOT
