@<TRIPOS>MOLECULE
869
   57    47     1     0     0
SMALL
bcc


@<TRIPOS>ATOM
      1 O30         5.0650    2.8360   -4.4390 os        1 869     -0.205000
      2 C31         4.9910    2.3490   -5.7980 c3        1 869     -0.077000
      3 C24         3.8960    2.9800   -2.5290 c1        1 869     -0.156000
      4 C25         3.2430    2.5480   -1.3900 c1        1 869     -0.050000
      5 C26         2.9770    1.1890   -1.2090 c1        1 869     -0.144000
      6 C27         3.3640    0.2820   -2.1630 c1        1 869     -0.118000
      7 C28         4.0250    0.7170   -3.3170 c1        1 869     -0.118000
      8 C29         4.2880    2.0610   -3.4950 c1        1 869      0.095000
      9 C1          0.8480    0.8500   -0.1840 c1        1 869     -0.047000
     10 C2          0.0740    0.5990    0.9530 c1        1 869     -0.062000
     11 C3          0.6830    0.2720    2.1420 c1        1 869     -0.118000
     12 C4          2.0530    0.1910    2.2160 c1        1 869     -0.118000
     13 C5          2.8310    0.4400    1.0850 c1        1 869     -0.792000
     14 C6          2.2230    0.7690   -0.1130 c1        1 869      0.090000
     15 C7          0.1650    1.2730   -1.4950 c3        1 869     -0.190000
     16 C9         -2.4010   -0.4330    1.1900 c1        1 869     -0.360000
     17 C15        -3.7650   -0.4030    1.2700 c1        1 869      0.036000
     18 C18        -1.9830   -1.6950    1.5610 c1        1 869      0.036000
     19 N16        -4.1900   -1.6270    1.6840 n2        1 869     -0.103000
     20 N17        -3.0790   -2.4260    1.8640 n2        1 869     -0.103000
     21 O19        -4.5740    0.7040    1.0270 o         1 869     -0.231000
     22 C8         -1.4900    0.7690    0.8950 c1        1 869      0.356000
     23 O10        -1.9950    1.9140    0.7000 o         1 869     -0.341000
     24 S11         4.6180    0.2920    1.1800 s4        1 869      2.069800
     25 O13         5.2200    0.3990   -0.1190 o         1 869     -0.546400
     26 O12         5.2130    1.4470    1.8650 o         1 869     -0.546400
     27 C14         5.0650   -1.2200    1.9710 c2        1 869     -0.943000
     28 C20        -5.5580   -2.0520    1.7840 c2        1 869      0.111000
     29 C21        -6.2320   -1.9820    0.3690 c3        1 869     -0.224000
     30 C22        -5.6090   -3.4810    2.3050 c3        1 869     -0.224000
     31 C23        -6.3150   -1.1280    2.7630 c3        1 869     -0.224000
     32 H311        5.6560    2.8390   -6.3660 h1        1 869      0.085667
     33 H312        5.1950    1.3880   -5.8120 h1        1 869      0.085667
     34 H313        4.0830    2.4980   -6.1520 h1        1 869      0.085667
     35 H24         4.0880    3.9620   -2.6590 ha        1 869      0.159000
     36 H25         2.9710    3.1870   -0.7200 ha        1 869      0.169000
     37 H27         3.1850   -0.6320   -2.0400 ha        1 869      0.149250
     38 H28         4.3070    0.0550   -4.0110 ha        1 869      0.149250
     39 H3          0.1210    0.0910    2.9630 ha        1 869      0.149250
     40 H4          2.4990   -0.0520    3.0940 ha        1 869      0.149250
     41 H71         0.0730    2.2160   -1.5130 hc        1 869      0.096000
     42 H72        -0.7460    0.8460   -1.5490 hc        1 869      0.096000
     43 H73         0.7200    0.9760   -2.2750 hc        1 869      0.096000
     44 H18        -1.0500   -2.0080    1.5990 DU        1 869      0.188000
     45 H19        -4.7740    0.7430    0.1550 ho        1 869      0.278000
     46 H141        4.3350   -1.8730    1.8650 ha        1 869      0.158000
     47 H142        5.2160   -1.0590    2.9060 ha        1 869      0.158000
     48 H143        5.8870   -1.5750    1.5600 ha        1 869      0.158000
     49 H211       -6.5120   -1.0610    0.1880 hc        1 869      0.093111
     50 H212       -7.0500   -2.5970    0.3480 hc        1 869      0.093111
     51 H213       -5.5880   -2.2690   -0.3150 hc        1 869      0.093111
     52 H221       -6.5140   -3.7630    2.3650 hc        1 869      0.093111
     53 H222       -5.1960   -3.5180    3.1970 hc        1 869      0.093111
     54 H223       -5.1200   -4.0730    1.6910 hc        1 869      0.093111
     55 H231       -7.1140   -1.6040    3.1180 hc        1 869      0.093111
     56 H232       -5.7090   -0.8790    3.5220 hc        1 869      0.093111
     57 H233       -6.6160   -0.2710    2.2660 hc        1 869      0.093111
@<TRIPOS>BOND
     1    1    2 1   
     2    1    8 1   
     3    2   32 1   
     4    2   33 1   
     5    2   34 1   
     6    3    8 1   
     7    3   35 1   
     8    4    5 1   
     9    4   36 1   
    10    6    7 1   
    11    6   37 1   
    12    7   38 1   
    13    9   10 1   
    14    9   15 1   
    15   10   22 1   
    16   11   12 1   
    17   11   39 1   
    18   12   40 1   
    19   13   14 1   
    20   13   24 1   
    21   15   41 1   
    22   15   42 1   
    23   15   43 1   
    24   16   17 1   
    25   16   18 1   
    26   17   19 1   
    27   18   20 1   
    28   19   20 1   
    29   21   45 1   
    30   22   23 1   
    31   24   25 1   
    32   24   26 1   
    33   27   46 1   
    34   27   47 1   
    35   27   48 1   
    36   28   29 1   
    37   28   30 1   
    38   28   31 1   
    39   29   49 1   
    40   29   50 1   
    41   29   51 1   
    42   30   52 1   
    43   30   53 1   
    44   30   54 1   
    45   31   55 1   
    46   31   56 1   
    47   31   57 1   
@<TRIPOS>SUBSTRUCTURE
     1 869         1 TEMP              0 ****  ****    0 ROOT
