@<TRIPOS>MOLECULE
86A
   62    63     1     0     0
SMALL
bcc


@<TRIPOS>ATOM
      1 C37        -2.2530    0.5430   -0.5150 ca        1 86A     -0.134000
      2 C38        -0.9550    0.0410   -0.4480 ca        1 86A     -0.129500
      3 C39        -0.5070   -0.5870    0.7140 ca        1 86A     -0.128000
      4 C40        -1.3630   -0.7110    1.8090 ca        1 86A     -0.129500
      5 C41        -2.6630   -0.2090    1.7470 ca        1 86A     -0.134000
      6 C36        -3.1170    0.4200    0.5810 ca        1 86A     -0.132300
      7 C33        -4.4830    1.0070    0.5060 c3        1 86A     -0.030100
      8 C24        -5.5910    0.0440    0.8900 c3        1 86A     -0.158400
      9 C30        -5.5220   -1.2070    0.0610 c         1 86A      0.577100
     10 O31        -5.8150   -1.3500   -1.1180 o         1 86A     -0.457100
     11 N29        -4.9840   -2.4250    0.7700 ny        1 86A     -0.640800
     12 C25        -6.0120   -3.1490    1.5460 c3        1 86A     -0.113700
     13 C26        -5.9230   -4.6700    1.4620 c3        1 86A     -0.087700
     14 C28        -4.5390   -5.2370    1.2010 c3        1 86A     -0.102600
     15 C27        -6.8760   -5.1970    0.4050 c3        1 86A     -0.102600
     16 P24        -5.9590   -2.6630    3.2580 p5        1 86A      1.320600
     17 O34        -6.5530   -3.7010    4.1070 o         1 86A     -0.802000
     18 O35        -4.6520   -1.9770    3.3810 o         1 86A     -0.802000
     19 O23        -7.0510   -1.4230    3.1620 os        1 86A     -0.576200
     20 C1         -8.3390   -1.6230    3.6600 c3        1 86A      0.151400
     21 C2         -9.3100   -1.6180    2.4800 c         1 86A      0.613100
     22 O14       -10.6530   -1.5500    2.6860 oh        1 86A     -0.576100
     23 O13        -8.9970   -1.7220    1.2900 o         1 86A     -0.530000
     24 C3         -8.6970   -0.5490    4.6510 ca        1 86A     -0.106300
     25 C8         -9.6330   -0.8350    5.6490 ca        1 86A     -0.150000
     26 C4         -8.0940    0.7090    4.5940 ca        1 86A     -0.093000
     27 C5         -8.4450    1.6860    5.5250 ca        1 86A     -0.126000
     28 C6         -9.4050    1.4290    6.4990 ca        1 86A     -0.123000
     29 C7        -10.0210    0.1600    6.5670 ca        1 86A      0.105600
     30 N9        -11.0090   -0.0610    7.5580 nu        1 86A     -0.746600
     31 C10       -12.1250   -0.9330    7.2850 c2        1 86A      0.759100
     32 N12       -12.7320   -1.6760    8.1770 n2        1 86A     -0.872100
     33 N11       -12.5960   -0.9350    5.9320 nv        1 86A     -0.885800
     34 H37        -2.5970    1.0450   -1.4320 ha        1 86A      0.162500
     35 H38        -0.2820    0.1450   -1.3120 ha        1 86A      0.141000
     36 H39         0.5190   -0.9790    0.7690 ha        1 86A      0.135000
     37 H40        -1.0170   -1.2020    2.7310 ha        1 86A      0.141000
     38 H41        -3.3260   -0.3170    2.6270 ha        1 86A      0.162500
     39 H331       -4.6780    1.3940   -0.5320 hc        1 86A      0.069700
     40 H332       -4.5400    1.8850    1.2070 hc        1 86A      0.069700
     41 H241       -6.5960    0.5130    0.6980 hc        1 86A      0.120700
     42 H242       -5.5400   -0.2050    1.9940 hc        1 86A      0.120700
     43 HN29       -4.2440   -2.1130    1.4500 hn        1 86A      0.465800
     44 H25        -7.0300   -2.8410    1.1490 hx        1 86A      0.143700
     45 H26        -6.2740   -5.0600    2.4700 hc        1 86A      0.126700
     46 H281       -4.5520   -6.3320    1.4270 hc        1 86A      0.042700
     47 H282       -3.7550   -4.7680    1.8420 hc        1 86A      0.042700
     48 H283       -4.2450   -5.1230    0.1280 hc        1 86A      0.042700
     49 H271       -7.9260   -4.8950    0.6370 hc        1 86A      0.042700
     50 H272       -6.6080   -4.7990   -0.6040 hc        1 86A      0.042700
     51 H273       -6.8290   -6.3120    0.3700 hc        1 86A      0.042700
     52 H1         -8.4090   -2.6450    4.1570 h1        1 86A      0.121700
     53 H8        -10.0620   -1.8490    5.7170 ha        1 86A      0.152000
     54 H4         -7.3350    0.9100    3.8230 ha        1 86A      0.152000
     55 H5         -7.9630    2.6740    5.4870 ha        1 86A      0.138000
     56 H6         -9.6790    2.2170    7.2170 ha        1 86A      0.143000
     57 HN9       -10.6190   -0.1700    8.4730 hn        1 86A      0.416800
     58 HN12      -12.3050   -1.7240    9.0750 hn        1 86A      0.394400
     59 H111      -12.5650   -0.0310    5.5090 hn        1 86A      0.400300
     60 H112      -13.4980   -1.3590    5.8420 hn        1 86A      0.400300
     61 H292       -4.5700   -3.0510    0.0730 hn        1 86A      0.465800
     62 H113      -10.8420   -1.4490    3.6330 ho        1 86A      0.443000
@<TRIPOS>BOND
     1    1    2 ar  
     2    1    6 ar  
     3    1   34 1   
     4    2    3 ar  
     5    2   35 1   
     6    3    4 ar  
     7    3   36 1   
     8    4    5 ar  
     9    4   37 1   
    10    5    6 ar  
    11    5   38 1   
    12    6    7 1   
    13    7    8 1   
    14    7   39 1   
    15    7   40 1   
    16    8    9 1   
    17    8   41 1   
    18    8   42 1   
    19    9   10 2   
    20    9   11 1   
    21   11   12 1   
    22   11   43 1   
    23   11   61 1   
    24   12   13 1   
    25   12   16 1   
    26   12   44 1   
    27   13   14 1   
    28   13   15 1   
    29   13   45 1   
    30   14   46 1   
    31   14   47 1   
    32   14   48 1   
    33   15   49 1   
    34   15   50 1   
    35   15   51 1   
    36   16   17 1   
    37   16   18 1   
    38   16   19 1   
    39   19   20 1   
    40   20   21 1   
    41   20   24 1   
    42   20   52 1   
    43   21   22 1   
    44   21   23 2   
    45   22   62 1   
    46   24   25 ar  
    47   24   26 ar  
    48   25   29 ar  
    49   25   53 1   
    50   26   27 ar  
    51   26   54 1   
    52   27   28 ar  
    53   27   55 1   
    54   28   29 ar  
    55   28   56 1   
    56   29   30 1   
    57   30   31 1   
    58   30   57 1   
    59   31   32 2   
    60   31   33 1   
    61   32   58 1   
    62   33   59 1   
    63   33   60 1   
@<TRIPOS>SUBSTRUCTURE
     1 86A         1 TEMP              0 ****  ****    0 ROOT
