@<TRIPOS>MOLECULE
86A
   60    61     1     0     0
SMALL
bcc


@<TRIPOS>ATOM
      1 C37         7.4700    1.4330   -0.8880 ca        1 86A     -0.128000
      2 C38         8.8310    1.5900   -0.6360 ca        1 86A     -0.137500
      3 C39         9.3380    1.3580    0.6430 ca        1 86A     -0.152000
      4 C40         8.4770    0.9680    1.6680 ca        1 86A     -0.137500
      5 C41         7.1140    0.8090    1.4180 ca        1 86A     -0.128000
      6 C36         6.5990    1.0400    0.1370 ca        1 86A     -0.055300
      7 C33         5.1430    0.8830   -0.1320 c3        1 86A     -0.048100
      8 C24         4.8640   -0.3110   -1.0220 c3        1 86A     -0.153400
      9 C30         3.3860   -0.3760   -1.4110 c         1 86A      0.645100
     10 O31         3.0710   -0.1870   -2.6100 o         1 86A     -0.664100
     11 N29         2.4980   -0.5870   -0.3980 n         1 86A     -0.491900
     12 C25         1.0790   -0.7490   -0.5390 c3        1 86A     -0.106500
     13 C26         0.5990   -2.1230   -1.0060 c3        1 86A     -0.072700
     14 C28         0.3250   -2.1060   -2.4990 c3        1 86A     -0.085100
     15 C27         1.5440   -3.2680   -0.6900 c3        1 86A     -0.085100
     16 P24         0.4010   -0.3440    1.0530 p5        1 86A      1.322600
     17 O34         0.3210    1.1310    1.1360 o         1 86A     -0.851000
     18 O35         1.2070   -1.1330    2.0190 o         1 86A     -0.851000
     19 O23        -1.1280   -0.9250    0.9010 os        1 86A     -0.576200
     20 C1         -2.1850   -0.1500    1.3890 c3        1 86A      0.100400
     21 C2         -3.0580   -0.9130    2.4460 c         1 86A      0.914600
     22 O14        -3.2000   -2.1600    2.3930 o         1 86A     -0.841300
     23 O13        -3.6290   -0.1720    3.3040 o         1 86A     -0.841300
     24 C3         -3.1080    0.2840    0.2810 ca        1 86A      0.006700
     25 C8         -4.1840    1.1180    0.6180 ca        1 86A     -0.154000
     26 C4         -2.9610   -0.1410   -1.0440 ca        1 86A     -0.131000
     27 C5         -3.8610    0.2820   -2.0190 ca        1 86A     -0.135000
     28 C6         -4.9240    1.1200   -1.6980 ca        1 86A     -0.203000
     29 C7         -5.0960    1.5470   -0.3640 ca        1 86A      0.053600
     30 N9         -6.1420    2.4580   -0.0350 nh        1 86A     -0.702600
     31 C10        -7.4760    2.1070   -0.5080 c2        1 86A      0.757100
     32 N12        -8.3520    3.0120   -0.8810 n2        1 86A     -0.898100
     33 N11        -7.8430    0.7370   -0.5280 nh        1 86A     -0.910800
     34 H37         7.0680    1.6160   -1.8960 ha        1 86A      0.141000
     35 H38         9.5060    1.8980   -1.4460 ha        1 86A      0.118000
     36 H39        10.4110    1.4830    0.8420 ha        1 86A      0.113000
     37 H40         8.8710    0.7850    2.6780 ha        1 86A      0.118000
     38 H41         6.4360    0.5030    2.2300 ha        1 86A      0.141000
     39 H331        4.5800    0.7760    0.8360 hc        1 86A      0.074200
     40 H332        4.7570    1.8130   -0.6330 hc        1 86A      0.074200
     41 H241        5.4620   -0.2340   -1.9670 hc        1 86A      0.051200
     42 H242        5.1600   -1.2590   -0.5030 hc        1 86A      0.051200
     43 HN29        2.8440   -0.8820    0.4960 hn        1 86A      0.330500
     44 H25         0.7160    0.0180   -1.2810 h1        1 86A      0.083700
     45 H26        -0.3750   -2.3310   -0.4710 hc        1 86A      0.098700
     46 H281        1.2360   -1.7710   -3.0540 hc        1 86A      0.022533
     47 H282        0.0340   -3.1230   -2.8580 hc        1 86A      0.022533
     48 H283       -0.5080   -1.3990   -2.7320 hc        1 86A      0.022533
     49 H271        1.8060   -3.2850    0.3960 hc        1 86A      0.022533
     50 H272        1.0540   -4.2380   -0.9490 hc        1 86A      0.022533
     51 H273        2.4850   -3.1870   -1.2870 hc        1 86A      0.022533
     52 H1         -1.7720    0.7800    1.8840 h1        1 86A      0.077700
     53 H8         -4.3020    1.3890    1.6840 ha        1 86A      0.177000
     54 H4         -2.1350   -0.8240   -1.3010 ha        1 86A      0.151000
     55 H5         -3.7330   -0.0500   -3.0600 ha        1 86A      0.102000
     56 H6         -5.6160    1.4540   -2.4830 ha        1 86A      0.104000
     57 HN9        -6.1610    2.6520    0.9510 hn        1 86A      0.398800
     58 HN12       -8.0480    3.9540   -0.7640 hn        1 86A      0.385400
     59 H111       -7.0750    0.0980   -0.5510 hn        1 86A      0.405800
     60 H112       -8.5710    0.5050   -1.1650 hn        1 86A      0.405800
@<TRIPOS>BOND
     1    1    2 ar  
     2    1    6 ar  
     3    1   34 1   
     4    2    3 ar  
     5    2   35 1   
     6    3    4 ar  
     7    3   36 1   
     8    4    5 ar  
     9    4   37 1   
    10    5    6 ar  
    11    5   38 1   
    12    6    7 1   
    13    7    8 1   
    14    7   39 1   
    15    7   40 1   
    16    8    9 1   
    17    8   41 1   
    18    8   42 1   
    19    9   10 2   
    20    9   11 1   
    21   11   12 1   
    22   11   43 1   
    23   12   13 1   
    24   12   16 1   
    25   12   44 1   
    26   13   14 1   
    27   13   15 1   
    28   13   45 1   
    29   14   46 1   
    30   14   47 1   
    31   14   48 1   
    32   15   49 1   
    33   15   50 1   
    34   15   51 1   
    35   16   17 1   
    36   16   18 1   
    37   16   19 1   
    38   19   20 1   
    39   20   21 1   
    40   20   24 1   
    41   20   52 1   
    42   21   22 1   
    43   21   23 1   
    44   24   25 ar  
    45   24   26 ar  
    46   25   29 ar  
    47   25   53 1   
    48   26   27 ar  
    49   26   54 1   
    50   27   28 ar  
    51   27   55 1   
    52   28   29 ar  
    53   28   56 1   
    54   29   30 1   
    55   30   31 1   
    56   30   57 1   
    57   31   32 2   
    58   31   33 1   
    59   32   58 1   
    60   33   59 1   
    61   33   60 1   
@<TRIPOS>SUBSTRUCTURE
     1 86A         1 TEMP              0 ****  ****    0 ROOT
