@<TRIPOS>MOLECULE
86A
   62    63     1     0     0
SMALL
bcc


@<TRIPOS>ATOM
      1 C37        -2.3440    0.4800   -0.5430 ca        1 86A     -0.123500
      2 C38        -0.9930    0.7740   -0.3670 ca        1 86A     -0.127000
      3 C39        -0.5340    1.2490    0.8610 ca        1 86A     -0.124000
      4 C40        -1.4310    1.4310    1.9150 ca        1 86A     -0.127000
      5 C41        -2.7820    1.1400    1.7400 ca        1 86A     -0.123500
      6 C36        -3.2480    0.6590    0.5100 ca        1 86A     -0.107300
      7 C33        -4.6950    0.3680    0.3190 c3        1 86A     -0.033100
      8 C24        -5.1710   -0.8080    1.1520 c3        1 86A     -0.162400
      9 C30        -4.8020   -2.1180    0.5260 c         1 86A      0.570100
     10 O31        -4.5380   -2.3450   -0.6500 o         1 86A     -0.472100
     11 N29        -4.7520   -3.3130    1.4370 n4        1 86A     -0.644800
     12 C25        -6.0890   -3.8040    1.8320 c3        1 86A     -0.106700
     13 C26        -6.3700   -5.2740    1.5400 c3        1 86A     -0.083700
     14 C28        -5.1600   -6.1900    1.5090 c3        1 86A     -0.104600
     15 C27        -7.1270   -5.4180    0.2320 c3        1 86A     -0.104600
     16 P24        -6.3420   -3.5080    3.5740 p5        1 86A      1.313600
     17 O34        -7.4370   -4.3390    4.0830 o         1 86A     -0.792000
     18 O35        -4.9660   -3.3260    4.0890 o         1 86A     -0.792000
     19 O23        -6.9300   -1.9650    3.4060 os        1 86A     -0.575200
     20 C1         -8.2870   -1.7460    3.6380 c3        1 86A      0.148400
     21 C2         -8.9320   -1.3390    2.3140 c         1 86A      0.618100
     22 O14       -10.2140   -0.8870    2.2750 oh        1 86A     -0.574100
     23 O13        -8.4030   -1.4210    1.2000 o         1 86A     -0.543000
     24 C3         -8.4890   -0.6740    4.6750 ca        1 86A     -0.107300
     25 C8         -9.6630   -0.6830    5.4330 ca        1 86A     -0.151000
     26 C4         -7.5160    0.3020    4.8990 ca        1 86A     -0.093000
     27 C5         -7.7320    1.2830    5.8660 ca        1 86A     -0.125000
     28 C6         -8.9140    1.3130    6.5980 ca        1 86A     -0.124000
     29 C7         -9.9050    0.3300    6.3820 ca        1 86A      0.107600
     30 N9        -11.1070    0.4030    7.1290 nh        1 86A     -0.747600
     31 C10       -12.3510   -0.0380    6.5460 c2        1 86A      0.759100
     32 N12       -13.3360   -0.5900    7.2100 n2        1 86A     -0.871100
     33 N11       -12.4940    0.1910    5.1400 nh        1 86A     -0.885800
     34 H37        -2.7020    0.1050   -1.5150 ha        1 86A      0.136500
     35 H38        -0.2890    0.6330   -1.2010 ha        1 86A      0.136000
     36 H39         0.5320    1.4810    0.9990 ha        1 86A      0.135000
     37 H40        -1.0720    1.8070    2.8840 ha        1 86A      0.136000
     38 H41        -3.4880    1.2900    2.5710 ha        1 86A      0.136500
     39 H331       -4.9150    0.1750   -0.7660 hc        1 86A      0.073700
     40 H332       -5.2940    1.2690    0.6280 hc        1 86A      0.073700
     41 H241       -6.3010   -0.7930    1.2370 hc        1 86A      0.127700
     42 H242       -4.7630   -0.7290    2.1970 hc        1 86A      0.127700
     43 HN29       -4.2320   -4.0570    0.9550 hn        1 86A      0.468800
     44 H25        -6.8670   -3.1880    1.2840 hx        1 86A      0.135700
     45 H26        -7.0530   -5.6280    2.3760 hc        1 86A      0.123700
     46 H281       -5.5130   -7.2510    1.5540 hc        1 86A      0.043533
     47 H282       -4.4730   -6.0260    2.3740 hc        1 86A      0.043533
     48 H283       -4.5820   -6.0730    0.5590 hc        1 86A      0.043533
     49 H271       -8.0910   -4.8550    0.2720 hc        1 86A      0.043533
     50 H272       -7.3550   -6.4940    0.0400 hc        1 86A      0.043533
     51 H273       -6.5210   -5.0260   -0.6210 hc        1 86A      0.043533
     52 H1         -8.7870   -2.7100    3.9790 h1        1 86A      0.124700
     53 H8        -10.3970   -1.4940    5.2890 ha        1 86A      0.152000
     54 H4         -6.5800    0.2760    4.3200 ha        1 86A      0.153000
     55 H5         -6.9610    2.0460    6.0510 ha        1 86A      0.138000
     56 H6         -9.0730    2.1040    7.3480 ha        1 86A      0.143000
     57 HN9       -10.9840    0.1360    8.0850 hn        1 86A      0.416800
     58 HN12      -13.1500   -0.8260    8.1590 hn        1 86A      0.395400
     59 H111      -12.0930    1.0580    4.8460 hn        1 86A      0.400300
     60 H112      -10.5730   -0.8200    3.1750 ho        1 86A      0.445000
     61 H292       -4.2400   -3.0670    2.3250 hn        1 86A      0.468800
     62 H113      -13.4400    0.0930    4.8310 hn        1 86A      0.400300
@<TRIPOS>BOND
     1    1    2 ar  
     2    1    6 ar  
     3    1   34 1   
     4    2    3 ar  
     5    2   35 1   
     6    3    4 ar  
     7    3   36 1   
     8    4    5 ar  
     9    4   37 1   
    10    5    6 ar  
    11    5   38 1   
    12    6    7 1   
    13    7    8 1   
    14    7   39 1   
    15    7   40 1   
    16    8    9 1   
    17    8   41 1   
    18    8   42 1   
    19    9   10 2   
    20    9   11 1   
    21   11   12 1   
    22   11   43 1   
    23   11   61 1   
    24   12   13 1   
    25   12   16 1   
    26   12   44 1   
    27   13   14 1   
    28   13   15 1   
    29   13   45 1   
    30   14   46 1   
    31   14   47 1   
    32   14   48 1   
    33   15   49 1   
    34   15   50 1   
    35   15   51 1   
    36   16   17 1   
    37   16   18 1   
    38   16   19 1   
    39   19   20 1   
    40   20   21 1   
    41   20   24 1   
    42   20   52 1   
    43   21   22 1   
    44   21   23 2   
    45   22   60 1   
    46   24   25 ar  
    47   24   26 ar  
    48   25   29 ar  
    49   25   53 1   
    50   26   27 ar  
    51   26   54 1   
    52   27   28 ar  
    53   27   55 1   
    54   28   29 ar  
    55   28   56 1   
    56   29   30 1   
    57   30   31 1   
    58   30   57 1   
    59   31   32 2   
    60   31   33 1   
    61   32   58 1   
    62   33   59 1   
    63   33   62 1   
@<TRIPOS>SUBSTRUCTURE
     1 86A         1 TEMP              0 ****  ****    0 ROOT
