@<TRIPOS>MOLECULE
86A
   60    61     1     0     0
SMALL
bcc


@<TRIPOS>ATOM
      1 C37        -0.0950    0.2790    0.2120 ca        1 86A     -0.128000
      2 C38         1.2670    0.2840   -0.0810 ca        1 86A     -0.137500
      3 C39         2.1040   -0.6920    0.4610 ca        1 86A     -0.152000
      4 C40         1.5720   -1.6720    1.2980 ca        1 86A     -0.137500
      5 C41         0.2100   -1.6800    1.5920 ca        1 86A     -0.128000
      6 C36        -0.6370   -0.7050    1.0510 ca        1 86A     -0.055300
      7 C33        -2.0910   -0.7020    1.3730 c3        1 86A     -0.048100
      8 C24        -2.9310   -1.0660    0.1650 c3        1 86A     -0.153400
      9 C30        -4.4230   -0.9160    0.4660 c         1 86A      0.645100
     10 O31        -5.0690   -0.0180   -0.1250 o         1 86A     -0.664100
     11 N29        -4.9410   -1.7530    1.4110 n         1 86A     -0.491900
     12 C25        -6.3180   -1.8340    1.8020 c3        1 86A     -0.106500
     13 C26        -7.2420   -2.6120    0.8650 c3        1 86A     -0.072700
     14 C28        -7.9910   -1.6580   -0.0490 c3        1 86A     -0.085100
     15 C27        -6.5500   -3.6640    0.0190 c3        1 86A     -0.085100
     16 P24        -6.3020   -2.5560    3.4250 p5        1 86A      1.322600
     17 O34        -5.9930   -1.4750    4.3870 o         1 86A     -0.851000
     18 O35        -5.4310   -3.7530    3.2980 o         1 86A     -0.851000
     19 O23        -7.8850   -2.9590    3.6080 os        1 86A     -0.576200
     20 C1         -8.4970   -2.7060    4.8390 c3        1 86A      0.100400
     21 C2         -9.1170   -3.9950    5.4820 c         1 86A      0.914600
     22 O14        -9.5630   -4.9270    4.7680 o         1 86A     -0.841300
     23 O13        -9.1710   -3.9870    6.7510 o         1 86A     -0.841300
     24 C3         -9.6070   -1.6960    4.7070 ca        1 86A      0.006700
     25 C8        -10.2730   -1.3020    5.8770 ca        1 86A     -0.154000
     26 C4        -10.0220   -1.1760    3.4760 ca        1 86A     -0.131000
     27 C5        -11.0680   -0.2590    3.4200 ca        1 86A     -0.135000
     28 C6        -11.7270    0.1480    4.5760 ca        1 86A     -0.203000
     29 C7        -11.3310   -0.3780    5.8250 ca        1 86A      0.053600
     30 N9        -11.9540    0.0820    7.0230 nh        1 86A     -0.702600
     31 C10       -13.4130    0.0690    7.0370 c2        1 86A      0.757100
     32 N12       -14.1190    0.9750    7.6740 n2        1 86A     -0.898100
     33 N11       -14.0820   -0.9870    6.3660 nh        1 86A     -0.910800
     34 H37        -0.7570    1.0480   -0.2140 ha        1 86A      0.141000
     35 H38         1.6820    1.0590   -0.7400 ha        1 86A      0.118000
     36 H39         3.1780   -0.6870    0.2300 ha        1 86A      0.113000
     37 H40         2.2280   -2.4420    1.7280 ha        1 86A      0.118000
     38 H41        -0.2070   -2.4550    2.2550 ha        1 86A      0.141000
     39 H331       -2.3020   -1.4180    2.2130 hc        1 86A      0.074200
     40 H332       -2.3880    0.3210    1.7320 hc        1 86A      0.074200
     41 H241       -2.7130   -2.1160   -0.1570 hc        1 86A      0.051200
     42 H242       -2.6860   -0.3850   -0.6920 hc        1 86A      0.051200
     43 HN29       -4.3940   -2.5380    1.7140 hn        1 86A      0.330500
     44 H25        -6.7150   -0.7830    1.8890 h1        1 86A      0.083700
     45 H26        -7.9990   -3.1440    1.5150 hc        1 86A      0.098700
     46 H281       -8.6580   -0.9930    0.5510 hc        1 86A      0.022533
     47 H282       -8.6200   -2.2230   -0.7780 hc        1 86A      0.022533
     48 H283       -7.2680   -1.0170   -0.6120 hc        1 86A      0.022533
     49 H271       -5.8750   -3.1920   -0.7360 hc        1 86A      0.022533
     50 H272       -5.9490   -4.3600    0.6550 hc        1 86A      0.022533
     51 H273       -7.3150   -4.2640   -0.5310 hc        1 86A      0.022533
     52 H1         -7.7310   -2.2900    5.5620 h1        1 86A      0.077700
     53 H8         -9.9550   -1.7760    6.8260 ha        1 86A      0.177000
     54 H4         -9.5200   -1.5120    2.5550 ha        1 86A      0.151000
     55 H5        -11.3820    0.1510    2.4500 ha        1 86A      0.102000
     56 H6        -12.5410    0.8820    4.5150 ha        1 86A      0.104000
     57 HN9       -11.5920   -0.3970    7.8290 hn        1 86A      0.398800
     58 HN12      -13.5760    1.6360    8.1850 hn        1 86A      0.385400
     59 H111      -13.5430   -1.4390    5.6560 hn        1 86A      0.405800
     60 H112      -15.0150   -0.7840    6.0880 hn        1 86A      0.405800
@<TRIPOS>BOND
     1    1    2 ar  
     2    1    6 ar  
     3    1   34 1   
     4    2    3 ar  
     5    2   35 1   
     6    3    4 ar  
     7    3   36 1   
     8    4    5 ar  
     9    4   37 1   
    10    5    6 ar  
    11    5   38 1   
    12    6    7 1   
    13    7    8 1   
    14    7   39 1   
    15    7   40 1   
    16    8    9 1   
    17    8   41 1   
    18    8   42 1   
    19    9   10 2   
    20    9   11 1   
    21   11   12 1   
    22   11   43 1   
    23   12   13 1   
    24   12   16 1   
    25   12   44 1   
    26   13   14 1   
    27   13   15 1   
    28   13   45 1   
    29   14   46 1   
    30   14   47 1   
    31   14   48 1   
    32   15   49 1   
    33   15   50 1   
    34   15   51 1   
    35   16   17 1   
    36   16   18 1   
    37   16   19 1   
    38   19   20 1   
    39   20   21 1   
    40   20   24 1   
    41   20   52 1   
    42   21   22 1   
    43   21   23 1   
    44   24   25 ar  
    45   24   26 ar  
    46   25   29 ar  
    47   25   53 1   
    48   26   27 ar  
    49   26   54 1   
    50   27   28 ar  
    51   27   55 1   
    52   28   29 ar  
    53   28   56 1   
    54   29   30 1   
    55   30   31 1   
    56   30   57 1   
    57   31   32 2   
    58   31   33 1   
    59   32   58 1   
    60   33   59 1   
    61   33   60 1   
@<TRIPOS>SUBSTRUCTURE
     1 86A         1 TEMP              0 ****  ****    0 ROOT
