@<TRIPOS>MOLECULE
86A
   60    55     1     0     0
SMALL
bcc


@<TRIPOS>ATOM
      1 C37         4.5560    3.4010   -3.3570 c1        1 86A     -0.146000
      2 C38         5.7870    3.3080   -3.9860 c1        1 86A     -0.145333
      3 C39         6.9510    3.5370   -3.2690 c1        1 86A     -0.145333
      4 C40         6.8840    3.8600   -1.9230 c1        1 86A     -0.145333
      5 C41         5.6530    3.9540   -1.2940 c1        1 86A     -0.145333
      6 C36         4.4880    3.7240   -2.0100 c1        1 86A     -0.055000
      7 C33         3.1400    3.9190   -1.3450 c3        1 86A     -0.134000
      8 C24         2.6180    2.5810   -0.8600 c3        1 86A     -0.166000
      9 C30         1.1640    2.7220   -0.4610 c2        1 86A      0.298000
     10 O31         0.6690    3.8260   -0.3450 o         1 86A     -0.459000
     11 N29         0.3850    1.5630   -0.1930 n         1 86A     -0.324000
     12 C25        -1.0290    1.6090   -0.3320 c3        1 86A     -0.593000
     13 C26        -1.4620    0.6360   -1.4050 c3        1 86A     -0.119000
     14 C28        -2.5970    1.2380   -2.2020 c3        1 86A     -0.201500
     15 C27        -0.2970    0.3490   -2.3250 c3        1 86A     -0.201500
     16 P24        -1.8070    1.1570    1.2440 p5        1 86A      1.975000
     17 O34        -3.2540    0.7990    1.0070 o         1 86A     -0.864000
     18 O35        -1.7270    2.3250    2.1980 o         1 86A     -0.864000
     19 O23        -1.0520   -0.0860    1.8680 os        1 86A     -0.747000
     20 C1         -1.5800   -0.6770    3.0310 c3        1 86A      0.054000
     21 C2         -0.6350   -0.4440    4.1880 c2        1 86A      0.335000
     22 O14         0.5850   -0.2250    3.9710 o         1 86A     -0.595500
     23 O13        -1.0660   -0.4850    5.3710 o         1 86A     -0.595500
     24 C3         -1.7480   -2.1640    2.8090 c2        1 86A     -0.028000
     25 C8         -2.9340   -2.6550    2.2850 c2        1 86A     -0.158000
     26 C4         -0.7610   -3.0420    3.2320 c1        1 86A     -0.115000
     27 C5         -0.9610   -4.4100    3.1320 c1        1 86A     -0.145333
     28 C6         -2.1470   -4.9010    2.6090 c1        1 86A     -0.145333
     29 C7         -3.1340   -4.0230    2.1850 c1        1 86A     -0.047000
     30 N9         -4.3860   -4.5270    1.7350 n3        1 86A     -0.266000
     31 C10        -4.4270   -5.6290    0.8360 c2        1 86A      0.155000
     32 N12        -3.4420   -6.4900    0.8110 n1        1 86A     -0.354000
     33 N11        -5.5360   -5.7940   -0.0330 n3        1 86A     -0.350000
     34 H37         3.7370    3.2400   -3.8620 ha        1 86A      0.115000
     35 H38         5.8340    3.0990   -4.9380 ha        1 86A      0.126500
     36 H39         7.8190    3.4710   -3.7130 ha        1 86A      0.126500
     37 H40         7.7040    4.0210   -1.4180 ha        1 86A      0.126500
     38 H41         5.6040    4.2080   -0.3530 ha        1 86A      0.126500
     39 H331        2.5100    4.3000   -1.9900 hc        1 86A      0.118500
     40 H332        3.2350    4.5260   -0.5850 hc        1 86A      0.118500
     41 H241        2.6970    1.9210   -1.5780 hc        1 86A      0.092500
     42 H242        3.1420    2.2880   -0.0880 hc        1 86A      0.092500
     43 HN29        0.7920    0.7910    0.0730 hn        1 86A      0.294000
     44 H25        -1.3020    2.5140   -0.5830 h1        1 86A      0.118000
     45 H26        -1.7600   -0.1940   -0.9890 hc        1 86A      0.127000
     46 H281       -3.4520    0.9770   -1.8010 hc        1 86A      0.063667
     47 H282       -2.5180    2.2150   -2.1970 hc        1 86A      0.063667
     48 H283       -2.5570    0.9120   -3.1250 hc        1 86A      0.063667
     49 H271        0.1680    1.1860   -2.5340 hc        1 86A      0.063667
     50 H272        0.3240   -0.2680   -1.8830 hc        1 86A      0.063667
     51 H273       -0.6270   -0.0570   -3.1540 hc        1 86A      0.063667
     52 H1         -2.4480   -0.2780    3.2330 h1        1 86A      0.113000
     53 H8         -3.6330   -2.0370    1.9950 ha        1 86A      0.182000
     54 H4          0.0750   -2.6960    3.6010 ha        1 86A      0.185000
     55 H5         -0.2660   -5.0280    3.4310 ha        1 86A      0.126500
     56 H6         -2.2870   -5.8630    2.5390 ha        1 86A      0.126500
     57 HN9        -5.1600   -4.1210    1.9930 hn        1 86A      0.168000
     58 HN12       -2.7320   -6.3840    1.3680 DU        1 86A      0.136000
     59 H111       -6.0070   -5.0640   -0.3160 hn        1 86A      0.219500
     60 H112       -5.7900   -6.6330   -0.2970 hn        1 86A      0.219500
@<TRIPOS>BOND
     1    1    6 1   
     2    1   34 1   
     3    2    3 1   
     4    2   35 1   
     5    3   36 1   
     6    4    5 1   
     7    4   37 1   
     8    5   38 1   
     9    6    7 1   
    10    7    8 1   
    11    7   39 1   
    12    7   40 1   
    13    8    9 1   
    14    8   41 1   
    15    8   42 1   
    16    9   10 1   
    17    9   11 1   
    18   11   12 1   
    19   11   43 1   
    20   12   13 1   
    21   12   16 1   
    22   12   44 1   
    23   13   14 1   
    24   13   15 1   
    25   13   45 1   
    26   14   46 1   
    27   14   47 1   
    28   14   48 1   
    29   15   49 1   
    30   15   50 1   
    31   15   51 1   
    32   16   17 1   
    33   16   18 1   
    34   16   19 1   
    35   19   20 1   
    36   20   21 1   
    37   20   24 1   
    38   20   52 1   
    39   21   22 1   
    40   21   23 1   
    41   24   25 1   
    42   24   26 1   
    43   25   29 1   
    44   25   53 1   
    45   26   54 1   
    46   27   28 1   
    47   27   55 1   
    48   28   56 1   
    49   29   30 1   
    50   30   31 1   
    51   30   57 1   
    52   31   32 1   
    53   31   33 1   
    54   33   59 1   
    55   33   60 1   
@<TRIPOS>SUBSTRUCTURE
     1 86A         1 TEMP              0 ****  ****    0 ROOT
