@<TRIPOS>MOLECULE
870
   45    36     1     0     0
SMALL
bcc


@<TRIPOS>ATOM
      1 C          -2.8400   -3.8380   -3.4160 c1        1 870     -0.097000
      2 C1         -3.7290   -2.7870   -3.3750 c1        1 870     -0.097000
      3 C2         -3.9030   -2.0710   -2.1990 c1        1 870     -0.025500
      4 C3         -3.1860   -2.4120   -1.0730 c1        1 870     -0.002000
      5 C4         -2.2950   -3.4650   -1.1130 c1        1 870     -0.785000
      6 C5         -2.1210   -4.1780   -2.2830 c1        1 870     -0.025500
      7 S          -1.3600   -3.8880    0.3200 s4        1 870      2.070800
      8 O1         -2.0270   -4.9090    1.0890 o         1 870     -0.502900
      9 O2         -0.1440   -4.5520   -0.0300 o         1 870     -0.502900
     10 N          -1.0600   -2.5310    1.2390 n2        1 870     -0.781000
     11 C6          0.2940   -2.1060    1.4680 c2        1 870      0.184000
     12 N1          1.4930   -2.0130    2.0980 n2        1 870     -0.166000
     13 C7          2.0080   -0.7840    1.8410 c1        1 870     -0.026000
     14 C8          3.2550   -0.1790    2.1820 c1        1 870     -0.104000
     15 C9          3.5620    1.0870    1.7070 c1        1 870      0.076000
     16 C10         2.6350    1.7790    0.8810 c1        1 870     -0.183000
     17 C11         1.4350    1.1940    0.5540 c1        1 870      0.012500
     18 C12         1.1180   -0.1130    1.0450 c1        1 870     -0.041000
     19 O3          0.0650   -0.9280    0.8170 o         1 870     -0.136000
     20 CL2        -5.0140   -0.7300   -2.1520 cl        1 870      0.019500
     21 CL1        -0.9560   -5.4680   -2.3450 cl        1 870      0.019500
     22 O4          4.8000    0.9470    2.3690 os        1 870     -0.208000
     23 C13         5.8970    1.6010    1.6990 c3        1 870     -0.077000
     24 C14        -0.7020    2.9810   -1.8090 c1        1 870     -0.121500
     25 C15        -1.4320    3.8030   -0.9360 c1        1 870     -0.182000
     26 C19        -1.2110    3.7330    0.4230 c1        1 870      0.057000
     27 C16        -0.2590    2.8420    0.9300 c1        1 870     -0.183000
     28 C17         0.4680    2.0240    0.0600 c1        1 870      0.012500
     29 C18         0.2460    2.0940   -1.3020 c1        1 870     -0.121500
     30 N2         -1.8350    4.6980    1.3050 n3        1 870     -0.328000
     31 H          -2.7180   -4.3370   -4.2330 ha        1 870      0.160500
     32 H1         -4.2300   -2.5490   -4.1630 ha        1 870      0.160500
     33 H3         -3.3080   -1.9120   -0.2540 ha        1 870      0.160000
     34 HN         -1.7650   -2.0550    1.6090 hn        1 870      0.276000
     35 H8          3.8780   -0.6450    2.7360 ha        1 870      0.173000
     36 H10         2.8400    2.6340    0.5600 ha        1 870      0.140500
     37 H131        6.5310    0.9210    1.3630 h1        1 870      0.085000
     38 H132        5.5490    2.1310    0.9410 h1        1 870      0.085000
     39 H133        6.3610    2.1980    2.3340 h1        1 870      0.085000
     40 H14        -0.8590    3.0310   -2.7730 ha        1 870      0.137000
     41 H15        -2.0900    4.4200   -1.2890 ha        1 870      0.134000
     42 H16        -0.0980    2.7900    1.9010 ha        1 870      0.140500
     43 H18         0.7530    1.5240   -1.9070 ha        1 870      0.137000
     44 HN21       -2.3800    5.3520    0.9590 hn        1 870      0.185000
     45 HN22       -1.6680    4.6650    2.2230 hn        1 870      0.185000
@<TRIPOS>BOND
     1    1    6 1   
     2    1   31 1   
     3    2    3 1   
     4    2   32 1   
     5    3   20 1   
     6    4    5 1   
     7    4   33 1   
     8    5    7 1   
     9    6   21 1   
    10    7    8 1   
    11    7    9 1   
    12   10   11 1   
    13   10   34 1   
    14   11   12 1   
    15   11   19 1   
    16   12   13 1   
    17   13   18 1   
    18   14   15 1   
    19   14   35 1   
    20   15   22 1   
    21   16   17 1   
    22   16   36 1   
    23   22   23 1   
    24   23   37 1   
    25   23   38 1   
    26   23   39 1   
    27   24   29 1   
    28   24   40 1   
    29   25   26 1   
    30   25   41 1   
    31   26   30 1   
    32   27   28 1   
    33   27   42 1   
    34   29   43 1   
    35   30   44 1   
    36   30   45 1   
@<TRIPOS>SUBSTRUCTURE
     1 870         1 TEMP              0 ****  ****    0 ROOT
