@<TRIPOS>MOLECULE
870
   45    48     1     0     0
SMALL
bcc


@<TRIPOS>ATOM
      1 C           4.1190   -0.6810   -2.1780 ca        1 870     -0.145000
      2 C1          4.7870    0.4950   -1.8490 ca        1 870     -0.050000
      3 C2          4.7250    0.9780   -0.5380 ca        1 870     -0.011600
      4 C3          4.0050    0.2840    0.4350 ca        1 870      0.002000
      5 C4          3.3380   -0.9110    0.1250 ca        1 870     -0.365500
      6 C5          3.3970   -1.3710   -1.2000 ca        1 870      0.130400
      7 S           2.5480   -1.7040    1.3960 sy        1 870      1.524200
      8 O1          2.9570   -3.0440    1.4740 o         1 870     -0.624800
      9 O2          2.6940   -0.9520    2.5650 o         1 870     -0.624800
     10 N           0.9710   -1.7370    0.8930 nh        1 870     -0.796100
     11 C6          0.1610   -0.6380    0.6960 cc        1 870      0.764500
     12 N1          0.4510    0.6740    0.7680 nd        1 870     -0.604100
     13 C7         -0.7670    1.3250    0.4740 ca        1 870      0.119400
     14 C8         -1.0850    2.6830    0.4060 ca        1 870     -0.159000
     15 C9         -2.4100    3.0020    0.0860 ca        1 870      0.123100
     16 C10        -3.3980    2.0240   -0.1590 ca        1 870     -0.142000
     17 C11        -3.1030    0.6570   -0.0910 cp        1 870      0.029000
     18 C12        -1.7810    0.3410    0.2200 ca        1 870     -0.000900
     19 O3         -1.2000   -0.9270    0.3550 os        1 870     -0.309700
     20 CL2         5.5270    2.4160   -0.1290 cl        1 870     -0.067400
     21 CL1         2.5760   -2.7850   -1.6590 cl        1 870     -0.065400
     22 O4         -2.8780    4.3000   -0.0220 os        1 870     -0.326900
     23 C13        -1.9300    5.3330    0.2210 c3        1 870      0.111700
     24 C14        -4.7880   -2.4970   -1.2380 ca        1 870     -0.097000
     25 C15        -6.1000   -2.2830   -0.8330 ca        1 870     -0.181000
     26 C19        -6.4510   -1.0850   -0.1670 ca        1 870      0.135600
     27 C16        -5.4430   -0.1270    0.0800 ca        1 870     -0.173000
     28 C17        -4.1280   -0.3530   -0.3380 cp        1 870     -0.007000
     29 C18        -3.8000   -1.5470   -0.9940 ca        1 870     -0.147000
     30 H           4.1580   -1.0640   -3.2110 ha        1 870      0.161000
     31 H1          5.3560    1.0400   -2.6200 ha        1 870      0.159000
     32 H3          3.9500    0.6810    1.4690 ha        1 870      0.190000
     33 HN          0.5130   -2.6050    0.7060 hn        1 870      0.480800
     34 H8         -0.3230    3.4480    0.6000 ha        1 870      0.160000
     35 H10        -4.4160    2.3560   -0.4160 ha        1 870      0.162000
     36 H131       -1.5340    5.2690    1.2640 h1        1 870      0.047033
     37 H132       -1.0950    5.2850   -0.5190 h1        1 870      0.047033
     38 H133       -2.5270    6.2700    0.0820 h1        1 870      0.047033
     39 H14        -4.5280   -3.4320   -1.7570 ha        1 870      0.132000
     40 H15        -6.8640   -3.0470   -1.0380 ha        1 870      0.133000
     41 H16        -5.6890    0.8080    0.6060 ha        1 870      0.137000
     42 H18        -2.7620   -1.7300   -1.3090 ha        1 870      0.141000
     43 HN21       -8.3460   -1.6330    0.2860 hn        1 870      0.388800
     44 HN22       -7.8960   -0.1570    0.9040 hn        1 870      0.388800
     45 N2         -7.7840   -0.8190    0.1690 nh        1 870     -0.817200
@<TRIPOS>BOND
     1    1    2 ar  
     2    1    6 ar  
     3    1   30 1   
     4    2    3 ar  
     5    2   31 1   
     6    3    4 ar  
     7    3   20 1   
     8    4    5 ar  
     9    4   32 1   
    10    5    6 ar  
    11    5    7 1   
    12    6   21 1   
    13    7    8 2   
    14    7    9 2   
    15    7   10 1   
    16   10   11 1   
    17   10   33 1   
    18   11   12 2   
    19   11   19 1   
    20   12   13 1   
    21   13   14 ar  
    22   13   18 ar  
    23   14   15 ar  
    24   14   34 1   
    25   15   16 ar  
    26   15   22 1   
    27   16   17 ar  
    28   16   35 1   
    29   17   18 ar  
    30   17   28 1   
    31   18   19 1   
    32   22   23 1   
    33   23   36 1   
    34   23   37 1   
    35   23   38 1   
    36   24   25 ar  
    37   24   29 ar  
    38   24   39 1   
    39   25   26 ar  
    40   25   40 1   
    41   26   27 ar  
    42   26   45 1   
    43   27   28 ar  
    44   27   41 1   
    45   28   29 ar  
    46   29   42 1   
    47   43   45 1   
    48   44   45 1   
@<TRIPOS>SUBSTRUCTURE
     1 870         1 TEMP              0 ****  ****    0 ROOT
