@<TRIPOS>MOLECULE
870
   47    48     1     0     0
SMALL
bcc


@<TRIPOS>ATOM
      1 C          -0.1810   -1.4650   -0.6090 c3        1 870      0.059900
      2 C1          0.9690   -2.1480   -0.1090 c1        1 870     -0.194100
      3 C2          1.9170   -2.7820    0.2570 c1        1 870     -0.038100
      4 C3          1.2830    0.9770    1.6970 ce        1 870     -0.545200
      5 C4          0.4320    0.4320    0.8680 c1        1 870      0.187200
      6 C5         -0.3710   -0.1010   -0.0200 c2        1 870      0.010100
      7 S           1.3710    0.8340    3.3070 sy        1 870      1.510900
      8 O1          2.6610    1.0200    3.7730 o         1 870     -0.594800
      9 O2          0.5530   -0.1560    3.8520 o         1 870     -0.594800
     10 N          -1.5090    1.4330    5.0070 nh        1 870     -0.425100
     11 C6         -0.6590    2.3820    4.6060 cc        1 870      0.570100
     12 N1          0.5040    2.3020    3.8430 na        1 870     -0.285900
     13 C7          0.9950    3.6280    3.7340 cc        1 870     -0.083100
     14 C8          2.6490    6.4500    5.5860 ce        1 870     -0.243200
     15 C9          1.9380    7.7480    5.6880 cx        1 870      0.226500
     16 C10         1.2840    6.4880    5.1900 ce        1 870     -0.040200
     17 C11         0.1770    5.8920    4.7230 cf        1 870      0.036300
     18 C12         0.1570    4.4800    4.4090 cd        1 870      0.072100
     19 O3         -0.9210    3.7100    4.9550 os        1 870     -0.285700
     20 CL2         3.1750   -3.6220    0.7440 cl        1 870      0.128100
     21 CL1        -1.7300    0.7630   -0.5510 cl        1 870     -0.013400
     22 O4          2.1500    8.8140    4.8370 oh        1 870     -0.536800
     23 C13         3.7530    5.7600    5.7890 c2        1 870     -0.009000
     24 C14        -5.5350    8.3990    3.7760 c2        1 870     -0.275200
     25 C15        -4.3340    7.5310    3.7140 c3        1 870     -0.130500
     26 C19        -3.0740    8.1910    4.2080 ce        1 870      0.508200
     27 C16        -1.9520    7.3630    4.3810 cg        1 870     -0.315200
     28 C17        -0.9910    6.6500    4.5300 ch        1 870      0.106700
     29 C18        -6.2420    8.7540    2.7030 c2        1 870     -0.115000
     30 H          -0.0970   -1.3540   -1.7330 hc        1 870      0.116700
     31 H1         -1.1090   -2.0790   -0.4010 hc        1 870      0.116700
     32 H3          2.1180    1.5470    1.2150 h4        1 870      0.226000
     33 HN         -1.3150    0.4600    4.8230 hn        1 870      0.360200
     34 H8          1.9200    3.8350    3.1810 h4        1 870      0.233000
     35 H10         1.6390    8.1550    6.6840 h1        1 870      0.147700
     36 H131        2.7470    8.5440    4.1240 ho        1 870      0.432000
     37 H132        4.6730    6.2400    6.1680 ha        1 870      0.159000
     38 H133        3.8250    4.6780    5.5950 ha        1 870      0.159000
     39 H14        -7.1620    9.3550    2.7880 ha        1 870      0.144500
     40 H15        -5.8640    8.6760    4.7920 ha        1 870      0.148000
     41 H16        -4.1310    7.1830    2.6590 hc        1 870      0.117200
     42 H18        -5.9700    8.4690    1.6760 ha        1 870      0.144500
     43 HN21       -3.8160   10.0720    4.3360 hn        1 870      0.338700
     44 HN22       -2.1630    9.9260    4.7810 hn        1 870      0.338700
     45 HN3        -2.2870    1.6830    5.5830 hn        1 870      0.360200
     46 H23        -4.5040    6.6090    4.3420 hc        1 870      0.117200
     47 N2         -3.0060    9.4870    4.4610 nh        1 870     -0.348100
@<TRIPOS>BOND
     1    1    2 1   
     2    1    6 1   
     3    1   30 1   
     4    1   31 1   
     5    2    3 3   
     6    3   20 1   
     7    4    5 2   
     8    4    7 1   
     9    4   32 1   
    10    5    6 2   
    11    6   21 1   
    12    7    8 2   
    13    7    9 2   
    14    7   12 1   
    15   10   11 2   
    16   10   33 1   
    17   10   45 1   
    18   11   12 1   
    19   11   19 1   
    20   12   13 1   
    21   13   18 2   
    22   13   34 1   
    23   14   15 1   
    24   14   16 1   
    25   14   23 2   
    26   15   16 1   
    27   15   22 1   
    28   15   35 1   
    29   16   17 2   
    30   17   18 1   
    31   17   28 1   
    32   18   19 1   
    33   22   36 1   
    34   23   37 1   
    35   23   38 1   
    36   24   25 1   
    37   24   29 2   
    38   24   40 1   
    39   25   26 1   
    40   25   41 1   
    41   25   46 1   
    42   26   27 1   
    43   26   47 2   
    44   27   28 3   
    45   29   39 1   
    46   29   42 1   
    47   43   47 1   
    48   44   47 1   
@<TRIPOS>SUBSTRUCTURE
     1 870         1 TEMP              0 ****  ****    0 ROOT
