@<TRIPOS>MOLECULE
870
   45    45     1     0     0
SMALL
bcc


@<TRIPOS>ATOM
      1 C           0.7140   -0.2030   -0.0370 c3        1 870     -0.015000
      2 C1          1.9480   -0.8690    0.2550 c1        1 870     -0.168000
      3 C2          2.9660   -1.4580    0.5080 c1        1 870     -0.124000
      4 C3          1.6270   -0.8880    2.6080 c1        1 870      0.033000
      5 C4          0.2920   -0.4300    2.4170 c2        1 870     -0.826000
      6 C5         -0.1670   -0.1580    1.1710 c2        1 870     -0.020000
      7 S          -0.6610   -0.5010    3.8400 s6        1 870      2.868000
      8 O1         -1.6950   -1.4310    3.6900 o         1 870     -0.893500
      9 O2          0.1860   -0.6520    4.9370 o         1 870     -0.893500
     10 N          -1.3800    0.9860    3.8580 nu        1 870     -0.776000
     11 C6         -0.7190    2.1900    4.0050 c2        1 870      0.151000
     12 N1          0.6020    2.4750    3.9960 n2        1 870     -0.175000
     13 C7          0.6790    3.8550    4.1990 c2        1 870     -0.144000
     14 C8          3.4520    6.4680    4.4580 c1        1 870     -0.332000
     15 C9          2.9030    7.6560    4.5080 c2        1 870      0.048000
     16 C10        -0.3070    6.7950    4.5400 c1        1 870      0.257000
     17 C11        -1.1080    5.7230    4.5190 c2        1 870     -0.291000
     18 C12        -0.5980    4.3950    4.3190 c2        1 870     -0.010000
     19 O3         -1.5250    3.3400    4.1970 os        1 870     -0.123000
     20 Cl2         4.3200   -2.2350    0.8150 cl        1 870      0.201000
     21 Cl1        -1.7920    0.2090    0.8500 cl        1 870      0.003000
     22 O4          3.5910    8.8440    4.5320 oh        1 870     -0.254000
     23 C13         3.9550    5.2740    4.4140 c2        1 870     -0.116000
     24 C14        -4.3570    9.8440    2.5590 cu        1 870     -0.175000
     25 C15        -4.4490    8.4660    3.1300 cx        1 870     -0.091000
     26 C19        -3.8580    8.1470    4.4620 c2        1 870      0.109000
     27 C16        -3.1890    7.0140    4.6070 c1        1 870     -0.307000
     28 C17        -2.5540    5.8860    4.7230 c2        1 870      0.003000
     29 C18        -5.5450    9.4710    2.9880 cu        1 870     -0.175000
     30 H           0.9150    0.8530   -0.3850 hc        1 870      0.133500
     31 H1          0.1890   -0.7400   -0.8790 hc        1 870      0.133500
     32 H3          2.4420   -0.1810    2.7980 ha        1 870      0.110000
     33 HN         -2.3670    1.0860    3.7460 hn        1 870      0.276000
     34 H8          1.6510    4.3580    4.2480 h4        1 870      0.204000
     35 H10         1.8110    7.8500    4.5370 h4        1 870      0.198000
     36 H131        4.5410    8.6600    4.5150 ho        1 870      0.214000
     37 H132        4.1690    4.7580    3.4660 ha        1 870      0.122000
     38 H133        4.2020    4.7030    5.3230 ha        1 870      0.122000
     39 H14        -6.5880    9.6400    3.1520 ha        1 870      0.195500
     40 H15        -3.6820   10.5520    2.1250 ha        1 870      0.195500
     41 H16        -4.4130    7.5880    2.4510 hc        1 870      0.126000
     42 H18        -3.0840    4.9520    4.9920 ha        1 870      0.151000
     43 HN21       -3.7840    8.7500    6.3970 hn        1 870      0.187500
     44 HN22       -4.8030    9.6440    5.4300 hn        1 870      0.187500
     45 N2         -3.9710    9.0990    5.4820 n8        1 870     -0.322000
@<TRIPOS>BOND
     1    1    2 1   
     2    1    6 1   
     3    1   30 1   
     4    1   31 1   
     5    2    3 1   
     6    3   20 1   
     7    4    5 1   
     8    4   32 1   
     9    5    6 1   
    10    5    7 1   
    11    6   21 1   
    12    7    8 1   
    13    7    9 1   
    14    7   10 1   
    15   10   11 1   
    16   10   33 1   
    17   11   12 1   
    18   11   19 1   
    19   12   13 1   
    20   13   18 1   
    21   13   34 1   
    22   14   15 1   
    23   14   23 1   
    24   15   22 1   
    25   15   35 1   
    26   16   17 1   
    27   17   18 1   
    28   17   28 1   
    29   18   19 1   
    30   22   36 1   
    31   23   37 1   
    32   23   38 1   
    33   24   25 1   
    34   24   29 1   
    35   24   40 1   
    36   25   26 1   
    37   25   29 1   
    38   25   41 1   
    39   26   27 1   
    40   26   45 1   
    41   27   28 1   
    42   28   42 1   
    43   29   39 1   
    44   43   45 1   
    45   44   45 1   
@<TRIPOS>SUBSTRUCTURE
     1 870         1 TEMP              0 ****  ****    0 ROOT
