@<TRIPOS>MOLECULE
872
   47    45     1     0     0
SMALL
bcc


@<TRIPOS>ATOM
      1 C1          0.8450    4.7680   -3.7400 c1        1 872     -0.185000
      2 C2          0.5200    3.9330   -2.6810 c1        1 872      0.105000
      3 C3         -0.6970    3.2750   -2.6690 c1        1 872     -0.095000
      4 C4         -1.5940    3.4530   -3.7210 c2        1 872     -0.125000
      5 C5         -1.2680    4.2880   -4.7790 c1        1 872      0.049000
      6 C6         -0.0570    4.9440   -4.7920 c1        1 872      0.083000
      7 F9         -2.1960    4.5570   -5.7410 f         1 872     -0.086000
      8 F10         1.3990    3.7360   -1.6880 f         1 872     -0.090000
      9 C11        -1.1000    2.4470   -1.4670 c2        1 872     -0.130000
     10 C12         0.1020    1.6940   -0.9400 c3        1 872     -0.004000
     11 C15        -0.2880    0.2110   -0.6930 c3        1 872     -0.229000
     12 C16        -0.8070    0.0540    0.7460 c2        1 872      0.312000
     13 N19        -0.3930   -1.0840    1.5550 n         1 872     -0.334000
     14 N20         0.5310    2.2800    0.2720 n3        1 872     -0.333000
     15 O22        -1.6250    0.8450    1.1870 o         1 872     -0.362000
     16 C25        -1.0110   -1.4240    3.1980 c3        1 872     -0.034000
     17 C26         0.2830   -1.9740    4.2820 c3        1 872     -0.226000
     18 C27         0.7970   -3.2560    3.8540 c3        1 872     -0.068000
     19 N28         0.6640   -3.3690    2.7870 n         1 872     -0.313000
     20 C29         1.2870   -2.4650    2.1670 c2        1 872      0.262000
     21 C30         0.6230   -2.1440    1.1100 c3        1 872     -0.031000
     22 C37        -0.0730   -3.4280    0.3740 c3        1 872     -0.217000
     23 O39         1.9610   -1.6310    2.7600 o         1 872     -0.249000
     24 F41         0.2560    5.7640   -5.8250 f         1 872     -0.085000
     25 C42         1.0040   -4.3220   -0.2130 c3        1 872      0.418000
     26 F45         0.9300   -4.2910   -1.5670 f         1 872     -0.163667
     27 F46         2.2310   -3.8770    0.1840 f         1 872     -0.163667
     28 F47         0.8240   -5.5790    0.2160 f         1 872     -0.163667
     29 H1          1.6900    5.2260   -3.7500 ha        1 872      0.171000
     30 H4         -2.4420    2.9950   -3.7130 ha        1 872      0.165000
     31 H111       -1.4460    3.0360   -0.7680 ha        1 872      0.116500
     32 H112       -1.7980    1.8060   -1.7300 ha        1 872      0.116500
     33 H12         0.8210    1.7360   -1.5920 h1        1 872      0.108000
     34 H151       -0.9780   -0.0480   -1.3140 hc        1 872      0.120000
     35 H152        0.4920   -0.3570   -0.8220 hc        1 872      0.120000
     36 H201       -0.1160    2.8410    0.5840 hn        1 872      0.156000
     37 H202        0.6850    1.6360    0.8780 hn        1 872      0.156000
     38 H251       -1.4160   -0.5940    3.5700 h1        1 872      0.106500
     39 H252       -1.7200   -2.1410    3.1420 h1        1 872      0.106500
     40 H261       -0.0740   -2.0580    5.1980 hc        1 872      0.106000
     41 H262        1.0100   -1.3160    4.2770 hc        1 872      0.106000
     42 H271        0.3220   -3.9610    4.3140 h1        1 872      0.110000
     43 H272        1.7780   -3.3140    4.0770 h1        1 872      0.110000
     44 HN28        0.1240   -4.0270    2.3790 hn        1 872      0.172000
     45 H30         1.2080   -1.8080    0.4060 h1        1 872      0.147000
     46 H371       -0.6120   -3.9500    1.0500 hc        1 872      0.134000
     47 H372       -0.6800   -3.1050   -0.3640 hc        1 872      0.134000
@<TRIPOS>BOND
     1    1    6 1   
     2    1   29 1   
     3    2    3 1   
     4    2    8 1   
     5    3    4 1   
     6    4    5 1   
     7    4   30 1   
     8    5    7 1   
     9    6   24 1   
    10    9   10 1   
    11    9   31 1   
    12    9   32 1   
    13   10   11 1   
    14   10   14 1   
    15   10   33 1   
    16   11   12 1   
    17   11   34 1   
    18   11   35 1   
    19   12   13 1   
    20   12   15 1   
    21   13   16 1   
    22   13   21 1   
    23   14   36 1   
    24   14   37 1   
    25   16   17 1   
    26   16   38 1   
    27   16   39 1   
    28   17   18 1   
    29   17   40 1   
    30   17   41 1   
    31   18   19 1   
    32   18   42 1   
    33   18   43 1   
    34   19   20 1   
    35   19   44 1   
    36   20   21 1   
    37   20   23 1   
    38   21   22 1   
    39   21   45 1   
    40   22   25 1   
    41   22   46 1   
    42   22   47 1   
    43   25   26 1   
    44   25   27 1   
    45   25   28 1   
@<TRIPOS>SUBSTRUCTURE
     1 872         1 TEMP              0 ****  ****    0 ROOT
