@<TRIPOS>MOLECULE
872
   47    48     1     0     0
SMALL
bcc


@<TRIPOS>ATOM
      1 C1          3.6100    1.0730   -5.0580 ca        1 872     -0.184000
      2 C2          3.2660    2.1470   -4.2200 ca        1 872      0.126900
      3 C3          4.2610    2.9660   -3.6430 ca        1 872     -0.097300
      4 C4          5.6020    2.6870   -3.9090 ca        1 872     -0.119000
      5 C5          5.9670    1.6170   -4.7390 ca        1 872      0.087900
      6 C6          4.9580    0.8020   -5.3210 ca        1 872      0.115900
      7 F9          7.2710    1.3590   -4.9870 f         1 872     -0.118900
      8 F10         1.9540    2.3850   -3.9750 f         1 872     -0.136900
      9 C11         3.9090    4.1280   -2.7820 c3        1 872     -0.042100
     10 C12         4.1710    3.8280   -1.2930 c3        1 872      0.184500
     11 C15         3.0580    2.8810   -0.7960 c3        1 872     -0.190400
     12 C16         3.3200    2.4680    0.6380 c         1 872      0.657100
     13 N19         2.2210    2.1290    1.4480 n         1 872     -0.465800
     14 N20         4.3170    5.0440   -0.5210 n3        1 872     -0.905800
     15 O22         4.4700    2.5150    1.1130 o         1 872     -0.583100
     16 C25         1.0830    1.4520    0.8650 c3        1 872      0.084000
     17 C26         1.2010   -0.0680    0.7750 c3        1 872     -0.135400
     18 C27         1.3230   -0.7200    2.1500 c3        1 872      0.102000
     19 N28         2.5850   -0.5660    2.8090 n         1 872     -0.574900
     20 C29         3.0990    0.6270    3.2680 c         1 872      0.678500
     21 C30         2.3900    1.9430    2.8770 c3        1 872      0.048700
     22 C37         3.1280    3.0900    3.5760 c3        1 872     -0.124400
     23 O39         4.1030    0.6230    4.0040 o         1 872     -0.624500
     24 F41         5.2990   -0.2300   -6.1240 f         1 872     -0.118900
     25 C42         2.4610    4.4650    3.3280 c3        1 872      0.633900
     26 F45         2.7990    5.0620    2.1380 f         1 872     -0.243633
     27 F46         2.7910    5.4010    4.2770 f         1 872     -0.243633
     28 F47         1.0880    4.4540    3.3280 f         1 872     -0.243633
     29 H1          2.8240    0.4480   -5.5080 ha        1 872      0.169000
     30 H4          6.3910    3.3150   -3.4640 ha        1 872      0.170000
     31 H111        2.8310    4.4060   -2.9280 hc        1 872      0.071700
     32 H112        4.5300    5.0110   -3.0980 hc        1 872      0.071700
     33 H12         5.1550    3.2720   -1.2100 h1        1 872      0.081700
     34 H151        2.0670    3.3980   -0.8920 hc        1 872      0.075200
     35 H152        3.0380    1.9640   -1.4410 hc        1 872      0.075200
     36 H201        4.6470    4.8270    0.4010 hn        1 872      0.362800
     37 H202        3.4480    5.5350   -0.4500 hn        1 872      0.362800
     38 H251        0.9060    1.8560   -0.1720 h1        1 872      0.062700
     39 H252        0.1740    1.7110    1.4830 h1        1 872      0.062700
     40 H261        2.0670   -0.3550    0.1240 hc        1 872      0.063200
     41 H262        0.2670   -0.4560    0.2900 hc        1 872      0.063200
     42 H271        0.5040   -0.3070    2.8100 h1        1 872      0.047700
     43 H272        1.1370   -1.8270    2.0290 h1        1 872      0.047700
     44 HN28        3.0980   -1.3920    3.0230 hn        1 872      0.326500
     45 H30         1.3460    1.8970    3.3260 h1        1 872      0.082700
     46 H371        4.1980    3.1430    3.2390 hc        1 872      0.119700
     47 H372        3.1210    2.8910    4.6800 hc        1 872      0.119700
@<TRIPOS>BOND
     1    1    2 ar  
     2    1    6 ar  
     3    1   29 1   
     4    2    3 ar  
     5    2    8 1   
     6    3    4 ar  
     7    3    9 1   
     8    4    5 ar  
     9    4   30 1   
    10    5    6 ar  
    11    5    7 1   
    12    6   24 1   
    13    9   10 1   
    14    9   31 1   
    15    9   32 1   
    16   10   11 1   
    17   10   14 1   
    18   10   33 1   
    19   11   12 1   
    20   11   34 1   
    21   11   35 1   
    22   12   13 1   
    23   12   15 2   
    24   13   16 1   
    25   13   21 1   
    26   14   36 1   
    27   14   37 1   
    28   16   17 1   
    29   16   38 1   
    30   16   39 1   
    31   17   18 1   
    32   17   40 1   
    33   17   41 1   
    34   18   19 1   
    35   18   42 1   
    36   18   43 1   
    37   19   20 1   
    38   19   44 1   
    39   20   21 1   
    40   20   23 2   
    41   21   22 1   
    42   21   45 1   
    43   22   25 1   
    44   22   46 1   
    45   22   47 1   
    46   25   26 1   
    47   25   27 1   
    48   25   28 1   
@<TRIPOS>SUBSTRUCTURE
     1 872         1 TEMP              0 ****  ****    0 ROOT
