@<TRIPOS>MOLECULE
872
   48    49     1     0     0
SMALL
bcc


@<TRIPOS>ATOM
      1 C1         -0.0980    0.7340    0.2800 ca        1 872     -0.175000
      2 C2          1.3010    0.6610    0.1820 ca        1 872      0.142900
      3 C3          2.0740    0.1160    1.2310 ca        1 872     -0.151300
      4 C4          1.4310   -0.3460    2.3800 ca        1 872     -0.117000
      5 C5          0.0360   -0.2750    2.5020 ca        1 872      0.101900
      6 C6         -0.7380    0.2700    1.4360 ca        1 872      0.155900
      7 F9         -0.5730   -0.7210    3.6200 f         1 872     -0.098900
      8 F10         1.9080    1.1240   -0.9380 f         1 872     -0.134900
      9 C11         3.5500   -0.0220    1.1000 c3        1 872     -0.049100
     10 C12         4.2700    1.1490    1.7860 c3        1 872      0.138500
     11 C15         4.0940    2.4340    0.9680 c3        1 872     -0.181400
     12 C16         4.8100    3.6040    1.6300 c         1 872      0.654100
     13 N19         5.0920    4.7340    0.8840 n         1 872     -0.433800
     14 N20         5.7280    0.8420    2.0010 n4        1 872     -0.847600
     15 O22         5.2330    3.4550    2.8010 o         1 872     -0.635100
     16 C25         4.2470    5.1270   -0.2290 c3        1 872      0.077000
     17 C26         3.0980    6.0650    0.1300 c3        1 872     -0.131400
     18 C27         3.5830    7.3910    0.7140 c3        1 872      0.095000
     19 N28         4.0730    7.3330    2.0600 n         1 872     -0.565900
     20 C29         5.2270    6.6960    2.4470 c         1 872      0.676500
     21 C30         5.9470    5.7850    1.4220 c3        1 872      0.036700
     22 C37         7.2400    5.2900    2.0750 c3        1 872     -0.126400
     23 O39         5.6830    6.8450    3.5930 o         1 872     -0.604500
     24 F41        -2.0790    0.3360    1.5430 f         1 872     -0.091900
     25 C42         8.0290    4.2900    1.1960 c3        1 872      0.640900
     26 F45         7.5720    2.9860    1.2720 f         1 872     -0.249633
     27 F46         9.3500    4.1830    1.5360 f         1 872     -0.249633
     28 F47         8.0270    4.5540   -0.1480 f         1 872     -0.249633
     29 H1         -0.6920    1.1480   -0.5520 ha        1 872      0.189000
     30 H4          2.0110   -0.7880    3.2060 ha        1 872      0.161000
     31 H111        3.8340   -0.0590    0.0130 hc        1 872      0.081200
     32 H112        3.8610   -0.9970    1.5680 hc        1 872      0.081200
     33 H12         3.8330    1.3130    2.8210 hx        1 872      0.132700
     34 H151        2.9910    2.6510    0.9130 hc        1 872      0.111700
     35 H152        4.4610    2.2770   -0.0820 hc        1 872      0.111700
     36 H201        6.2270    0.8190    1.1080 hn        1 872      0.468467
     37 H202        6.1430    1.5960    2.5830 hn        1 872      0.468467
     38 H251        4.9090    5.6310   -0.9930 h1        1 872      0.069200
     39 H252        3.8200    4.2060   -0.7160 h1        1 872      0.069200
     40 H261        2.3850    5.5630    0.8350 hc        1 872      0.071200
     41 H262        2.5380    6.2900   -0.8170 hc        1 872      0.071200
     42 H271        4.3850    7.8060    0.0330 h1        1 872      0.061700
     43 H272        2.7170    8.1150    0.6990 h1        1 872      0.061700
     44 HN28        3.6260    7.9120    2.7380 hn        1 872      0.339500
     45 H30         6.2450    6.4360    0.5390 h1        1 872      0.098700
     46 H371        7.8970    6.1810    2.2640 hc        1 872      0.128700
     47 H372        7.0280    4.8070    3.0670 hc        1 872      0.128700
     48 H203        5.8320   -0.0560    2.4750 hn        1 872      0.468467
@<TRIPOS>BOND
     1    1    2 ar  
     2    1    6 ar  
     3    1   29 1   
     4    2    3 ar  
     5    2    8 1   
     6    3    4 ar  
     7    3    9 1   
     8    4    5 ar  
     9    4   30 1   
    10    5    6 ar  
    11    5    7 1   
    12    6   24 1   
    13    9   10 1   
    14    9   31 1   
    15    9   32 1   
    16   10   11 1   
    17   10   14 1   
    18   10   33 1   
    19   11   12 1   
    20   11   34 1   
    21   11   35 1   
    22   12   13 1   
    23   12   15 2   
    24   13   16 1   
    25   13   21 1   
    26   14   36 1   
    27   14   37 1   
    28   14   48 1   
    29   16   17 1   
    30   16   38 1   
    31   16   39 1   
    32   17   18 1   
    33   17   40 1   
    34   17   41 1   
    35   18   19 1   
    36   18   42 1   
    37   18   43 1   
    38   19   20 1   
    39   19   44 1   
    40   20   21 1   
    41   20   23 2   
    42   21   22 1   
    43   21   45 1   
    44   22   25 1   
    45   22   46 1   
    46   22   47 1   
    47   25   26 1   
    48   25   27 1   
    49   25   28 1   
@<TRIPOS>SUBSTRUCTURE
     1 872         1 TEMP              0 ****  ****    0 ROOT
