@<TRIPOS>MOLECULE
872
   48    49     1     0     0
SMALL
bcc


@<TRIPOS>ATOM
      1 C1         -0.0990    0.7230    0.3060 ca        1 872     -0.175000
      2 C2          1.3000    0.6500    0.2080 ca        1 872      0.142900
      3 C3          2.0750    0.1150    1.2610 ca        1 872     -0.151300
      4 C4          1.4320   -0.3380    2.4140 ca        1 872     -0.117000
      5 C5          0.0380   -0.2660    2.5370 ca        1 872      0.101900
      6 C6         -0.7380    0.2680    1.4670 ca        1 872      0.155900
      7 F9         -0.5700   -0.7040    3.6590 f         1 872     -0.098900
      8 F10         1.9060    1.1030   -0.9170 f         1 872     -0.134900
      9 C11         3.5500   -0.0240    1.1300 c3        1 872     -0.049100
     10 C12         4.2700    1.1550    1.8040 c3        1 872      0.138500
     11 C15         4.0920    2.4320    0.9760 c3        1 872     -0.181400
     12 C16         4.8080    3.6080    1.6260 c         1 872      0.654100
     13 N19         5.0880    4.7320    0.8690 n         1 872     -0.433800
     14 N20         5.7290    0.8510    2.0210 nz        1 872     -0.847600
     15 O22         5.2330    3.4700    2.7980 o         1 872     -0.635100
     16 C25         4.2400    5.1150   -0.2450 c3        1 872      0.077000
     17 C26         3.0900    6.0550    0.1070 c3        1 872     -0.131400
     18 C27         3.5760    7.3860    0.6780 c3        1 872      0.095000
     19 N28         4.0670    7.3410    2.0230 ns        1 872     -0.565900
     20 C29         5.2230    6.7080    2.4140 c         1 872      0.676500
     21 C30         5.9420    5.7880    1.3970 c3        1 872      0.036700
     22 C37         7.2370    5.3000    2.0520 c3        1 872     -0.126400
     23 O39         5.6810    6.8680    3.5590 o         1 872     -0.604500
     24 F41        -2.0780    0.3340    1.5750 f         1 872     -0.091900
     25 C42         8.0250    4.2930    1.1800 c3        1 872      0.640900
     26 F45         7.5690    2.9900    1.2690 f         1 872     -0.249633
     27 F46         9.3470    4.1910    1.5200 f         1 872     -0.249633
     28 F47         8.0210    4.5460   -0.1660 f         1 872     -0.249633
     29 H1         -0.6940    1.1280   -0.5280 ha        1 872      0.189000
     30 H4          2.0140   -0.7720    3.2440 ha        1 872      0.161000
     31 H111        3.8630   -0.9940    1.6070 hc        1 872      0.081200
     32 H112        3.8330   -0.0700    0.0430 hc        1 872      0.081200
     33 H12         3.8340    1.3270    2.8380 hx        1 872      0.132700
     34 H151        2.9880    2.6470    0.9200 hc        1 872      0.111700
     35 H152        4.4570    2.2670   -0.0740 hc        1 872      0.111700
     36 H201        6.1430    1.6100    2.5950 hn        1 872      0.468467
     37 H202        6.2270    0.8210    1.1270 hn        1 872      0.468467
     38 H251        4.9000    5.6120   -1.0160 h1        1 872      0.069200
     39 H252        3.8130    4.1890   -0.7240 h1        1 872      0.069200
     40 H261        2.3800    5.5590    0.8170 hc        1 872      0.071200
     41 H262        2.5290    6.2710   -0.8410 hc        1 872      0.071200
     42 H271        4.3760    7.7960   -0.0080 h1        1 872      0.061700
     43 H272        2.7090    8.1100    0.6570 h1        1 872      0.061700
     44 HN28        3.6220    7.9250    2.6970 hn        1 872      0.339500
     45 H30         6.2380    6.4320    0.5080 h1        1 872      0.098700
     46 H371        7.8930    6.1940    2.2320 hc        1 872      0.128700
     47 H372        7.0260    4.8260    3.0490 hc        1 872      0.128700
     48 H203        5.8350   -0.0430    2.5020 hn        1 872      0.468467
@<TRIPOS>BOND
     1    1    2 ar  
     2    1    6 ar  
     3    1   29 1   
     4    2    3 ar  
     5    2    8 1   
     6    3    4 ar  
     7    3    9 1   
     8    4    5 ar  
     9    4   30 1   
    10    5    6 ar  
    11    5    7 1   
    12    6   24 1   
    13    9   10 1   
    14    9   31 1   
    15    9   32 1   
    16   10   11 1   
    17   10   14 1   
    18   10   33 1   
    19   11   12 1   
    20   11   34 1   
    21   11   35 1   
    22   12   13 1   
    23   12   15 2   
    24   13   16 1   
    25   13   21 1   
    26   14   36 1   
    27   14   37 1   
    28   14   48 1   
    29   16   17 1   
    30   16   38 1   
    31   16   39 1   
    32   17   18 1   
    33   17   40 1   
    34   17   41 1   
    35   18   19 1   
    36   18   42 1   
    37   18   43 1   
    38   19   20 1   
    39   19   44 1   
    40   20   21 1   
    41   20   23 2   
    42   21   22 1   
    43   21   45 1   
    44   22   25 1   
    45   22   46 1   
    46   22   47 1   
    47   25   26 1   
    48   25   27 1   
    49   25   28 1   
@<TRIPOS>SUBSTRUCTURE
     1 872         1 TEMP              0 ****  ****    0 ROOT
