@<TRIPOS>MOLECULE
872
   48    49     1     0     0
SMALL
bcc


@<TRIPOS>ATOM
      1 C1         -0.1000    0.7220    0.3070 ca        1 872     -0.175000
      2 C2          1.2990    0.6520    0.2040 ca        1 872      0.142900
      3 C3          2.0770    0.1130    1.2530 ca        1 872     -0.151300
      4 C4          1.4380   -0.3450    2.4060 ca        1 872     -0.117000
      5 C5          0.0440   -0.2760    2.5340 ca        1 872      0.101900
      6 C6         -0.7350    0.2620    1.4680 ca        1 872      0.155900
      7 F9         -0.5600   -0.7190    3.6560 f         1 872     -0.098900
      8 F10         1.9000    1.1110   -0.9200 f         1 872     -0.134900
      9 C11         3.5520   -0.0230    1.1170 c3        1 872     -0.049100
     10 C12         4.2720    1.1540    1.7950 c3        1 872      0.138500
     11 C15         4.0920    2.4340    0.9710 c3        1 872     -0.181400
     12 C16         4.8080    3.6080    1.6250 c         1 872      0.654100
     13 N19         5.0860    4.7350    0.8730 n         1 872     -0.433800
     14 N20         5.7310    0.8500    2.0080 n4        1 872     -0.847600
     15 O22         5.2340    3.4660    2.7960 o         1 872     -0.635100
     16 C25         4.2370    5.1210   -0.2400 c3        1 872      0.077000
     17 C26         3.0880    6.0590    0.1170 c3        1 872     -0.131400
     18 C27         3.5730    7.3890    0.6920 c3        1 872      0.095000
     19 N28         4.0650    7.3390    2.0370 n         1 872     -0.565900
     20 C29         5.2220    6.7050    2.4250 c         1 872      0.676500
     21 C30         5.9400    5.7900    1.4030 c3        1 872      0.036700
     22 C37         7.2360    5.3000    2.0550 c3        1 872     -0.126400
     23 O39         5.6800    6.8610    3.5690 o         1 872     -0.604500
     24 F41        -2.0760    0.3260    1.5790 f         1 872     -0.091900
     25 C42         8.0240    4.2970    1.1790 c3        1 872      0.640900
     26 F45         7.5690    2.9930    1.2640 f         1 872     -0.249633
     27 F46         9.3470    4.1940    1.5180 f         1 872     -0.249633
     28 F47         8.0190    4.5550   -0.1660 f         1 872     -0.249633
     29 H1         -0.6980    1.1300   -0.5240 ha        1 872      0.189000
     30 H4          2.0230   -0.7820    3.2320 ha        1 872      0.161000
     31 H111        3.8670   -0.9950    1.5890 hc        1 872      0.081200
     32 H112        3.8320   -0.0640    0.0290 hc        1 872      0.081200
     33 H12         3.8370    1.3220    2.8300 hx        1 872      0.132700
     34 H151        4.4570    2.2720   -0.0790 hc        1 872      0.111700
     35 H152        2.9890    2.6480    0.9180 hc        1 872      0.111700
     36 H201        6.2280    0.8230    1.1130 hn        1 872      0.468467
     37 H202        6.1460    1.6070    2.5840 hn        1 872      0.468467
     38 H251        4.8970    5.6220   -1.0090 h1        1 872      0.069200
     39 H252        3.8110    4.1960   -0.7220 h1        1 872      0.069200
     40 H261        2.5250    6.2780   -0.8300 hc        1 872      0.071200
     41 H262        2.3780    5.5600    0.8260 hc        1 872      0.071200
     42 H271        2.7050    8.1110    0.6750 h1        1 872      0.061700
     43 H272        4.3720    7.8010    0.0070 h1        1 872      0.061700
     44 HN28        3.6200    7.9200    2.7130 hn        1 872      0.339500
     45 H30         6.2360    6.4360    0.5160 h1        1 872      0.098700
     46 H371        7.0270    4.8220    3.0510 hc        1 872      0.128700
     47 H372        7.8920    6.1940    2.2380 hc        1 872      0.128700
     48 H203        5.8380   -0.0460    2.4870 hn        1 872      0.468467
@<TRIPOS>BOND
     1    1    2 ar  
     2    1    6 ar  
     3    1   29 1   
     4    2    3 ar  
     5    2    8 1   
     6    3    4 ar  
     7    3    9 1   
     8    4    5 ar  
     9    4   30 1   
    10    5    6 ar  
    11    5    7 1   
    12    6   24 1   
    13    9   10 1   
    14    9   31 1   
    15    9   32 1   
    16   10   11 1   
    17   10   14 1   
    18   10   33 1   
    19   11   12 1   
    20   11   34 1   
    21   11   35 1   
    22   12   13 1   
    23   12   15 2   
    24   13   16 1   
    25   13   21 1   
    26   14   36 1   
    27   14   37 1   
    28   14   48 1   
    29   16   17 1   
    30   16   38 1   
    31   16   39 1   
    32   17   18 1   
    33   17   40 1   
    34   17   41 1   
    35   18   19 1   
    36   18   42 1   
    37   18   43 1   
    38   19   20 1   
    39   19   44 1   
    40   20   21 1   
    41   20   23 2   
    42   21   22 1   
    43   21   45 1   
    44   22   25 1   
    45   22   46 1   
    46   22   47 1   
    47   25   26 1   
    48   25   27 1   
    49   25   28 1   
@<TRIPOS>SUBSTRUCTURE
     1 872         1 TEMP              0 ****  ****    0 ROOT
