@<TRIPOS>MOLECULE
876
   77    80     1     0     0
SMALL
bcc


@<TRIPOS>ATOM
      1 C1          0.8280    0.6110    3.3860 ca        1 876     -0.142000
      2 C2          2.1640    0.7380    3.0080 ca        1 876     -0.083000
      3 C3          2.7480   -0.1710    2.1230 ca        1 876     -0.605000
      4 C4          2.0370   -1.2980    1.7460 ca        1 876     -0.649000
      5 C5          0.7740   -1.5270    2.2910 ca        1 876     -0.126000
      6 C6          0.0980   -0.5110    2.9700 ca        1 876     -0.129000
      7 C7         -1.3890   -0.5590    2.9990 c3        1 876     -0.099000
      8 C8         -1.9580   -1.0580    1.6600 c3        1 876     -0.174000
      9 C9         -3.4950   -0.8870    1.6850 c1        1 876     -0.132000
     10 N10        -6.2700   -1.8930    2.2700 n3        1 876     -0.353000
     11 N11        -1.2040   -0.4760    0.4790 n4        1 876     -0.127000
     12 C12        -1.9460   -0.5890   -0.7970 c2        1 876      0.332000
     13 C13        -2.0640   -1.9700   -1.3540 c3        1 876     -0.250000
     14 O14        -2.3040    0.4550   -1.3500 o         1 876     -0.320000
     15 O15        -4.0570   -0.6590    0.6040 o         1 876     -0.467000
     16 C16        -7.3270   -1.2620    3.0150 c3        1 876     -0.015000
     17 C17        -7.1230   -1.2260    4.5340 c3        1 876     -0.150000
     18 C18        -5.8260   -0.6230    5.0210 c3        1 876     -0.164000
     19 C19        -5.7110    0.8620    4.7630 c3        1 876     -0.167000
     20 C20        -5.6660    1.1940    3.2720 c3        1 876     -0.050000
     21 N21        -6.9590    1.2390    2.6270 n         1 876     -0.317000
     22 C22        -7.7740    0.1300    2.5080 c2        1 876      0.267000
     23 C23        -7.3250    2.4780    1.9790 c3        1 876      0.013000
     24 C24        -6.4540    2.9180    0.8360 ca        1 876     -0.099000
     25 O25        -8.9120    0.2350    1.9950 o         1 876     -0.414000
     26 P26         4.2800    0.2590    1.5250 p5        1 876      1.976000
     27 C27        -6.4820    4.2710    0.4700 ca        1 876     -0.128000
     28 C28        -5.7130    4.7340   -0.5920 ca        1 876     -0.116500
     29 C29        -4.8930    3.8530   -1.3140 cp        1 876     -0.052000
     30 C30        -4.8710    2.5000   -0.9480 ca        1 876     -0.116500
     31 C31        -5.6450    2.0370    0.1150 ca        1 876     -0.128000
     32 C32        -4.0610    4.3340   -2.4140 cq        1 876     -0.027000
     33 C59        -2.8050    3.7540   -2.6580 ca        1 876     -0.119500
     34 C60        -2.0060    4.2210   -3.6990 ca        1 876     -0.136500
     35 C61        -2.4470    5.2650   -4.5120 ca        1 876     -0.141000
     36 C62        -3.6960    5.8400   -4.2820 ca        1 876     -0.136500
     37 C63        -4.4990    5.3790   -3.2410 ca        1 876     -0.119500
     38 P69         2.2750   -2.2120    0.3440 p5        1 876      2.018000
     39 O70         2.6700   -3.6190    0.5210 o         1 876     -0.860000
     40 O71         3.4560   -1.2110   -0.3170 os        1 876     -0.596000
     41 O72         1.0230   -1.9390   -0.4540 o         1 876     -0.860000
     42 O73         4.4440   -1.0880    0.4880 os        1 876     -0.603000
     43 O74         4.1860    1.5370    0.7890 o         1 876     -0.842000
     44 O75         5.3280    0.0640    2.5500 o         1 876     -0.842000
     45 H1          0.3340    1.4010    3.9680 ha        1 876      0.106000
     46 H2          2.7620    1.6040    3.3320 ha        1 876      0.134000
     47 H5          0.2710   -2.4800    2.0540 ha        1 876      0.130000
     48 H71        -1.7590   -1.2610    3.7920 hc        1 876      0.091000
     49 H72A       -1.8080    0.4560    3.2270 hc        1 876      0.091000
     50 H8         -1.7940   -2.1760    1.5950 hx        1 876      0.106000
     51 H10        -6.3020   -1.6330    1.3020 hn        1 876      0.183500
     52 H11        -1.0060    0.5050    0.6730 hn        1 876      0.271000
     53 H131       -2.5230   -1.9160   -2.3700 hc        1 876      0.133000
     54 H132       -1.0370   -2.4310   -1.4190 hc        1 876      0.133000
     55 H133       -2.7130   -2.5870   -0.6840 hc        1 876      0.133000
     56 H16        -8.2500   -1.9050    2.8340 h1        1 876      0.104000
     57 H171       -7.1780   -2.2840    4.9090 hc        1 876      0.078500
     58 H172       -7.9870   -0.6640    4.9790 hc        1 876      0.078500
     59 H181       -4.9470   -1.1480    4.5610 hc        1 876      0.089000
     60 H182       -5.7600   -0.7950    6.1310 hc        1 876      0.089000
     61 H191       -4.7520    1.2300    5.2150 hc        1 876      0.076500
     62 H192       -6.5510    1.4060    5.2690 hc        1 876      0.076500
     63 H201       -4.9880    0.4530    2.7440 h1        1 876      0.121000
     64 H202       -5.1910    2.2120    3.1560 h1        1 876      0.121000
     65 H231       -8.3820    2.3820    1.5870 h1        1 876      0.096500
     66 H232       -7.3210    3.2930    2.7620 h1        1 876      0.096500
     67 H27        -7.1140    4.9750    1.0320 ha        1 876      0.149000
     68 H28        -5.7340    5.8010   -0.8550 ha        1 876      0.144000
     69 H30        -4.2260    1.7830   -1.4870 ha        1 876      0.144000
     70 H31        -5.5780    0.9650    0.3830 ha        1 876      0.149000
     71 H59        -2.4500    2.9210   -2.0250 ha        1 876      0.146000
     72 H60        -1.0210    3.7620   -3.8750 ha        1 876      0.127000
     73 H61        -1.8130    5.6320   -5.3310 ha        1 876      0.119000
     74 H62        -4.0510    6.6590   -4.9230 ha        1 876      0.127000
     75 H63        -5.4870    5.8320   -3.0700 ha        1 876      0.146000
     76 H102       -5.3530   -1.6660    2.6210 hn        1 876      0.183500
     77 H112       -0.2710   -0.9900    0.3230 hn        1 876      0.271000
@<TRIPOS>BOND
     1    1    2 1   
     2    1    6 1   
     3    1   45 1   
     4    2    3 1   
     5    2   46 1   
     6    3    4 1   
     7    3   26 1   
     8    4    5 1   
     9    4   38 1   
    10    5    6 1   
    11    5   47 1   
    12    6    7 1   
    13    7    8 1   
    14    7   48 1   
    15    7   49 1   
    16    8    9 1   
    17    8   11 1   
    18    8   50 1   
    19    9   15 1   
    20   10   16 1   
    21   10   51 1   
    22   10   76 1   
    23   11   12 1   
    24   11   52 1   
    25   11   77 1   
    26   12   13 1   
    27   12   14 1   
    28   13   53 1   
    29   13   54 1   
    30   13   55 1   
    31   16   17 1   
    32   16   22 1   
    33   16   56 1   
    34   17   18 1   
    35   17   57 1   
    36   17   58 1   
    37   18   19 1   
    38   18   59 1   
    39   18   60 1   
    40   19   20 1   
    41   19   61 1   
    42   19   62 1   
    43   20   21 1   
    44   20   63 1   
    45   20   64 1   
    46   21   22 1   
    47   21   23 1   
    48   22   25 1   
    49   23   24 1   
    50   23   65 1   
    51   23   66 1   
    52   24   27 1   
    53   24   31 1   
    54   26   42 1   
    55   26   43 1   
    56   26   44 1   
    57   27   28 1   
    58   27   67 1   
    59   28   29 1   
    60   28   68 1   
    61   29   30 1   
    62   29   32 1   
    63   30   31 1   
    64   30   69 1   
    65   31   70 1   
    66   32   33 1   
    67   32   37 1   
    68   33   34 1   
    69   33   71 1   
    70   34   35 1   
    71   34   72 1   
    72   35   36 1   
    73   35   73 1   
    74   36   37 1   
    75   36   74 1   
    76   37   75 1   
    77   38   39 1   
    78   38   40 1   
    79   38   41 1   
    80   40   42 1   
@<TRIPOS>SUBSTRUCTURE
     1 876         1 TEMP              0 ****  ****    0 ROOT
