@<TRIPOS>MOLECULE
876
   77    80     1     0     0
SMALL
bcc


@<TRIPOS>ATOM
      1 C1          0.8340    0.5160    3.3580 ca        1 876     -0.142000
      2 C2          2.1690    0.6310    2.9740 ca        1 876     -0.083000
      3 C3          2.7350   -0.2730    2.0720 ca        1 876     -0.605000
      4 C4          2.0060   -1.3830    1.6810 ca        1 876     -0.649000
      5 C5          0.7430   -1.6030    2.2290 ca        1 876     -0.126000
      6 C6          0.0860   -0.5880    2.9290 ca        1 876     -0.129000
      7 C7         -1.4020   -0.6150    2.9650 c3        1 876     -0.099000
      8 C8         -1.9850   -1.0850    1.6210 c3        1 876     -0.174000
      9 C9         -3.5190   -0.8910    1.6570 c1        1 876     -0.132000
     10 N10        -6.3060   -1.8670    2.2400 n8        1 876     -0.353000
     11 N11        -1.2290   -0.4940    0.4450 ny        1 876     -0.127000
     12 C12        -1.9790   -0.5750   -0.8280 c2        1 876      0.332000
     13 C13        -2.1220   -1.9450   -1.4070 c3        1 876     -0.250000
     14 O14        -2.3260    0.4830   -1.3610 o         1 876     -0.320000
     15 O15        -4.0840   -0.6380    0.5830 o         1 876     -0.467000
     16 C16        -7.3500   -1.2340    3.0020 c3        1 876     -0.015000
     17 C17        -7.1380   -1.2280    4.5200 c3        1 876     -0.150000
     18 C18        -5.8300   -0.6530    5.0110 c3        1 876     -0.164000
     19 C19        -5.6930    0.8330    4.7790 c3        1 876     -0.167000
     20 C20        -5.6500    1.1920    3.2940 c3        1 876     -0.050000
     21 N21        -6.9450    1.2680    2.6560 n         1 876     -0.317000
     22 C22        -7.7780    0.1740    2.5220 c2        1 876      0.267000
     23 C23        -7.2960    2.5240    2.0330 c3        1 876      0.013000
     24 C24        -6.4240    2.9710    0.8920 ca        1 876     -0.099000
     25 O25        -8.9170    0.3060    2.0160 o         1 876     -0.414000
     26 P26         4.2700    0.1450    1.4720 p5        1 876      1.976000
     27 C27        -6.4330    4.3310    0.5510 ca        1 876     -0.128000
     28 C28        -5.6620    4.8000   -0.5060 ca        1 876     -0.116500
     29 C29        -4.8600    3.9200   -1.2490 cp        1 876     -0.052000
     30 C30        -4.8570    2.5600   -0.9080 ca        1 876     -0.116500
     31 C31        -5.6330    2.0910    0.1510 ca        1 876     -0.128000
     32 C32        -4.0260    4.4080   -2.3450 cq        1 876     -0.027000
     33 C59        -2.7820    3.8130   -2.6070 ca        1 876     -0.119500
     34 C60        -1.9800    4.2860   -3.6440 ca        1 876     -0.136500
     35 C61        -2.4100    5.3510   -4.4350 ca        1 876     -0.141000
     36 C62        -3.6490    5.9410   -4.1880 ca        1 876     -0.136500
     37 C63        -4.4530    5.4740   -3.1500 ca        1 876     -0.119500
     38 P69         2.2240   -2.2780    0.2630 p5        1 876      2.018000
     39 O70         2.5980   -3.6920    0.4150 o         1 876     -0.860000
     40 O71         3.4150   -1.2830   -0.3880 os        1 876     -0.596000
     41 O72         0.9710   -1.9740   -0.5230 o         1 876     -0.860000
     42 O73         4.4090   -1.1870    0.4120 os        1 876     -0.603000
     43 O74         4.1900    1.4360    0.7570 o         1 876     -0.842000
     44 O75         5.3210   -0.0820    2.4870 o         1 876     -0.842000
     45 H1          0.3550    1.3040    3.9550 ha        1 876      0.106000
     46 H2          2.7810    1.4830    3.3090 ha        1 876      0.134000
     47 H5          0.2250   -2.5440    1.9800 ha        1 876      0.130000
     48 H71        -1.7780   -1.3250    3.7480 hc        1 876      0.091000
     49 H72A       -1.8050    0.4020    3.2120 hc        1 876      0.091000
     50 H8         -1.8380   -2.2040    1.5370 hx        1 876      0.106000
     51 H10        -5.3840   -1.6600    2.5900 hn        1 876      0.183500
     52 H11        -1.0160    0.4810    0.6550 hn        1 876      0.271000
     53 H131       -2.7750   -2.5630   -0.7440 hc        1 876      0.133000
     54 H132       -1.1010   -2.4200   -1.4850 hc        1 876      0.133000
     55 H133       -2.5850   -1.8680   -2.4190 hc        1 876      0.133000
     56 H16        -8.2840   -1.8590    2.8140 h1        1 876      0.104000
     57 H171       -7.9910   -0.6610    4.9790 hc        1 876      0.078500
     58 H172       -7.2080   -2.2920    4.8750 hc        1 876      0.078500
     59 H181       -5.7610   -0.8470    6.1170 hc        1 876      0.089000
     60 H182       -4.9610   -1.1840    4.5370 hc        1 876      0.089000
     61 H191       -6.5220    1.3810    5.2990 hc        1 876      0.076500
     62 H192       -4.7260    1.1790    5.2330 hc        1 876      0.076500
     63 H201       -4.9860    0.4510    2.7490 h1        1 876      0.121000
     64 H202       -5.1600    2.2040    3.1940 h1        1 876      0.121000
     65 H231       -8.3560    2.4520    1.6450 h1        1 876      0.096500
     66 H232       -7.2740    3.3250    2.8310 h1        1 876      0.096500
     67 H27        -7.0500    5.0340    1.1290 ha        1 876      0.149000
     68 H28        -5.6670    5.8720   -0.7510 ha        1 876      0.144000
     69 H30        -4.2260    1.8430   -1.4630 ha        1 876      0.144000
     70 H31        -5.5810    1.0130    0.4000 ha        1 876      0.149000
     71 H59        -2.4360    2.9630   -1.9910 ha        1 876      0.146000
     72 H60        -1.0040    3.8140   -3.8340 ha        1 876      0.127000
     73 H61        -1.7740    5.7230   -5.2510 ha        1 876      0.119000
     74 H62        -3.9940    6.7770   -4.8130 ha        1 876      0.127000
     75 H63        -5.4320    5.9390   -2.9660 ha        1 876      0.146000
     76 H102       -6.3400   -1.5890    1.2770 hn        1 876      0.183500
     77 H112       -0.3050   -1.0190    0.2760 hn        1 876      0.271000
@<TRIPOS>BOND
     1    1    2 1   
     2    1    6 1   
     3    1   45 1   
     4    2    3 1   
     5    2   46 1   
     6    3    4 1   
     7    3   26 1   
     8    4    5 1   
     9    4   38 1   
    10    5    6 1   
    11    5   47 1   
    12    6    7 1   
    13    7    8 1   
    14    7   48 1   
    15    7   49 1   
    16    8    9 1   
    17    8   11 1   
    18    8   50 1   
    19    9   15 1   
    20   10   16 1   
    21   10   51 1   
    22   10   76 1   
    23   11   12 1   
    24   11   52 1   
    25   11   77 1   
    26   12   13 1   
    27   12   14 1   
    28   13   53 1   
    29   13   54 1   
    30   13   55 1   
    31   16   17 1   
    32   16   22 1   
    33   16   56 1   
    34   17   18 1   
    35   17   57 1   
    36   17   58 1   
    37   18   19 1   
    38   18   59 1   
    39   18   60 1   
    40   19   20 1   
    41   19   61 1   
    42   19   62 1   
    43   20   21 1   
    44   20   63 1   
    45   20   64 1   
    46   21   22 1   
    47   21   23 1   
    48   22   25 1   
    49   23   24 1   
    50   23   65 1   
    51   23   66 1   
    52   24   27 1   
    53   24   31 1   
    54   26   42 1   
    55   26   43 1   
    56   26   44 1   
    57   27   28 1   
    58   27   67 1   
    59   28   29 1   
    60   28   68 1   
    61   29   30 1   
    62   29   32 1   
    63   30   31 1   
    64   30   69 1   
    65   31   70 1   
    66   32   33 1   
    67   32   37 1   
    68   33   34 1   
    69   33   71 1   
    70   34   35 1   
    71   34   72 1   
    72   35   36 1   
    73   35   73 1   
    74   36   37 1   
    75   36   74 1   
    76   37   75 1   
    77   38   39 1   
    78   38   40 1   
    79   38   41 1   
    80   40   42 1   
@<TRIPOS>SUBSTRUCTURE
     1 876         1 TEMP              0 ****  ****    0 ROOT
