@<TRIPOS>MOLECULE
877
   46    47     1     0     0
SMALL
bcc


@<TRIPOS>ATOM
      1 C1         -2.4820    1.4290    2.3700 ca        1 877     -0.139000
      2 C2         -1.7500    1.9060    1.2800 ca        1 877      0.079100
      3 C3         -1.8560    1.2950    0.0140 ca        1 877     -0.062300
      4 C4         -2.6960    0.1920   -0.1260 ca        1 877     -0.167000
      5 C5         -3.4290   -0.2970    0.9660 ca        1 877      0.136100
      6 C6         -3.3280    0.3270    2.2260 ca        1 877     -0.022900
      7 C9         -1.1110    1.8200   -1.1590 c3        1 877     -0.114100
      8 C10         0.2350    1.1240   -1.3560 c         1 877      0.676100
      9 N13         1.1330    1.2700   -0.2980 n         1 877     -0.554400
     10 C14         2.4110    0.7070   -0.1590 ca        1 877      0.640200
     11 O15         0.4730    0.5170   -2.4090 o         1 877     -0.540100
     12 N16         2.8760   -0.1780   -1.0940 nb        1 877     -0.783000
     13 C17         4.1180   -0.6770   -0.9050 ca        1 877      0.740600
     14 C18         4.9680   -0.3580    0.1910 ca        1 877     -0.283300
     15 C19         4.4660    0.5500    1.1680 ca        1 877      0.304600
     16 C20         3.1750    1.0930    0.9770 ca        1 877     -0.431300
     17 O22        -4.2820   -1.3770    0.8750 os        1 877     -0.311900
     18 C23        -4.2830   -2.0860   -0.3600 c3        1 877      0.110700
     19 O27        -0.8570    2.9640    1.3660 os        1 877     -0.350900
     20 C28        -1.0180    3.8270    2.4880 c3        1 877      0.113700
     21 N33         5.2000    0.8610    2.2860 nh        1 877     -0.857200
     22 C34         6.2550   -0.9240    0.3050 cg        1 877      0.268800
     23 O36         4.6540   -1.5640   -1.8050 os        1 877     -0.441100
     24 C37         3.8560   -1.9290   -2.9520 c3        1 877      0.138400
     25 C38         4.7160   -2.8870   -3.7430 c3        1 877     -0.105100
     26 BR         -4.2760   -0.2500    3.7360 br        1 877     -0.056100
     27 N1          7.3170   -1.3920    0.3950 n1        1 877     -0.394800
     28 H1         -2.3930    1.9200    3.3520 ha        1 877      0.155000
     29 H4         -2.7760   -0.2900   -1.1130 ha        1 877      0.156000
     30 H91        -0.9380    2.9250   -1.0440 hc        1 877      0.089700
     31 H92        -1.7060    1.6590   -2.0990 hc        1 877      0.089700
     32 HN13        0.8250    1.8150    0.4810 hn        1 877      0.341500
     33 H20         2.7660    1.8020    1.7080 ha        1 877      0.143000
     34 H231       -4.6790   -1.4420   -1.1820 h1        1 877      0.050700
     35 H232       -3.2600   -2.4600   -0.6060 h1        1 877      0.050700
     36 H233       -4.9790   -2.9410   -0.1600 h1        1 877      0.050700
     37 H281       -2.0780    4.1610    2.5880 h1        1 877      0.049033
     38 H282       -0.6770    3.3130    3.4200 h1        1 877      0.049033
     39 H283       -0.3490    4.6930    2.2490 h1        1 877      0.049033
     40 H331        4.9090    1.6210    2.8490 hn        1 877      0.432300
     41 H332        6.1510    0.5880    2.3280 hn        1 877      0.432300
     42 H371        3.6120   -1.0090   -3.5430 h1        1 877      0.060700
     43 H372        2.9100   -2.4170   -2.6030 h1        1 877      0.060700
     44 H381        5.6660   -2.3930   -4.0580 hc        1 877      0.049700
     45 H382        4.9740   -3.7830   -3.1300 hc        1 877      0.049700
     46 H383        4.1520   -3.2120   -4.6500 hc        1 877      0.049700
@<TRIPOS>BOND
     1    1    2 ar  
     2    1    6 ar  
     3    1   28 1   
     4    2    3 ar  
     5    2   19 1   
     6    3    4 ar  
     7    3    7 1   
     8    4    5 ar  
     9    4   29 1   
    10    5    6 ar  
    11    5   17 1   
    12    6   26 1   
    13    7    8 1   
    14    7   30 1   
    15    7   31 1   
    16    8    9 1   
    17    8   11 2   
    18    9   10 1   
    19    9   32 1   
    20   10   12 ar  
    21   10   16 ar  
    22   12   13 ar  
    23   13   14 ar  
    24   13   23 1   
    25   14   15 ar  
    26   14   22 1   
    27   15   16 ar  
    28   15   21 1   
    29   16   33 1   
    30   17   18 1   
    31   18   34 1   
    32   18   35 1   
    33   18   36 1   
    34   19   20 1   
    35   20   37 1   
    36   20   38 1   
    37   20   39 1   
    38   21   40 1   
    39   21   41 1   
    40   22   27 3   
    41   23   24 1   
    42   24   25 1   
    43   24   42 1   
    44   24   43 1   
    45   25   44 1   
    46   25   45 1   
    47   25   46 1   
@<TRIPOS>SUBSTRUCTURE
     1 877         1 TEMP              0 ****  ****    0 ROOT
