@<TRIPOS>MOLECULE
877
   46    47     1     0     0
SMALL
bcc


@<TRIPOS>ATOM
      1 C1          1.2290   -0.7830   -0.7400 ca        1 877     -0.139000
      2 C2          2.2550   -0.5840    0.1880 ca        1 877      0.079100
      3 C3          1.9800   -0.0720    1.4720 ca        1 877     -0.062300
      4 C4          0.6620    0.2480    1.7940 ca        1 877     -0.167000
      5 C5         -0.3720    0.0580    0.8660 ca        1 877      0.136100
      6 C6         -0.0920   -0.4670   -0.4130 ca        1 877     -0.022900
      7 C9          3.0580    0.1060    2.4780 c3        1 877     -0.114100
      8 C10         3.6510    1.5150    2.4570 c         1 877      0.676100
      9 N13         4.2520    1.8820    1.2530 ns        1 877     -0.554400
     10 C14         4.8240    3.1160    0.9080 ca        1 877      0.640200
     11 O15         3.6040    2.2240    3.4700 o         1 877     -0.541100
     12 N16         4.7330    4.1770    1.7680 nb        1 877     -0.783000
     13 C17         5.3100    5.3360    1.3790 ca        1 877      0.740600
     14 C18         5.9930    5.5340    0.1450 ca        1 877     -0.283300
     15 C19         6.0640    4.4280   -0.7500 ca        1 877      0.304600
     16 C20         5.4790    3.2040   -0.3510 ca        1 877     -0.431300
     17 O22        -1.6920    0.3480    1.1410 os        1 877     -0.311900
     18 C23        -1.9570    0.9990    2.3790 c3        1 877      0.110700
     19 O27         3.5910   -0.8310   -0.0880 os        1 877     -0.350900
     20 C28         3.8510   -1.6920   -1.1930 c3        1 877      0.113700
     21 N33         6.6510    4.5560   -1.9850 nv        1 877     -0.856200
     22 C34         6.5710    6.7800   -0.1760 cg        1 877      0.268800
     23 O36         5.2680    6.4400    2.1930 os        1 877     -0.441100
     24 C37         4.6020    6.3150    3.4680 c3        1 877      0.138400
     25 C38         4.7410    7.6710    4.1200 c3        1 877     -0.105100
     26 Br         -1.4080   -0.7640   -1.7120 br        1 877     -0.056100
     27 N1          7.0490    7.8090   -0.4370 n1        1 877     -0.394800
     28 H1          1.4590   -1.1890   -1.7380 ha        1 877      0.155000
     29 H4          0.4460    0.6540    2.7950 ha        1 877      0.156000
     30 H91         2.6550   -0.0660    3.5130 hc        1 877      0.089700
     31 H92         3.8810   -0.6390    2.2980 hc        1 877      0.089700
     32 HN13        4.2540    1.1980    0.5240 hn        1 877      0.341500
     33 H20         5.5260    2.3320   -1.0160 ha        1 877      0.143000
     34 H231       -1.3920    1.9600    2.4530 h1        1 877      0.050700
     35 H232       -3.0600    1.1910    2.3330 h1        1 877      0.050700
     36 H233       -1.7110    0.3270    3.2360 h1        1 877      0.050700
     37 H281        3.2560   -2.6340   -1.1170 h1        1 877      0.049033
     38 H282        3.6310   -1.1640   -2.1520 h1        1 877      0.049033
     39 H283        4.9470   -1.9070   -1.1050 h1        1 877      0.049033
     40 H331        7.1790    5.3700   -2.1830 hn        1 877      0.432300
     41 H332        6.8440    3.7370   -2.5060 hn        1 877      0.432300
     42 H371        3.5270    6.0470    3.2990 h1        1 877      0.060700
     43 H372        5.1020    5.5140    4.0710 h1        1 877      0.060700
     44 H381        4.2630    8.4610    3.4920 hc        1 877      0.049700
     45 H382        5.8170    7.9340    4.2560 hc        1 877      0.049700
     46 H383        4.2410    7.6430    5.1180 hc        1 877      0.049700
@<TRIPOS>BOND
     1    1    2 ar  
     2    1    6 ar  
     3    1   28 1   
     4    2    3 ar  
     5    2   19 1   
     6    3    4 ar  
     7    3    7 1   
     8    4    5 ar  
     9    4   29 1   
    10    5    6 ar  
    11    5   17 1   
    12    6   26 1   
    13    7    8 1   
    14    7   30 1   
    15    7   31 1   
    16    8    9 1   
    17    8   11 2   
    18    9   10 1   
    19    9   32 1   
    20   10   12 ar  
    21   10   16 ar  
    22   12   13 ar  
    23   13   14 ar  
    24   13   23 1   
    25   14   15 ar  
    26   14   22 1   
    27   15   16 ar  
    28   15   21 1   
    29   16   33 1   
    30   17   18 1   
    31   18   34 1   
    32   18   35 1   
    33   18   36 1   
    34   19   20 1   
    35   20   37 1   
    36   20   38 1   
    37   20   39 1   
    38   21   40 1   
    39   21   41 1   
    40   22   27 3   
    41   23   24 1   
    42   24   25 1   
    43   24   42 1   
    44   24   43 1   
    45   25   44 1   
    46   25   45 1   
    47   25   46 1   
@<TRIPOS>SUBSTRUCTURE
     1 877         1 TEMP              0 ****  ****    0 ROOT
