@<TRIPOS>MOLECULE
877
   46    47     1     0     0
SMALL
bcc


@<TRIPOS>ATOM
      1 C1          1.2890   -0.8640   -0.7270 ca        1 877     -0.139000
      2 C2          2.3250   -0.6370    0.1820 ca        1 877      0.079100
      3 C3          2.0620   -0.1170    1.4650 ca        1 877     -0.062300
      4 C4          0.7430    0.1840    1.8050 ca        1 877     -0.167000
      5 C5         -0.3010   -0.0340    0.8940 ca        1 877      0.136100
      6 C6         -0.0320   -0.5670   -0.3830 ca        1 877     -0.022900
      7 C9          3.1530    0.0910    2.4510 c3        1 877     -0.114100
      8 C10         3.7200    1.5100    2.4060 c         1 877      0.676100
      9 N13         4.2950    1.8740    1.1890 n         1 877     -0.554400
     10 C14         4.8370    3.1150    0.8220 ca        1 877      0.640200
     11 O15         3.6770    2.2290    3.4130 o         1 877     -0.541100
     12 N16         4.7370    4.1850    1.6690 nb        1 877     -0.783000
     13 C17         5.2860    5.3500    1.2590 ca        1 877      0.740600
     14 C18         5.9480    5.5460    0.0140 ca        1 877     -0.283300
     15 C19         6.0300    4.4310   -0.8690 ca        1 877      0.304600
     16 C20         5.4740    3.2000   -0.4470 ca        1 877     -0.431300
     17 O22        -1.6220    0.2350    1.1880 os        1 877     -0.311900
     18 C23        -1.8790    0.8960    2.4230 c3        1 877      0.110700
     19 O27         3.6620   -0.8640   -0.1130 os        1 877     -0.350900
     20 C28         3.9190   -1.7320   -1.2130 c3        1 877      0.113700
     21 N33         6.5980    4.5540   -2.1130 nh        1 877     -0.856200
     22 C34         6.4970    6.7990   -0.3300 cg        1 877      0.268800
     23 O36         5.2320    6.4630    2.0590 os        1 877     -0.441100
     24 C37         4.5870    6.3400    3.3450 c3        1 877      0.138400
     25 C38         4.7070    7.7070    3.9790 c3        1 877     -0.105100
     26 BR         -1.3630   -0.9020   -1.6570 br        1 877     -0.056100
     27 N1          6.9510    7.8340   -0.6100 n1        1 877     -0.394800
     28 H1          1.5100   -1.2770   -1.7240 ha        1 877      0.155000
     29 H4          0.5360    0.5970    2.8040 ha        1 877      0.156000
     30 H91         2.7690   -0.0770    3.4940 hc        1 877      0.089700
     31 H92         3.9850   -0.6420    2.2660 hc        1 877      0.089700
     32 HN13        4.2980    1.1820    0.4670 hn        1 877      0.341500
     33 H20         5.5300    2.3210   -1.1030 ha        1 877      0.143000
     34 H231       -1.6070    0.2370    3.2830 h1        1 877      0.050700
     35 H232       -2.9850    1.0680    2.3920 h1        1 877      0.050700
     36 H233       -1.3300    1.8670    2.4780 h1        1 877      0.050700
     37 H281        3.3410   -2.6830   -1.1180 h1        1 877      0.049033
     38 H282        3.6740   -1.2170   -2.1740 h1        1 877      0.049033
     39 H283        5.0190   -1.9270   -1.1400 h1        1 877      0.049033
     40 H331        6.8000    3.7330   -2.6260 hn        1 877      0.432300
     41 H332        7.1070    5.3760   -2.3280 hn        1 877      0.432300
     42 H371        5.1110    5.5570    3.9510 h1        1 877      0.060700
     43 H372        3.5150    6.0490    3.1940 h1        1 877      0.060700
     44 H381        4.2050    8.4790    3.3480 hc        1 877      0.049700
     45 H382        5.7790    7.9930    4.0960 hc        1 877      0.049700
     46 H383        4.2220    7.6810    4.9840 hc        1 877      0.049700
@<TRIPOS>BOND
     1    1    2 ar  
     2    1    6 ar  
     3    1   28 1   
     4    2    3 ar  
     5    2   19 1   
     6    3    4 ar  
     7    3    7 1   
     8    4    5 ar  
     9    4   29 1   
    10    5    6 ar  
    11    5   17 1   
    12    6   26 1   
    13    7    8 1   
    14    7   30 1   
    15    7   31 1   
    16    8    9 1   
    17    8   11 2   
    18    9   10 1   
    19    9   32 1   
    20   10   12 ar  
    21   10   16 ar  
    22   12   13 ar  
    23   13   14 ar  
    24   13   23 1   
    25   14   15 ar  
    26   14   22 1   
    27   15   16 ar  
    28   15   21 1   
    29   16   33 1   
    30   17   18 1   
    31   18   34 1   
    32   18   35 1   
    33   18   36 1   
    34   19   20 1   
    35   20   37 1   
    36   20   38 1   
    37   20   39 1   
    38   21   40 1   
    39   21   41 1   
    40   22   27 3   
    41   23   24 1   
    42   24   25 1   
    43   24   42 1   
    44   24   43 1   
    45   25   44 1   
    46   25   45 1   
    47   25   46 1   
@<TRIPOS>SUBSTRUCTURE
     1 877         1 TEMP              0 ****  ****    0 ROOT
