@<TRIPOS>MOLECULE
877
   48    49     1     0     0
SMALL
bcc


@<TRIPOS>ATOM
      1 C1          0.7710   -0.1240   -0.1820 ca        1 877     -0.121000
      2 C2          2.1070   -0.2130    0.2240 ca        1 877      0.056100
      3 C3          2.4580   -0.1350    1.5850 ca        1 877     -0.161300
      4 C4          1.4450    0.0440    2.5310 ca        1 877     -0.166000
      5 C5          0.1040    0.1360    2.1310 ca        1 877      0.160100
      6 C6         -0.2440    0.0520    0.7580 ca        1 877     -0.004900
      7 C9          3.8590   -0.3330    2.0210 c3        1 877     -0.078100
      8 C10         4.7780    0.8380    1.8060 c         1 877      0.578100
      9 N13         4.3580    1.7980    0.6840 n4        1 877     -0.687500
     10 C14         5.0800    3.0850    0.6580 ca        1 877      0.588200
     11 O15         5.8290    1.0930    2.3660 o         1 877     -0.429100
     12 N16         4.3180    4.2010    0.7870 nb        1 877     -0.712000
     13 C17         4.9490    5.4040    0.7690 ca        1 877      0.752600
     14 C18         6.3840    5.5300    0.6310 ca        1 877     -0.063300
     15 C19         7.1240    4.3480    0.5090 ca        1 877      0.064600
     16 C20         6.4840    3.0900    0.5100 ca        1 877     -0.253300
     17 O22        -0.9260    0.3420    3.0110 os        1 877     -0.291900
     18 C23        -0.6570    0.1210    4.3970 c3        1 877      0.104700
     19 O27         3.1560   -0.3290   -0.6790 os        1 877     -0.423900
     20 C28         2.8730   -1.0970   -1.8570 c3        1 877      0.118700
     21 N33         8.5830    4.4110    0.3970 n4        1 877     -0.715000
     22 C34         6.9860    6.8090    0.6250 cg        1 877      0.140800
     23 O36         4.2860    6.5690    0.8800 os        1 877     -0.395100
     24 C37         2.8300    6.5650    1.0280 c3        1 877      0.146400
     25 C38         2.4620    8.0240    1.1190 c3        1 877     -0.119100
     26 BR         -2.0040    0.1570    0.1450 br        1 877      0.023900
     27 N1          7.4360    7.8830    0.6270 n1        1 877     -0.176800
     28 H1          0.5210   -0.2110   -1.2540 ha        1 877      0.178000
     29 H4          1.7020    0.0880    3.6010 ha        1 877      0.161000
     30 H91         3.9100   -0.5800    3.1230 hc        1 877      0.141700
     31 H92         4.3160   -1.1980    1.4510 hc        1 877      0.141700
     32 HN13        4.4970    1.3110   -0.2200 hn        1 877      0.501300
     33 H20         7.0530    2.1490    0.4330 ha        1 877      0.193000
     34 H231       -0.2250   -0.8940    4.5630 h1        1 877      0.064367
     35 H232       -1.6760    0.2020    4.8600 h1        1 877      0.064367
     36 H233        0.0190    0.9180    4.7900 h1        1 877      0.064367
     37 H281        2.2970   -0.4680   -2.5790 h1        1 877      0.067367
     38 H282        3.8870   -1.3440   -2.2620 h1        1 877      0.067367
     39 H283        2.3090   -2.0260   -1.6000 h1        1 877      0.067367
     40 H331        8.9320    3.6330   -0.1800 hn        1 877      0.488800
     41 H332        8.8700    5.3040   -0.0350 hn        1 877      0.488800
     42 H371        2.3870    6.0690    0.1260 h1        1 877      0.072200
     43 H372        2.5740    6.0020    1.9610 h1        1 877      0.072200
     44 H381        2.7690    8.5730    0.1960 hc        1 877      0.080033
     45 H382        2.9500    8.5070    1.9990 hc        1 877      0.080033
     46 H383        1.3510    8.0980    1.2330 hc        1 877      0.080033
     47 H132        3.3350    1.9540    0.7790 hn        1 877      0.501300
     48 H333        9.0030    4.3480    1.3380 hn        1 877      0.488800
@<TRIPOS>BOND
     1    1    2 ar  
     2    1    6 ar  
     3    1   28 1   
     4    2    3 ar  
     5    2   19 1   
     6    3    4 ar  
     7    3    7 1   
     8    4    5 ar  
     9    4   29 1   
    10    5    6 ar  
    11    5   17 1   
    12    6   26 1   
    13    7    8 1   
    14    7   30 1   
    15    7   31 1   
    16    8    9 1   
    17    8   11 2   
    18    9   10 1   
    19    9   32 1   
    20    9   47 1   
    21   10   12 ar  
    22   10   16 ar  
    23   12   13 ar  
    24   13   14 ar  
    25   13   23 1   
    26   14   15 ar  
    27   14   22 1   
    28   15   16 ar  
    29   15   21 1   
    30   16   33 1   
    31   17   18 1   
    32   18   34 1   
    33   18   35 1   
    34   18   36 1   
    35   19   20 1   
    36   20   37 1   
    37   20   38 1   
    38   20   39 1   
    39   21   40 1   
    40   21   41 1   
    41   21   48 1   
    42   22   27 3   
    43   23   24 1   
    44   24   25 1   
    45   24   42 1   
    46   24   43 1   
    47   25   44 1   
    48   25   45 1   
    49   25   46 1   
@<TRIPOS>SUBSTRUCTURE
     1 877         1 TEMP              0 ****  ****    0 ROOT
