@<TRIPOS>MOLECULE
877
   46    42     1     0     0
SMALL
bcc


@<TRIPOS>ATOM
      1 C1         -4.0360   -1.5300   -2.3320 c1        1 877     -0.174000
      2 C2         -2.6370   -1.5520   -2.3080 c1        1 877      0.089000
      3 C3         -1.9680   -2.0080   -1.1750 c1        1 877     -0.099000
      4 C4         -2.6980   -2.4470   -0.0540 c1        1 877     -0.125000
      5 C5         -4.1050   -2.4260   -0.0770 c1        1 877      0.043000
      6 C6         -4.7730   -1.9720   -1.2040 c1        1 877     -0.134000
      7 C9         -0.4660   -2.0100   -1.1380 c3        1 877     -0.139000
      8 C10         0.0560   -0.5470   -0.8660 c2        1 877      0.322000
      9 N13         1.0620   -0.3230    0.1350 n         1 877     -0.314000
     10 C14         1.6580    0.9470    0.2670 c2        1 877      0.216000
     11 O15        -0.2890    0.3820   -1.6160 o         1 877     -0.344000
     12 N16         2.3740    0.9980    1.4550 n2        1 877     -0.303000
     13 C17         3.0240    2.1560    1.8190 c1        1 877      0.241000
     14 C18         2.9620    3.2620    1.0030 c1        1 877     -0.214000
     15 C19         2.2430    3.2080   -0.1900 c1        1 877      0.222000
     16 C20         1.5960    2.0530   -0.5490 c1        1 877     -0.327000
     17 O22        -4.8500   -2.7490    1.1190 os        1 877     -0.214000
     18 C23        -5.3350   -4.1160    1.1590 c3        1 877     -0.074000
     19 O27        -1.9120   -1.1920   -3.4480 os        1 877     -0.205000
     20 C28        -2.3480   -1.8360   -4.6310 c3        1 877     -0.079000
     21 N33         2.0550    4.3860   -0.9530 n3        1 877     -0.367000
     22 C34         3.6480    4.5380    1.4080 c1        1 877     -0.060000
     23 O36         3.5930    2.2670    3.1090 os        1 877     -0.200000
     24 C37         5.0090    2.0440    3.1420 c3        1 877     -0.010000
     25 C38         5.4790    2.0850    4.5410 c3        1 877     -0.223000
     26 BR         -6.6690   -1.7430   -1.1550 br        1 877      0.082000
     27 N1          4.1840    5.5370    1.7250 n1        1 877     -0.070000
     28 H1         -4.4870   -1.2230   -3.0950 ha        1 877      0.158000
     29 H4         -2.2370   -2.7610    0.7260 ha        1 877      0.153000
     30 H91        -0.1550   -2.6160   -0.4090 hc        1 877      0.135000
     31 H92        -0.1140   -2.3330   -2.0110 hc        1 877      0.135000
     32 HN13        1.3240   -0.9910    0.6570 hn        1 877      0.254000
     33 H20         1.0870    2.0150   -1.3920 ha        1 877      0.184000
     34 H231       -5.0980   -4.5670    0.3330 h1        1 877      0.083667
     35 H232       -6.3290   -4.1150    1.2630 h1        1 877      0.083667
     36 H233       -4.9170   -4.5960    1.9350 h1        1 877      0.083667
     37 H281       -2.5150   -2.7920   -4.4420 h1        1 877      0.090667
     38 H282       -3.1720   -1.4170   -4.9450 h1        1 877      0.090667
     39 H283       -1.6560   -1.7530   -5.3220 h1        1 877      0.090667
     40 H331        1.5360    4.3610   -1.7350 hn        1 877      0.233500
     41 H332        2.4520    5.1850   -0.6810 hn        1 877      0.233500
     42 H371        5.4690    2.7540    2.6170 h1        1 877      0.092000
     43 H372        5.2070    1.1810    2.7620 h1        1 877      0.092000
     44 H381        4.7310    1.8720    5.1440 hc        1 877      0.089667
     45 H382        5.8120    2.9620    4.7410 hc        1 877      0.089667
     46 H383        6.2040    1.4190    4.6680 hc        1 877      0.089667
@<TRIPOS>BOND
     1    1    6 1   
     2    1   28 1   
     3    2    3 1   
     4    2   19 1   
     5    3    7 1   
     6    4    5 1   
     7    4   29 1   
     8    5   17 1   
     9    6   26 1   
    10    7    8 1   
    11    7   30 1   
    12    7   31 1   
    13    8    9 1   
    14    8   11 1   
    15    9   10 1   
    16    9   32 1   
    17   10   12 1   
    18   10   16 1   
    19   12   13 1   
    20   13   23 1   
    21   14   15 1   
    22   14   22 1   
    23   15   21 1   
    24   16   33 1   
    25   17   18 1   
    26   18   34 1   
    27   18   35 1   
    28   18   36 1   
    29   19   20 1   
    30   20   37 1   
    31   20   38 1   
    32   20   39 1   
    33   21   40 1   
    34   21   41 1   
    35   22   27 1   
    36   23   24 1   
    37   24   25 1   
    38   24   42 1   
    39   24   43 1   
    40   25   44 1   
    41   25   45 1   
    42   25   46 1   
@<TRIPOS>SUBSTRUCTURE
     1 877         1 TEMP              0 ****  ****    0 ROOT
