@<TRIPOS>MOLECULE
878
   20    20     1     0     0
SMALL
bcc


@<TRIPOS>ATOM
      1 C1         -0.0970   -0.0650    0.0410 ca        1 878     -0.094000
      2 C2          1.2800    0.0800   -0.0080 ca        1 878     -0.220000
      3 C3          2.0630    0.1620    1.1770 ca        1 878      0.149600
      4 C4          1.3720    0.0910    2.4270 ca        1 878     -0.199600
      5 C5         -0.0150   -0.0450    2.4410 ca        1 878     -0.051000
      6 C6         -0.7580   -0.1290    1.2650 ca        1 878     -0.049100
      7 C10         2.0450    0.1500    3.7910 c         1 878      0.913200
      8 O11         3.2550   -0.1940    3.9140 o         1 878     -0.839300
      9 O12         1.3360    0.5180    4.7740 o         1 878     -0.839300
     10 N13         3.4440    0.2990    1.1330 n         1 878     -0.455100
     11 C14         4.2530    0.5230    0.0180 c         1 878      0.550100
     12 O15         3.7910    0.6630   -1.1340 o         1 878     -0.671100
     13 C16         5.7970    0.5960    0.2630 c         1 878      0.891600
     14 O17         6.4340   -0.4800    0.1400 o         1 878     -0.807300
     15 O18         6.2750    1.7290    0.5140 o         1 878     -0.807300
     16 I19        -2.7740   -0.3390    1.3210 i         1 878     -0.263900
     17 H1         -0.6600   -0.1290   -0.9020 ha        1 878      0.103000
     18 H2          1.7690    0.1300   -0.9940 ha        1 878      0.163000
     19 H5         -0.5070   -0.0700    3.4300 ha        1 878      0.153000
     20 H13         3.9120    0.2300    2.0250 hn        1 878      0.373500
@<TRIPOS>BOND
     1    1    2 ar  
     2    1    6 ar  
     3    1   17 1   
     4    2    3 ar  
     5    2   18 1   
     6    3    4 ar  
     7    3   10 1   
     8    4    5 ar  
     9    4    7 1   
    10    5    6 ar  
    11    5   19 1   
    12    6   16 1   
    13    7    8 1   
    14    7    9 1   
    15   10   11 1   
    16   10   20 1   
    17   11   12 2   
    18   11   13 1   
    19   13   14 1   
    20   13   15 1   
@<TRIPOS>SUBSTRUCTURE
     1 878         1 TEMP              0 ****  ****    0 ROOT
