@<TRIPOS>MOLECULE
878
   20    17     1     0     0
SMALL
bcc


@<TRIPOS>ATOM
      1 C1         -2.1210    0.2670   -1.5020 c1        1 878     -0.036500
      2 C2         -0.7350    0.2540   -1.4770 c1        1 878     -0.162500
      3 C3         -0.0640    0.2920   -0.2640 c1        1 878      0.163200
      4 C4         -0.7780    0.3410    0.9220 cg        1 878     -0.148200
      5 C5         -2.1640    0.3540    0.8970 c1        1 878      0.006500
      6 C6         -2.8350    0.3170   -0.3150 c1        1 878     -0.046400
      7 C10        -0.0450    0.4090    2.2460 c         1 878      0.861800
      8 O11         0.2270    1.5260    2.7590 o         1 878     -0.839300
      9 O12         0.2760   -0.6530    2.8430 o         1 878     -0.839300
     10 N13         1.3540    0.2880   -0.2380 n         1 878     -0.468700
     11 C14         2.0640   -0.9230   -0.4430 c         1 878      0.550100
     12 O15         1.4570   -1.9570   -0.6410 o         1 878     -0.671100
     13 C16         3.5770   -0.9180   -0.4650 c         1 878      0.891600
     14 O17         4.2230   -1.2600    0.5600 o         1 878     -0.807300
     15 O18         4.1910   -0.5910   -1.5150 o         1 878     -0.807300
     16 I19        -4.9420    0.3210   -0.3540 i         1 878     -0.266600
     17 H1         -2.5930    0.2620   -2.3570 ha        1 878      0.045500
     18 H2         -0.2310    0.2350   -2.3130 ha        1 878      0.105500
     19 H5         -2.6680    0.3770    1.7330 ha        1 878      0.095500
     20 H13         1.8090    1.0610   -0.0740 hn        1 878      0.373500
@<TRIPOS>BOND
     1    1    6 3   
     2    1   17 1   
     3    2    3 3   
     4    2   18 1   
     5    3   10 1   
     6    4    5 3   
     7    4    7 1   
     8    5   19 1   
     9    6   16 1   
    10    7    8 1   
    11    7    9 1   
    12   10   11 1   
    13   10   20 1   
    14   11   12 2   
    15   11   13 1   
    16   13   14 1   
    17   13   15 1   
@<TRIPOS>SUBSTRUCTURE
     1 878         1 TEMP              0 ****  ****    0 ROOT
