@<TRIPOS>MOLECULE
878
   21    21     1     0     0
SMALL
bcc


@<TRIPOS>ATOM
      1 C1          0.3290   -0.3750   -0.0510 ca        1 878     -0.110000
      2 C2          1.6950   -0.1970    0.1270 ca        1 878     -0.132000
      3 C3          2.2030    0.0670    1.4150 ca        1 878      0.028600
      4 C4          1.3440    0.1250    2.5270 ca        1 878     -0.121600
      5 C5         -0.0320   -0.0530    2.3140 ca        1 878     -0.070000
      6 C6         -0.5370   -0.2960    1.0430 ca        1 878      0.027900
      7 C10         1.8080    0.3430    3.9660 c         1 878      0.913200
      8 O11         0.9270    0.4700    4.8500 o         1 878     -0.802800
      9 O12         3.0570    0.3680    4.2020 o         1 878     -0.802800
     10 N13         3.6430    0.2590    1.5700 n4        1 878     -0.577200
     11 C14         4.2500    1.1870    0.5300 c         1 878      0.396100
     12 O15         3.9950    2.3750    0.6240 o         1 878     -0.476100
     13 C16         5.1590    0.4380   -0.5460 c         1 878      0.904600
     14 O17         6.2860    0.9350   -0.6930 o         1 878     -0.729300
     15 O18         4.6060   -0.5490   -1.0710 o         1 878     -0.729300
     16 I19        -2.5260   -0.5460    0.7620 i         1 878     -0.173900
     17 H1         -0.0570   -0.5790   -1.0620 ha        1 878      0.140000
     18 H2          2.3840   -0.2770   -0.7370 ha        1 878      0.184000
     19 H5         -0.6870    0.0100    3.2030 ha        1 878      0.183000
     20 H13         4.0900   -0.6550    1.4580 hn        1 878      0.472300
     21 H132        3.8250    0.6080    2.5450 hn        1 878      0.472300
@<TRIPOS>BOND
     1    1    2 ar  
     2    1    6 ar  
     3    1   17 1   
     4    2    3 ar  
     5    2   18 1   
     6    3    4 ar  
     7    3   10 1   
     8    4    5 ar  
     9    4    7 1   
    10    5    6 ar  
    11    5   19 1   
    12    6   16 1   
    13    7    8 1   
    14    7    9 1   
    15   10   11 1   
    16   10   20 1   
    17   10   21 1   
    18   11   12 2   
    19   11   13 1   
    20   13   14 1   
    21   13   15 1   
@<TRIPOS>SUBSTRUCTURE
     1 878         1 TEMP              0 ****  ****    0 ROOT
