@<TRIPOS>MOLECULE
878
   20    20     1     0     0
SMALL
bcc


@<TRIPOS>ATOM
      1 C1          1.3120   -0.3510   -0.7290 ca        1 878     -0.094000
      2 C2          1.2800   -0.3230    0.6560 ca        1 878     -0.220000
      3 C3          0.0610   -0.1480    1.3690 ca        1 878      0.149600
      4 C4         -1.1350   -0.0000    0.5990 ca        1 878     -0.199600
      5 C5         -1.0660   -0.0240   -0.7930 ca        1 878     -0.051000
      6 C6          0.1410   -0.2030   -1.4660 ca        1 878     -0.049100
      7 C10        -2.5250    0.1840    1.1900 c         1 878      0.913200
      8 O11        -2.7770   -0.2350    2.3560 o         1 878     -0.839300
      9 O12        -3.4010    0.7330    0.4570 o         1 878     -0.839300
     10 N13         0.0230   -0.1250    2.7570 n         1 878     -0.455100
     11 C14         1.0960   -0.1130    3.6490 c         1 878      0.550100
     12 O15         2.2870   -0.0870    3.2720 o         1 878     -0.671100
     13 C16         0.7520   -0.1310    5.1750 c         1 878      0.891600
     14 O17         0.6950   -1.2590    5.7230 o         1 878     -0.807300
     15 O18         0.6100    0.9850    5.7340 o         1 878     -0.807300
     16 I19         0.2040   -0.2460   -3.4930 i         1 878     -0.263900
     17 H1          2.2780   -0.4940   -1.2360 ha        1 878      0.103000
     18 H2          2.2270   -0.4400    1.2060 ha        1 878      0.163000
     19 H5         -2.0120    0.1190   -1.3450 ha        1 878      0.153000
     20 H13        -0.9020   -0.1150    3.1620 hn        1 878      0.373500
@<TRIPOS>BOND
     1    1    2 ar  
     2    1    6 ar  
     3    1   17 1   
     4    2    3 ar  
     5    2   18 1   
     6    3    4 ar  
     7    3   10 1   
     8    4    5 ar  
     9    4    7 1   
    10    5    6 ar  
    11    5   19 1   
    12    6   16 1   
    13    7    8 1   
    14    7    9 1   
    15   10   11 1   
    16   10   20 1   
    17   11   12 2   
    18   11   13 1   
    19   13   14 1   
    20   13   15 1   
@<TRIPOS>SUBSTRUCTURE
     1 878         1 TEMP              0 ****  ****    0 ROOT
