@<TRIPOS>MOLECULE
879
   54    55     1     0     0
SMALL
bcc


@<TRIPOS>ATOM
      1 C1         -0.0820    2.1430    0.5540 c3        1 879     -0.004000
      2 N1         -6.9940   -1.5250   10.7830 n2        1 879     -0.320000
      3 O1         -5.6460   -2.2880    7.4390 os        1 879     -0.257000
      4 CL1         2.6570   -0.6720    2.5250 cl        1 879     -0.048000
      5 C2          0.8730    1.2370   -0.0430 c1        1 879     -0.145000
      6 N2         -6.0580   -6.2560   11.1000 n2        1 879     -0.338000
      7 C3         -5.1620   -1.1830    1.1550 c3        1 879     -0.248000
      8 N3         -3.9800   -1.9490    3.6550 n2        1 879      0.018000
      9 C4         -0.4300    1.4170    1.8540 c2        1 879     -0.131000
     10 N4         -1.0440   -1.5070    3.7220 na        1 879     -0.132000
     11 C5         -2.9660   -2.6490    6.5180 c2        1 879     -0.148000
     12 N5         -6.1230   -1.7680    4.7510 n4        1 879     -0.002000
     13 C6         -1.4480   -4.2010    5.3350 c2        1 879     -0.473000
     14 C7         -3.7200   -3.6530    7.2240 c2        1 879     -0.142000
     15 C8         -0.3970   -4.5300    4.6050 c1        1 879      0.260000
     16 C9          1.3550    0.1910    0.3520 c1        1 879     -0.188000
     17 C10        -0.5760   -0.7130    5.8110 c2        1 879     -0.149000
     18 C11        -0.0020    0.1820    4.8530 c2        1 879     -0.146000
     19 C12        -3.7250   -1.4720    1.2950 c2        1 879     -0.060000
     20 C13        -5.9870   -1.2830    2.3430 c1        1 879     -0.044000
     21 C14        -6.3060   -2.1320    9.7700 c2        1 879     -0.029000
     22 C15        -5.8950   -5.4550   10.2570 c1        1 879      0.052000
     23 C16        -7.5740   -1.0230   11.6880 c1        1 879      0.185000
     24 C17        -1.9290   -2.8790    5.6790 c2        1 879      0.078000
     25 C18         0.0980    0.2490    2.2960 c2        1 879     -0.087000
     26 C19        -4.9600   -3.4740    7.7170 c2        1 879     -0.076000
     27 C20        -6.3400   -1.7030    8.4880 c2        1 879     -0.072000
     28 C21         1.1930   -0.5740    1.5640 c3        1 879      0.110000
     29 C22        -1.2230   -1.7370    5.1020 c2        1 879     -0.072000
     30 C23        -0.3130   -0.3080    3.5760 c2        1 879     -0.049000
     31 C24        -3.2020   -1.8420    2.5140 c2        1 879     -0.113000
     32 C25        -5.2740   -1.6740    3.5440 c2        1 879     -0.174000
     33 H1         -1.0040    2.2930   -0.0660 hc        1 879      0.127000
     34 H2          0.3630    3.1480    0.7800 hc        1 879      0.127000
     35 H3         -5.3160   -0.1390    0.7210 hc        1 879      0.228500
     36 H4         -1.1860    1.9460    2.4550 ha        1 879      0.144000
     37 H5         -3.2700   -1.6030    6.7140 ha        1 879      0.135000
     38 HN5        -5.7980   -1.1170    5.4800 hn        1 879      0.272667
     39 HN5A       -7.0830   -1.5340    4.4650 hn        1 879      0.272667
     40 H6         -2.0170   -5.0570    5.7660 ha        1 879      0.197000
     41 H7         -3.2450   -4.6380    7.3830 ha        1 879      0.152000
     42 H8         -5.5180   -4.2190    8.3140 h4        1 879      0.193000
     43 H9          0.8610   -1.6300    1.3990 h1        1 879      0.128000
     44 H10         0.5960    1.0640    5.0710 ha        1 879      0.174000
     45 H11        -0.4980   -0.6340    6.8930 ha        1 879      0.170000
     46 H12        -3.0860   -1.3850    0.4000 ha        1 879      0.183000
     47 H13        -5.6280   -1.8600    0.3620 hc        1 879      0.228500
     48 H14        -5.7210   -3.0260   10.0830 h4        1 879      0.184000
     49 H15        -6.8890   -0.8310    8.1000 h4        1 879      0.164000
     50 H16        -6.1930   -6.9150   11.8000 hn        1 879      0.293000
     51 H26        -1.6460   -3.3010    2.8480 h1        1 879      0.133000
     52 H26A       -1.2130   -1.9400    1.6890 h1        1 879      0.133000
     53 H53        -6.0910   -2.7140    5.1540 hn        1 879      0.272667
     54 C26        -1.7240   -2.1850    2.6650 c3        1 879      0.031000
@<TRIPOS>BOND
     1    1    5 1   
     2    1    9 1   
     3    1   33 1   
     4    1   34 1   
     5    2   21 1   
     6    2   23 1   
     7    3   26 1   
     8    3   27 1   
     9    4   28 1   
    10    5   16 1   
    11    6   22 1   
    12    6   50 1   
    13    7   19 1   
    14    7   20 1   
    15    7   35 1   
    16    7   47 1   
    17    8   31 1   
    18    8   32 1   
    19    9   25 1   
    20    9   36 1   
    21   10   29 1   
    22   10   30 1   
    23   10   54 1   
    24   11   14 1   
    25   11   24 1   
    26   11   37 1   
    27   12   32 1   
    28   12   38 1   
    29   12   39 1   
    30   12   53 1   
    31   13   15 1   
    32   13   24 1   
    33   13   40 1   
    34   14   26 1   
    35   14   41 1   
    36   16   28 1   
    37   17   18 1   
    38   17   29 1   
    39   17   45 1   
    40   18   30 1   
    41   18   44 1   
    42   19   31 1   
    43   19   46 1   
    44   20   32 1   
    45   21   27 1   
    46   21   48 1   
    47   24   29 1   
    48   25   28 1   
    49   25   30 1   
    50   26   42 1   
    51   27   49 1   
    52   28   43 1   
    53   31   54 1   
    54   51   54 1   
    55   52   54 1   
@<TRIPOS>SUBSTRUCTURE
     1 879         1 TEMP              0 ****  ****    0 ROOT
