@<TRIPOS>MOLECULE
879
   53    54     1     0     0
SMALL
bcc


@<TRIPOS>ATOM
      1 C1         -0.0190    1.6690   -0.0210 c3        1 879     -0.001000
      2 N1         -5.6680   -2.6230   11.4650 n2        1 879     -0.271000
      3 O1         -4.6280   -4.7080    8.6200 os        1 879     -0.159000
      4 Cl1         2.6470   -0.7790    2.5090 cl        1 879     -0.070000
      5 C2          0.9710    0.6900   -0.4110 c1        1 879     -0.157000
      6 N2         -8.3920   -4.1600   12.0120 n2        1 879     -0.375000
      7 C3         -5.0290   -0.2350    1.5890 c3        1 879     -0.218000
      8 N3         -4.2540   -2.7120    2.8600 n2        1 879     -0.200000
      9 C4         -0.4080    1.1820    1.3740 c2        1 879     -0.142000
     10 N4         -1.1970   -1.3040    3.6740 na        1 879     -0.103000
     11 C5         -3.0550   -1.8370    6.7610 c2        1 879     -0.108000
     12 N5         -6.5180   -3.3980    2.8630 n8        1 879     -0.325000
     13 C6         -2.1070   -3.6790    5.4140 c2        1 879     -0.463000
     14 C7         -3.9210   -2.6230    7.6030 c2        1 879     -0.205000
     15 C8         -1.0350   -4.4400    5.3960 c1        1 879      0.212000
     16 C9          1.4380   -0.2680    0.1780 c1        1 879     -0.190000
     17 C10        -0.6800   -0.2530    5.6330 c2        1 879     -0.180000
     18 C11        -0.0180    0.4340    4.5740 c2        1 879     -0.156000
     19 C12        -3.6200   -0.5920    1.8380 c2        1 879     -0.220000
     20 C13        -6.0390   -1.1840    2.0150 c1        1 879     -0.043000
     21 C14        -4.9590   -3.1060   10.3970 c2        1 879     -0.113000
     22 C15        -8.3580   -4.9290   11.1220 c1        1 879      0.086000
     23 C16        -6.2640   -2.1970   12.3920 c1        1 879      0.095000
     24 C17        -2.2280   -2.2790    5.7860 c2        1 879      0.044000
     25 C18         0.1060    0.1170    2.0350 c2        1 879     -0.062000
     26 C19        -3.7530   -3.9260    7.8870 c2        1 879     -0.022000
     27 C20        -5.3630   -4.1580    9.6460 c2        1 879     -0.013000
     28 C21         1.2150   -0.8220    1.4910 c3        1 879      0.112000
     29 C22        -1.4080   -1.3170    5.0610 c2        1 879     -0.046000
     30 C23        -0.3560   -0.2180    3.3740 c2        1 879     -0.071000
     31 C24        -3.3120   -1.7690    2.4510 c2        1 879     -0.046000
     32 C25        -5.5410   -2.4490    2.6090 c2        1 879      0.039000
     33 H1         -0.9180    1.6780   -0.6910 hc        1 879      0.120500
     34 H2          0.3990    2.7080    0.0330 hc        1 879      0.120500
     35 H3         -5.2050   -0.0560    0.4830 hc        1 879      0.177500
     36 H4         -1.1920    1.7970    1.8440 ha        1 879      0.147000
     37 H5         -3.1090   -0.7470    6.9460 ha        1 879      0.139000
     38 HN5        -6.3010   -4.1750    3.4400 hn        1 879      0.223500
     39 HN5A       -7.4500   -3.0570    2.8830 hn        1 879      0.223500
     40 H6         -3.0700   -4.1490    5.0970 ha        1 879      0.216000
     41 H7         -4.7710   -2.0670    8.0400 ha        1 879      0.140000
     42 H8         -2.9410   -4.5750    7.5130 h4        1 879      0.177000
     43 H9          0.8680   -1.8870    1.4900 h1        1 879      0.138000
     44 H10         0.6450    1.2890    4.6690 ha        1 879      0.160000
     45 H11        -0.6240   -0.0200    6.6930 ha        1 879      0.156000
     46 H12        -2.8410    0.1160    1.5250 ha        1 879      0.143000
     47 H13        -5.2760    0.7530    2.0900 hc        1 879      0.177500
     48 H14        -4.0170   -2.5600   10.1870 h4        1 879      0.165000
     49 H15        -6.2720   -4.7710    9.8050 h4        1 879      0.195000
     50 H16        -8.3970   -3.5160   12.7400 hn        1 879      0.289000
     51 H26        -1.7720   -3.2050    3.0460 h1        1 879      0.121000
     52 H26A       -1.3090   -2.0280    1.7200 h1        1 879      0.121000
     53 C26        -1.8560   -2.1320    2.7020 c3        1 879      0.020000
@<TRIPOS>BOND
     1    1    5 1   
     2    1    9 1   
     3    1   33 1   
     4    1   34 1   
     5    2   21 1   
     6    2   23 1   
     7    3   26 1   
     8    3   27 1   
     9    4   28 1   
    10    5   16 1   
    11    6   22 1   
    12    6   50 1   
    13    7   19 1   
    14    7   20 1   
    15    7   35 1   
    16    7   47 1   
    17    8   31 1   
    18    8   32 1   
    19    9   25 1   
    20    9   36 1   
    21   10   29 1   
    22   10   30 1   
    23   10   53 1   
    24   11   14 1   
    25   11   24 1   
    26   11   37 1   
    27   12   32 1   
    28   12   38 1   
    29   12   39 1   
    30   13   15 1   
    31   13   24 1   
    32   13   40 1   
    33   14   26 1   
    34   14   41 1   
    35   16   28 1   
    36   17   18 1   
    37   17   29 1   
    38   17   45 1   
    39   18   30 1   
    40   18   44 1   
    41   19   31 1   
    42   19   46 1   
    43   20   32 1   
    44   21   27 1   
    45   21   48 1   
    46   24   29 1   
    47   25   28 1   
    48   25   30 1   
    49   26   42 1   
    50   27   49 1   
    51   28   43 1   
    52   31   53 1   
    53   51   53 1   
    54   52   53 1   
@<TRIPOS>SUBSTRUCTURE
     1 879         1 TEMP              0 ****  ****    0 ROOT
