@<TRIPOS>MOLECULE
879
   53    54     1     0     0
SMALL
bcc


@<TRIPOS>ATOM
      1 C1          0.7080    1.3930    0.7260 c3        1 879     -0.001000
      2 N1         -4.3170   -4.6330   11.5070 n2        1 879     -0.263000
      3 O1         -4.9750   -3.5220    8.1290 os        1 879     -0.162000
      4 CL1         2.2500   -1.2590    3.8970 cl        1 879     -0.073000
      5 C2          1.6610    0.3090    0.6300 c1        1 879     -0.160000
      6 N2         -4.6640   -5.9900   15.5770 n2        1 879     -0.387000
      7 C3         -4.0070   -0.8630   -0.5190 c3        1 879     -0.217000
      8 N3         -4.2270   -0.5620    2.3450 n2        1 879     -0.178000
      9 C4         -0.1220    0.9740    1.9380 c2        1 879     -0.134000
     10 N4         -1.8290   -1.3590    3.8510 na        1 879     -0.103000
     11 C5         -4.7230   -1.6250    5.8870 c2        1 879     -0.107000
     12 N5         -6.1840    0.7340    2.0440 n3        1 879     -0.322000
     13 C6         -3.3050   -3.6170    5.5660 c2        1 879     -0.442000
     14 C7         -5.9220   -2.2950    6.3370 c2        1 879     -0.148000
     15 C8         -2.2870   -4.3110    5.1080 c1        1 879      0.198000
     16 C9          1.8320   -0.6810    1.3180 c1        1 879     -0.193000
     17 C10        -1.7930   -0.3640    5.9040 c2        1 879     -0.176000
     18 C11        -0.7640    0.2240    5.1060 c2        1 879     -0.158000
     19 C12        -3.0870   -1.5300    0.4200 c2        1 879     -0.230000
     20 C13        -5.0340   -0.0100    0.0480 c1        1 879     -0.048000
     21 C14        -4.2070   -4.2000   10.2130 c2        1 879     -0.066000
     22 C15        -4.8280   -6.3610   16.6820 c1        1 879      0.078000
     23 C16        -4.3770   -5.0060   12.6260 c1        1 879      0.092000
     24 C17        -3.5500   -2.1880    5.5290 c2        1 879      0.056000
     25 C18         0.0620   -0.1250    2.7070 c2        1 879     -0.063000
     26 C19        -6.0810   -3.1260    7.3780 c2        1 879     -0.055000
     27 C20        -5.2740   -3.9250    9.4220 c2        1 879     -0.029000
     28 C21         1.1790   -1.1810    2.5040 c3        1 879      0.114000
     29 C22        -2.4450   -1.3260    5.1120 c2        1 879     -0.044000
     30 C23        -0.8100   -0.3900    3.8430 c2        1 879     -0.063000
     31 C24        -3.2350   -1.3500    1.7640 c2        1 879     -0.047000
     32 C25        -5.0970    0.0400    1.5270 c2        1 879      0.028000
     33 H1          0.0510    1.4840   -0.1780 hc        1 879      0.119500
     34 H2          1.1980    2.3840    0.9140 hc        1 879      0.119500
     35 H3         -4.5510   -1.6320   -1.1530 hc        1 879      0.178000
     36 H4         -0.9470    1.6710    2.1600 ha        1 879      0.151000
     37 H5         -4.8350   -0.5270    5.7950 ha        1 879      0.147000
     38 HN5        -6.1620    1.0060    2.9980 hn        1 879      0.219000
     39 HN5A       -6.6220    1.3590    1.4080 hn        1 879      0.219000
     40 H6         -4.0980   -4.2090    6.0850 ha        1 879      0.207000
     41 H7         -6.8240   -2.0510    5.7420 ha        1 879      0.147000
     42 H8         -7.0490   -3.5560    7.6780 h4        1 879      0.142000
     43 H9          0.7430   -2.2060    2.3930 h1        1 879      0.136000
     44 H10        -0.0570    0.9860    5.4200 ha        1 879      0.158000
     45 H11        -2.0210   -0.1310    6.9400 ha        1 879      0.156000
     46 H12        -2.2950   -2.1630   -0.0010 ha        1 879      0.144000
     47 H13        -3.4230   -0.2350   -1.2600 hc        1 879      0.178000
     48 H14        -3.1670   -4.0900    9.8440 h4        1 879      0.176000
     49 H15        -6.3320   -3.9960    9.7070 h4        1 879      0.153000
     50 H16        -4.5280   -5.6840   14.6600 hn        1 879      0.298000
     51 H26        -2.8400   -3.0070    3.0770 h1        1 879      0.114500
     52 H26A       -1.3940   -2.4130    2.1130 h1        1 879      0.114500
     53 C26        -2.2970   -2.0850    2.7080 c3        1 879      0.027000
@<TRIPOS>BOND
     1    1    5 1   
     2    1    9 1   
     3    1   33 1   
     4    1   34 1   
     5    2   21 1   
     6    2   23 1   
     7    3   26 1   
     8    3   27 1   
     9    4   28 1   
    10    5   16 1   
    11    6   22 1   
    12    6   50 1   
    13    7   19 1   
    14    7   20 1   
    15    7   35 1   
    16    7   47 1   
    17    8   31 1   
    18    8   32 1   
    19    9   25 1   
    20    9   36 1   
    21   10   29 1   
    22   10   30 1   
    23   10   53 1   
    24   11   14 1   
    25   11   24 1   
    26   11   37 1   
    27   12   32 1   
    28   12   38 1   
    29   12   39 1   
    30   13   15 1   
    31   13   24 1   
    32   13   40 1   
    33   14   26 1   
    34   14   41 1   
    35   16   28 1   
    36   17   18 1   
    37   17   29 1   
    38   17   45 1   
    39   18   30 1   
    40   18   44 1   
    41   19   31 1   
    42   19   46 1   
    43   20   32 1   
    44   21   27 1   
    45   21   48 1   
    46   24   29 1   
    47   25   28 1   
    48   25   30 1   
    49   26   42 1   
    50   27   49 1   
    51   28   43 1   
    52   31   53 1   
    53   51   53 1   
    54   52   53 1   
@<TRIPOS>SUBSTRUCTURE
     1 879         1 TEMP              0 ****  ****    0 ROOT
