@<TRIPOS>MOLECULE
879
   53    57     1     0     0
SMALL
bcc


@<TRIPOS>ATOM
      1 C1         -6.1540    0.3260   -0.4790 ca        1 879     -0.134000
      2 N1          6.6730   -2.6990    0.9060 nb        1 879     -0.669000
      3 O1          5.0420    0.4750   -0.0540 os        1 879     -0.231200
      4 CL1        -3.3530   -2.4970    1.6070 cl        1 879     -0.091400
      5 C2         -6.5780   -0.3980    0.6350 ca        1 879     -0.116000
      6 N2          7.9020   -0.7890    1.7830 nb        1 879     -0.669000
      7 C3         -0.9920    4.1400    1.5670 ca        1 879     -0.055000
      8 N3         -1.8740    2.4410   -0.5050 nb        1 879     -0.707000
      9 C4         -4.8520    0.1790   -0.9530 ca        1 879     -0.090000
     10 N4         -1.4440   -0.4100   -0.2440 na        1 879     -0.026100
     11 C5          1.8030    0.2710   -1.7200 ca        1 879     -0.098000
     12 N5         -2.4690    4.3460   -1.8200 nh        1 879     -0.923500
     13 C6          1.6280   -0.8840    0.4050 ca        1 879     -0.098000
     14 C7          3.1500    0.5270   -1.4810 ca        1 879     -0.151000
     15 C8          2.9720   -0.6280    0.6630 ca        1 879     -0.151000
     16 C9         -5.7020   -1.2700    1.2780 ca        1 879     -0.132000
     17 C10        -0.8510   -1.4060   -2.2100 cc        1 879     -0.172000
     18 C11        -2.2710   -1.4890   -2.0770 cc        1 879     -0.174000
     19 C12        -0.9680    2.7560    1.7290 ca        1 879     -0.291300
     20 C13        -1.4550    4.6860    0.3770 ca        1 879     -0.298300
     21 C14         5.7610   -1.8610    0.3760 ca        1 879      0.396700
     22 C15         6.9860    0.0410    1.2540 ca        1 879      0.396700
     23 C16         7.7000   -2.1210    1.5840 ca        1 879      0.602900
     24 C17         1.0330   -0.4340   -0.7820 ca        1 879     -0.017000
     25 C18        -3.9570   -0.6950   -0.3200 ca        1 879     -0.014000
     26 C19         3.7230    0.0790   -0.2820 ca        1 879      0.088100
     27 C20         5.8750   -0.4600    0.5250 ca        1 879     -0.123500
     28 C21        -4.3940   -1.4170    0.8030 ca        1 879      0.024400
     29 C22        -0.3590   -0.7260   -1.0810 cd        1 879     -0.074300
     30 C23        -2.6190   -0.8560   -0.8710 cd        1 879     -0.054300
     31 C24        -1.4200    1.9490    0.6630 ca        1 879      0.423600
     32 C25        -1.9070    3.8060   -0.6530 ca        1 879      0.631200
     33 H1         -6.8450    1.0160   -0.9830 ha        1 879      0.138000
     34 H2         -7.6060   -0.2830    1.0100 ha        1 879      0.137000
     35 H3         -0.6440    4.7990    2.3770 ha        1 879      0.138000
     36 H4         -4.5100    0.7560   -1.8260 ha        1 879      0.152000
     37 H5          1.3350    0.6200   -2.6530 ha        1 879      0.146500
     38 HN5        -2.5910    3.7120   -2.5790 hn        1 879      0.403300
     39 HN5A       -2.0740    5.2210   -2.0840 hn        1 879      0.403300
     40 H6          1.0340   -1.4580    1.1330 ha        1 879      0.146500
     41 H7          3.7610    1.0830   -2.2070 ha        1 879      0.150000
     42 H8          3.4420   -0.9790    1.5930 ha        1 879      0.150000
     43 H9         -6.0380   -1.8430    2.1550 ha        1 879      0.147000
     44 H10        -0.2530   -1.8090   -3.0210 ha        1 879      0.153000
     45 H11        -2.9590   -1.9680   -2.7670 ha        1 879      0.155000
     46 H12        -0.6050    2.3010    2.6580 ha        1 879      0.143000
     47 H13        -1.4830    5.7740    0.2330 ha        1 879      0.143000
     48 H14         4.9160   -2.3140   -0.1740 h4        1 879      0.044600
     49 H15         7.1320    1.1260    1.3940 h4        1 879      0.044600
     50 H16         8.4550   -2.8070    2.0210 h5        1 879      0.059100
     51 H26        -2.2830    0.2020    1.5580 h1        1 879      0.079700
     52 H26A       -0.4460    0.2140    1.4690 h1        1 879      0.079700
     53 C26        -1.3950    0.4470    0.9020 c3        1 879     -0.015000
@<TRIPOS>BOND
     1    1    5 ar  
     2    1    9 ar  
     3    1   33 1   
     4    2   21 ar  
     5    2   23 ar  
     6    3   26 1   
     7    3   27 1   
     8    4   28 1   
     9    5   16 ar  
    10    5   34 1   
    11    6   22 ar  
    12    6   23 ar  
    13    7   19 ar  
    14    7   20 ar  
    15    7   35 1   
    16    8   31 ar  
    17    8   32 ar  
    18    9   25 ar  
    19    9   36 1   
    20   10   29 1   
    21   10   30 1   
    22   10   53 1   
    23   11   14 ar  
    24   11   24 ar  
    25   11   37 1   
    26   12   32 1   
    27   12   38 1   
    28   12   39 1   
    29   13   15 ar  
    30   13   24 ar  
    31   13   40 1   
    32   14   26 ar  
    33   14   41 1   
    34   15   26 ar  
    35   15   42 1   
    36   16   28 ar  
    37   16   43 1   
    38   17   18 1   
    39   17   29 2   
    40   17   44 1   
    41   18   30 2   
    42   18   45 1   
    43   19   31 ar  
    44   19   46 1   
    45   20   32 ar  
    46   20   47 1   
    47   21   27 ar  
    48   21   48 1   
    49   22   27 ar  
    50   22   49 1   
    51   23   50 1   
    52   24   29 1   
    53   25   28 ar  
    54   25   30 1   
    55   31   53 1   
    56   51   53 1   
    57   52   53 1   
@<TRIPOS>SUBSTRUCTURE
     1 879         1 TEMP              0 ****  ****    0 ROOT
