@<TRIPOS>MOLECULE
879
   53    40     1     0     0
SMALL
bcc


@<TRIPOS>ATOM
      1 C1          2.2300    0.1480   -6.0140 c1        1 879     -0.122750
      2 N1         -1.0780   -4.9240    6.3760 n1        1 879     -0.147000
      3 O1         -1.4400   -3.3640    2.9920 os        1 879     -0.144000
      4 CL1         4.8840    1.1010   -2.6270 cl        1 879     -0.006000
      5 C2          3.5920    0.4810   -6.0000 c1        1 879     -0.122750
      6 N2         -3.2420   -4.5830    5.4610 n1        1 879     -0.147000
      7 C3         -2.7530    3.7020   -1.2890 c1        1 879     -0.122750
      8 N3         -0.6030    3.3850    0.4310 n1        1 879     -0.197000
      9 C4          1.4980    0.1600   -4.8260 c1        1 879     -0.122750
     10 N4          0.8120    0.8720   -1.2180 n2        1 879     -0.102000
     11 C5          0.6020   -0.3440    2.0050 c1        1 879     -0.106000
     12 N5         -1.7800    4.6880    2.1070 n3        1 879     -0.329000
     13 C6         -1.1880   -1.1940    0.5930 c1        1 879     -0.122750
     14 C7          0.2900   -1.2630    2.9610 c1        1 879     -0.094500
     15 C8         -1.5020   -2.1250    1.5640 c1        1 879     -0.122750
     16 C9          4.2150    0.8260   -4.7970 c1        1 879     -0.122750
     17 C10         1.3580   -1.2810   -0.9560 c1        1 879     -0.172000
     18 C11         1.9390   -0.8280   -2.1300 c1        1 879     -0.172000
     19 C12        -1.6220    3.0530   -1.7050 c1        1 879     -0.122750
     20 C13        -2.8300    4.1950   -0.0310 c1        1 879     -0.231000
     21 C14        -0.5330   -4.2160    5.3440 c1        1 879     -0.094500
     22 C15        -2.7060   -3.8840    4.4420 c1        1 879     -0.083000
     23 C16        -2.4260   -5.1100    6.4390 c1        1 879     -0.083000
     24 C17        -0.1400   -0.2990    0.8010 c1        1 879     -0.003000
     25 C18         2.1210    0.5040   -3.6330 c1        1 879     -0.013000
     26 C19        -0.7720   -2.1700    2.7510 c1        1 879     -0.000500
     27 C20        -1.3360   -3.6950    4.3780 c1        1 879     -0.000500
     28 C21         3.4950    0.8390   -3.6240 c1        1 879     -0.052000
     29 C22         0.6630   -0.2350   -0.3930 c1        1 879     -0.050500
     30 C23         1.6000    0.5030   -2.2890 c1        1 879     -0.050500
     31 C24        -0.5330    2.8950   -0.8280 c1        1 879     -0.003000
     32 C25        -1.7460    4.0410    0.8510 c1        1 879      0.116000
     33 C26         0.8140    2.3140   -1.3720 c2        1 879      0.016000
     34 H1          1.7910   -0.0960   -6.8630 ha        1 879      0.144875
     35 H2          4.0870    0.4710   -6.7980 ha        1 879      0.144875
     36 H3         -3.5450    3.8140   -1.9330 ha        1 879      0.144875
     37 H4          0.5230   -0.0790   -4.8340 ha        1 879      0.144875
     38 H5          1.3010    0.2530    2.1450 ha        1 879      0.144000
     39 HN5        -1.1120    4.6300    2.6340 hn        1 879      0.208000
     40 HN5A       -2.4770    5.2090    2.3240 hn        1 879      0.208000
     41 H6         -1.6900   -1.1650   -0.2200 ha        1 879      0.144875
     42 H7          0.8130   -1.2960    3.8130 ha        1 879      0.165500
     43 H8         -2.2750   -2.7860    1.4110 ha        1 879      0.144875
     44 H9          5.1890    1.0630   -4.7870 ha        1 879      0.144875
     45 H10         1.4310   -2.2090   -0.5820 DU        1 879      0.156000
     46 H11         2.4780   -1.3450   -2.7230 DU        1 879      0.156000
     47 H12        -1.5670    2.6810   -2.6580 ha        1 879      0.144875
     48 H13        -3.6280    4.6520    0.2580 ha        1 879      0.143000
     49 H14         0.4410   -4.0820    5.2990 ha        1 879      0.165500
     50 H15        -3.2870   -3.5080    3.7460 ha        1 879      0.190000
     51 H16        -2.8350   -5.6450    7.2170 ha        1 879      0.190000
     52 H26         1.5740    2.7000   -0.8670 ha        1 879      0.122500
     53 H26A        0.9070    2.5470   -2.3470 ha        1 879      0.122500
@<TRIPOS>BOND
     1    1    9 1   
     2    1   34 1   
     3    2   23 1   
     4    3   26 1   
     5    3   27 1   
     6    4   28 1   
     7    5   16 1   
     8    5   35 1   
     9    6   22 1   
    10    7   19 1   
    11    7   36 1   
    12    8   31 1   
    13    9   37 1   
    14   10   29 1   
    15   10   30 1   
    16   11   24 1   
    17   11   38 1   
    18   12   32 1   
    19   12   39 1   
    20   12   40 1   
    21   13   15 1   
    22   13   41 1   
    23   14   26 1   
    24   14   42 1   
    25   15   43 1   
    26   16   44 1   
    27   17   18 1   
    28   17   29 1   
    29   18   30 1   
    30   19   47 1   
    31   20   32 1   
    32   20   48 1   
    33   21   27 1   
    34   21   49 1   
    35   22   50 1   
    36   23   51 1   
    37   25   28 1   
    38   31   33 1   
    39   33   52 1   
    40   33   53 1   
@<TRIPOS>SUBSTRUCTURE
     1 879         1 TEMP              0 ****  ****    0 ROOT
