@<TRIPOS>MOLECULE
87T
   47    50     1     0     0
SMALL
bcc


@<TRIPOS>ATOM
      1 C           0.0590    0.4860   -0.1690 c3        1 87T      0.038600
      2 N           1.4730    0.2260   -0.0430 na        1 87T      0.091400
      3 O           7.8820   -3.5570   -0.0680 os        1 87T     -0.234200
      4 C1          2.1740    0.2370    1.1680 cc        1 87T     -0.137300
      5 N1          2.2680   -0.1000   -1.0760 nc        1 87T     -0.511800
      6 O1          9.6950   -0.2010   -5.3810 o         1 87T     -0.604100
      7 C2          3.5090   -0.1020    0.8680 cd        1 87T     -0.189100
      8 N2          5.9660    0.1270    3.5790 na        1 87T     -0.181400
      9 C3          3.5080   -0.3040   -0.5700 cd        1 87T      0.301200
     10 N3          9.0660   -2.4500   -5.4170 ns        1 87T     -0.401100
     11 C4          4.6070   -0.2090    1.7610 cd        1 87T     -0.037400
     12 N4         10.0330    0.0340   -8.0170 nz        1 87T     -0.829600
     13 C5          4.7530    0.4660    2.9800 cc        1 87T     -0.095100
     14 C6          6.6260   -0.7870    2.7580 ca        1 87T     -0.044200
     15 C7          5.7950   -1.0260    1.5940 ca        1 87T     -0.074800
     16 C8          6.2230   -1.9270    0.6200 ca        1 87T     -0.092000
     17 C9          7.4570   -2.5440    0.8030 ca        1 87T      0.032100
     18 C10         8.2800   -2.3020    1.9250 ca        1 87T     -0.107000
     19 C11         7.8670   -1.4270    2.9150 ca        1 87T     -0.130000
     20 C12         8.1650   -3.1830   -1.3650 ca        1 87T      0.149100
     21 C13         8.2020   -1.8620   -1.8250 ca        1 87T     -0.156500
     22 C14         8.5100   -1.5990   -3.1570 ca        1 87T     -0.101500
     23 C15         8.7850   -2.6580   -4.0400 ca        1 87T     -0.039400
     24 C16         8.7550   -3.9910   -3.5630 ca        1 87T     -0.101500
     25 C17         8.4450   -4.2530   -2.2400 ca        1 87T     -0.156500
     26 C18         9.5220   -1.2930   -5.9630 c         1 87T      0.644100
     27 C19         9.8460   -1.3420   -7.4840 c3        1 87T     -0.001200
     28 H          -0.1200    1.2760   -0.9470 h1        1 87T      0.060700
     29 HA         -0.3300    0.8390    0.8210 h1        1 87T      0.060700
     30 HB         -0.4790   -0.4520   -0.4710 h1        1 87T      0.060700
     31 H1          1.6950    0.4700    2.1180 h4        1 87T      0.178000
     32 HN2         6.2890    0.4480    4.4530 hn        1 87T      0.306700
     33 H3          4.3540   -0.5700   -1.2020 h4        1 87T      0.036100
     34 HN3         9.0160   -3.2650   -5.9910 hn        1 87T      0.331500
     35 HN4        10.4300    0.6300   -7.2640 hn        1 87T      0.474467
     36 HN4A        9.1300    0.4340   -8.2890 hn        1 87T      0.474467
     37 H5          4.0720    1.1730    3.4590 h4        1 87T      0.173000
     38 H8          5.5990   -2.1510   -0.2570 ha        1 87T      0.151000
     39 H10         9.2400   -2.8330    2.0090 ha        1 87T      0.151000
     40 H11         8.4910   -1.2430    3.8000 ha        1 87T      0.145000
     41 H13         7.9880   -1.0300   -1.1360 ha        1 87T      0.169000
     42 H14         8.5390   -0.5510   -3.4980 ha        1 87T      0.150000
     43 H16         8.9710   -4.8370   -4.2350 ha        1 87T      0.150000
     44 H17         8.4150   -5.2850   -1.8590 ha        1 87T      0.169000
     45 H19         9.0200   -1.8450   -8.0620 hx        1 87T      0.126200
     46 H19A       10.8070   -1.9170   -7.6230 hx        1 87T      0.126200
     47 H43        10.6610    0.0260   -8.8230 hn        1 87T      0.474467
@<TRIPOS>BOND
     1    1    2 1   
     2    1   28 1   
     3    1   29 1   
     4    1   30 1   
     5    2    4 1   
     6    2    5 1   
     7    3   17 1   
     8    3   20 1   
     9    4    7 2   
    10    4   31 1   
    11    5    9 2   
    12    6   26 2   
    13    7    9 1   
    14    7   11 1   
    15    8   13 1   
    16    8   14 1   
    17    8   32 1   
    18    9   33 1   
    19   10   23 1   
    20   10   26 1   
    21   10   34 1   
    22   11   13 2   
    23   11   15 1   
    24   12   27 1   
    25   12   35 1   
    26   12   36 1   
    27   12   47 1   
    28   13   37 1   
    29   14   15 ar  
    30   14   19 ar  
    31   15   16 ar  
    32   16   17 ar  
    33   16   38 1   
    34   17   18 ar  
    35   18   19 ar  
    36   18   39 1   
    37   19   40 1   
    38   20   21 ar  
    39   20   25 ar  
    40   21   22 ar  
    41   21   41 1   
    42   22   23 ar  
    43   22   42 1   
    44   23   24 ar  
    45   24   25 ar  
    46   24   43 1   
    47   25   44 1   
    48   26   27 1   
    49   27   45 1   
    50   27   46 1   
@<TRIPOS>SUBSTRUCTURE
     1 87T         1 TEMP              0 ****  ****    0 ROOT
