@<TRIPOS>MOLECULE
87T
   47    50     1     0     0
SMALL
bcc


@<TRIPOS>ATOM
      1 C           0.0540    0.4910   -0.1730 c3        1 87T      0.038600
      2 N           1.4680    0.2320   -0.0470 na        1 87T      0.091400
      3 O           7.8770   -3.5500   -0.0570 os        1 87T     -0.234200
      4 C1          2.1700    0.2510    1.1630 cc        1 87T     -0.137300
      5 N1          2.2610   -0.1000   -1.0790 nc        1 87T     -0.511800
      6 O1          9.7020   -0.2230   -5.3850 o         1 87T     -0.604100
      7 C2          3.5050   -0.0890    0.8630 cd        1 87T     -0.189100
      8 N2          5.9660    0.1570    3.5690 na        1 87T     -0.181400
      9 C3          3.5030   -0.3000   -0.5730 cd        1 87T      0.301200
     10 N3          9.0700   -2.4710   -5.4110 n         1 87T     -0.401100
     11 C4          4.6050   -0.1910    1.7550 cd        1 87T     -0.037400
     12 N4         10.0440   -0.0010   -8.0220 n4        1 87T     -0.829600
     13 C5          4.7510    0.4920    2.9700 cc        1 87T     -0.095100
     14 C6          6.6250   -0.7620    2.7530 ca        1 87T     -0.044200
     15 C7          5.7930   -1.0090    1.5920 ca        1 87T     -0.075800
     16 C8          6.2190   -1.9150    0.6230 ca        1 87T     -0.092000
     17 C9          7.4540   -2.5300    0.8070 ca        1 87T      0.032100
     18 C10         8.2780   -2.2820    1.9270 ca        1 87T     -0.107000
     19 C11         7.8660   -1.4010    2.9120 ca        1 87T     -0.130000
     20 C12         8.1620   -3.1820   -1.3560 ca        1 87T      0.149100
     21 C13         8.2010   -1.8640   -1.8230 ca        1 87T     -0.156500
     22 C14         8.5100   -1.6070   -3.1560 ca        1 87T     -0.101500
     23 C15         8.7860   -2.6710   -4.0330 ca        1 87T     -0.039400
     24 C16         8.7550   -4.0020   -3.5490 ca        1 87T     -0.101500
     25 C17         8.4430   -4.2560   -2.2250 ca        1 87T     -0.156500
     26 C18         9.5280   -1.3170   -5.9620 c         1 87T      0.644100
     27 C19         9.8540   -1.3750   -7.4820 c3        1 87T     -0.001200
     28 H          -0.4850   -0.4490   -0.4670 h1        1 87T      0.060700
     29 HA         -0.3340    0.8520    0.8150 h1        1 87T      0.060700
     30 HB         -0.1270    1.2750   -0.9560 h1        1 87T      0.060700
     31 H1          1.6930    0.4900    2.1110 h4        1 87T      0.178000
     32 HN2         6.2900    0.4830    4.4410 hn        1 87T      0.306700
     33 H3          4.3480   -0.5710   -1.2050 h4        1 87T      0.036100
     34 HN3         9.0190   -3.2880   -5.9810 hn        1 87T      0.331500
     35 HN4         9.1420    0.4000   -8.2970 hn        1 87T      0.474467
     36 HN4A       10.4410    0.5980   -7.2710 hn        1 87T      0.474467
     37 H5          4.0710    1.2010    3.4460 h4        1 87T      0.173000
     38 H8          5.5950   -2.1450   -0.2520 ha        1 87T      0.151000
     39 H10         9.2380   -2.8120    2.0140 ha        1 87T      0.151000
     40 H11         8.4910   -1.2120    3.7960 ha        1 87T      0.145000
     41 H13         7.9860   -1.0280   -1.1390 ha        1 87T      0.169000
     42 H14         8.5410   -0.5610   -3.5020 ha        1 87T      0.150000
     43 H16         8.9720   -4.8510   -4.2160 ha        1 87T      0.150000
     44 H17         8.4120   -5.2870   -1.8390 ha        1 87T      0.169000
     45 H19        10.8140   -1.9520   -7.6170 hx        1 87T      0.126200
     46 H19A        9.0280   -1.8790   -8.0590 hx        1 87T      0.126200
     47 H43        10.6740   -0.0140   -8.8270 hn        1 87T      0.474467
@<TRIPOS>BOND
     1    1    2 1   
     2    1   28 1   
     3    1   29 1   
     4    1   30 1   
     5    2    4 1   
     6    2    5 1   
     7    3   17 1   
     8    3   20 1   
     9    4    7 2   
    10    4   31 1   
    11    5    9 2   
    12    6   26 2   
    13    7    9 1   
    14    7   11 1   
    15    8   13 1   
    16    8   14 1   
    17    8   32 1   
    18    9   33 1   
    19   10   23 1   
    20   10   26 1   
    21   10   34 1   
    22   11   13 2   
    23   11   15 1   
    24   12   27 1   
    25   12   35 1   
    26   12   36 1   
    27   12   47 1   
    28   13   37 1   
    29   14   15 ar  
    30   14   19 ar  
    31   15   16 ar  
    32   16   17 ar  
    33   16   38 1   
    34   17   18 ar  
    35   18   19 ar  
    36   18   39 1   
    37   19   40 1   
    38   20   21 ar  
    39   20   25 ar  
    40   21   22 ar  
    41   21   41 1   
    42   22   23 ar  
    43   22   42 1   
    44   23   24 ar  
    45   24   25 ar  
    46   24   43 1   
    47   25   44 1   
    48   26   27 1   
    49   27   45 1   
    50   27   46 1   
@<TRIPOS>SUBSTRUCTURE
     1 87T         1 TEMP              0 ****  ****    0 ROOT
