@<TRIPOS>MOLECULE
87Y
   42    39     1     0     0
SMALL
bcc


@<TRIPOS>ATOM
      1 N2         -3.3400   -1.0840   -3.6840 n2        1 87Y     -0.352000
      2 C3         -2.0090   -1.0150   -3.6910 c1        1 87Y      0.390000
      3 O8         -1.4180   -0.9630   -4.7260 o         1 87Y     -0.331000
      4 C7         -1.3080   -0.9540   -2.4810 c1        1 87Y     -0.307000
      5 N10         0.1450   -0.9690   -2.4800 n2        1 87Y     -0.041000
      6 C12         0.8600   -1.1970   -1.2640 c1        1 87Y     -0.140000
      7 C15         2.3820   -1.3780   -1.2880 c2        1 87Y      0.041000
      8 O16         2.8140   -1.4820   -2.5820 oh        1 87Y     -0.321000
      9 C11         0.1170   -1.2220    0.0640 c3        1 87Y      0.101000
     10 C14         0.9050   -0.3400    1.1530 c3        1 87Y     -0.163000
     11 C13         0.2250   -2.6190    0.6950 c3        1 87Y     -0.236000
     12 N9         -1.2680   -0.8320   -0.0200 n3        1 87Y     -0.296000
     13 C6         -1.9940   -0.9650   -1.2950 c2        1 87Y      0.229000
     14 N4         -3.3440   -1.0360   -1.2960 n2        1 87Y     -0.313000
     15 C1         -4.0310   -1.0950   -2.4720 c1        1 87Y      0.275000
     16 N5         -5.4530   -1.1210   -2.4540 n3        1 87Y     -0.344000
     17 C17         0.2270    1.0660    1.2750 c3        1 87Y     -0.125000
     18 C18         1.1100    1.9880    2.0990 c2        1 87Y     -0.074000
     19 C19         2.3290    2.3900    1.6060 c2        1 87Y     -0.129000
     20 C20         3.0980    3.3140    2.3100 c1        1 87Y     -0.126000
     21 C21         2.6470    3.8200    3.4880 c1        1 87Y     -0.129500
     22 C22         1.4100    3.4150    3.9940 c1        1 87Y     -0.129500
     23 C23         0.6480    2.5010    3.2960 c1        1 87Y     -0.127000
     24 H2         -3.8150   -1.1260   -4.4960 hn        1 87Y      0.248000
     25 H152        2.8080   -0.6030   -0.8620 h4        1 87Y      0.089500
     26 H151        2.6280   -2.2110   -0.7880 h4        1 87Y      0.089500
     27 H16         3.7050   -1.4810   -2.5980 ho        1 87Y      0.223000
     28 H142        0.8770   -0.7810    2.0040 hc        1 87Y      0.092500
     29 H141        1.8490   -0.2300    0.8670 hc        1 87Y      0.092500
     30 H133        0.9780   -2.6490    1.2680 hc        1 87Y      0.089000
     31 H132       -0.6400   -2.8240    1.2440 hc        1 87Y      0.089000
     32 H131        0.3290   -3.2920   -0.0180 hc        1 87Y      0.089000
     33 H9         -1.7600   -1.2480    0.6710 hn        1 87Y      0.244000
     34 H52        -5.9260   -1.2840   -1.6140 hn        1 87Y      0.225500
     35 H51        -5.9050   -0.9750   -3.1890 hn        1 87Y      0.225500
     36 H172        0.1020    1.4450    0.3880 hc        1 87Y      0.098000
     37 H171       -0.6620    0.9680    1.7230 hc        1 87Y      0.098000
     38 H19         2.6590    2.0260    0.7530 ha        1 87Y      0.131000
     39 H20         3.9960    3.6070    1.9440 ha        1 87Y      0.132000
     40 H21         3.1570    4.4300    3.9520 ha        1 87Y      0.131000
     41 H22         1.0770    3.7880    4.8620 ha        1 87Y      0.131000
     42 H23        -0.2060    2.2200    3.6420 ha        1 87Y      0.130000
@<TRIPOS>BOND
     1    1    2 1   
     2    1   24 1   
     3    2    3 1   
     4    4    5 1   
     5    4   13 1   
     6    5    6 1   
     7    6    9 1   
     8    7    8 1   
     9    7   25 1   
    10    7   26 1   
    11    8   27 1   
    12    9   10 1   
    13    9   11 1   
    14    9   12 1   
    15   10   17 1   
    16   10   28 1   
    17   10   29 1   
    18   11   30 1   
    19   11   31 1   
    20   11   32 1   
    21   12   13 1   
    22   12   33 1   
    23   13   14 1   
    24   14   15 1   
    25   15   16 1   
    26   16   34 1   
    27   16   35 1   
    28   17   18 1   
    29   17   36 1   
    30   17   37 1   
    31   18   19 1   
    32   18   23 1   
    33   19   20 1   
    34   19   38 1   
    35   20   39 1   
    36   21   22 1   
    37   21   40 1   
    38   22   41 1   
    39   23   42 1   
@<TRIPOS>SUBSTRUCTURE
     1 87Y         1 TEMP              0 ****  ****    0 ROOT
