@<TRIPOS>MOLECULE
87Y
   42    44     1     0     0
SMALL
bcc


@<TRIPOS>ATOM
      1 N2         -0.0270    1.0170   -0.0760 ns        1 87Y     -0.511400
      2 C3          1.3570    0.6860   -0.1330 c         1 87Y      0.750700
      3 O8          1.9040    0.8200   -1.2380 o         1 87Y     -0.605500
      4 C7          1.9530    0.2370    1.1200 cc        1 87Y     -0.183600
      5 N10         3.3060   -0.0810    1.1390 ne        1 87Y     -0.470300
      6 C12         3.8320   -0.5400    2.2350 c2        1 87Y      0.298300
      7 C15         5.3140   -0.8400    2.2980 c3        1 87Y      0.116100
      8 O16         5.8540   -1.3870    1.1170 oh        1 87Y     -0.593800
      9 C11         3.0600   -0.7790    3.5460 c3        1 87Y      0.183900
     10 C14         3.0190   -2.3110    3.7840 c3        1 87Y     -0.101400
     11 C13         3.8310   -0.1040    4.6970 c3        1 87Y     -0.104100
     12 N9          1.7100   -0.2150    3.4800 nu        1 87Y     -0.739000
     13 C6          1.1360    0.1550    2.2840 cd        1 87Y      0.448600
     14 N4         -0.2180    0.4890    2.2830 nd        1 87Y     -0.740300
     15 C1         -0.7600    0.8800    1.1060 cc        1 87Y      0.720800
     16 N5         -2.1470    1.1080    1.0570 nv        1 87Y     -0.905800
     17 C17         2.1050   -2.7370    4.9170 c3        1 87Y     -0.039100
     18 C18         2.3260   -4.1650    5.2790 ca        1 87Y     -0.083300
     19 C19         2.9040   -4.5060    6.5070 ca        1 87Y     -0.125500
     20 C20         3.0960   -5.8450    6.8450 ca        1 87Y     -0.127000
     21 C21         2.7130   -6.8530    5.9620 ca        1 87Y     -0.130000
     22 C22         2.1350   -6.5190    4.7360 ca        1 87Y     -0.127000
     23 C23         1.9410   -5.1810    4.3960 ca        1 87Y     -0.125500
     24 H2         -0.4710    1.2790   -0.9300 hn        1 87Y      0.334500
     25 H152        5.8510    0.1120    2.5660 h1        1 87Y      0.051200
     26 H151        5.5250   -1.6220    3.0780 h1        1 87Y      0.051200
     27 H16         5.6430   -0.7970    0.3820 ho        1 87Y      0.423000
     28 H142        2.6960   -2.8180    2.8370 hc        1 87Y      0.064200
     29 H141        4.0620   -2.6550    4.0070 hc        1 87Y      0.064200
     30 H133        3.2520   -0.1480    5.6510 hc        1 87Y      0.048367
     31 H132        4.0360    0.9650    4.4510 hc        1 87Y      0.048367
     32 H131        4.8030   -0.6290    4.8540 hc        1 87Y      0.048367
     33 H9          1.1410   -0.3420    4.2860 hn        1 87Y      0.448800
     34 H52        -2.4720    1.7620    0.3840 hn        1 87Y      0.430300
     35 H51        -2.6150    1.1290    1.9360 hn        1 87Y      0.430300
     36 H172        2.2810   -2.0830    5.8130 hc        1 87Y      0.046700
     37 H171        1.0300   -2.6110    4.6150 hc        1 87Y      0.046700
     38 H19         3.2090   -3.7150    7.2090 ha        1 87Y      0.131500
     39 H20         3.5520   -6.1050    7.8120 ha        1 87Y      0.132000
     40 H21         2.8660   -7.9080    6.2290 ha        1 87Y      0.132000
     41 H22         1.8320   -7.3110    4.0370 ha        1 87Y      0.132000
     42 H23         1.4860   -4.9190    3.4290 ha        1 87Y      0.131500
@<TRIPOS>BOND
     1    1    2 1   
     2    1   15 1   
     3    1   24 1   
     4    2    3 2   
     5    2    4 1   
     6    4    5 1   
     7    4   13 2   
     8    5    6 2   
     9    6    7 1   
    10    6    9 1   
    11    7    8 1   
    12    7   25 1   
    13    7   26 1   
    14    8   27 1   
    15    9   10 1   
    16    9   11 1   
    17    9   12 1   
    18   10   17 1   
    19   10   28 1   
    20   10   29 1   
    21   11   30 1   
    22   11   31 1   
    23   11   32 1   
    24   12   13 1   
    25   12   33 1   
    26   13   14 1   
    27   14   15 2   
    28   15   16 1   
    29   16   34 1   
    30   16   35 1   
    31   17   18 1   
    32   17   36 1   
    33   17   37 1   
    34   18   19 ar  
    35   18   23 ar  
    36   19   20 ar  
    37   19   38 1   
    38   20   21 ar  
    39   20   39 1   
    40   21   22 ar  
    41   21   40 1   
    42   22   23 ar  
    43   22   41 1   
    44   23   42 1   
@<TRIPOS>SUBSTRUCTURE
     1 87Y         1 TEMP              0 ****  ****    0 ROOT
