@<TRIPOS>MOLECULE
87Y
   42    44     1     0     0
SMALL
bcc


@<TRIPOS>ATOM
      1 N2         -1.8110    0.0880    4.1030 n         1 87Y     -0.511400
      2 C3         -0.5600    0.6580    3.7310 c         1 87Y      0.750700
      3 O8         -0.1100    1.5280    4.4920 o         1 87Y     -0.605500
      4 C7          0.0320    0.1400    2.5030 cc        1 87Y     -0.183600
      5 N10         1.2640    0.6390    2.0940 ne        1 87Y     -0.470300
      6 C12         1.7700    0.2280    0.9700 c2        1 87Y      0.298300
      7 C15         3.1340    0.7130    0.5310 c3        1 87Y      0.116100
      8 O16         3.4050    2.0620    0.8350 oh        1 87Y     -0.593800
      9 C11         1.0990   -0.7830    0.0210 c3        1 87Y      0.183900
     10 C14         0.7140   -0.0170   -1.2710 c3        1 87Y     -0.101400
     11 C13         2.1200   -1.8830   -0.3220 c3        1 87Y     -0.104100
     12 N9         -0.0760   -1.3980    0.6440 nh        1 87Y     -0.739000
     13 C6         -0.6600   -0.8690    1.7730 cd        1 87Y      0.448600
     14 N4         -1.8870   -1.3910    2.1820 nd        1 87Y     -0.740300
     15 C1         -2.4340   -0.8810    3.3110 cc        1 87Y      0.720800
     16 N5         -3.7220   -1.3090    3.6760 nh        1 87Y     -0.905800
     17 C17        -0.1590   -0.8100   -2.2240 c3        1 87Y     -0.039100
     18 C18        -0.2520   -0.1420   -3.5520 ca        1 87Y     -0.083300
     19 C19         0.3440   -0.7160   -4.6810 ca        1 87Y     -0.125500
     20 C20         0.2420   -0.0910   -5.9230 ca        1 87Y     -0.127000
     21 C21        -0.4560    1.1090   -6.0490 ca        1 87Y     -0.130000
     22 C22        -1.0530    1.6850   -4.9270 ca        1 87Y     -0.127000
     23 C23        -0.9530    1.0630   -3.6840 ca        1 87Y     -0.125500
     24 H2         -2.2610    0.4590    4.9110 hn        1 87Y      0.334500
     25 H152        3.9090    0.0450    1.0010 h1        1 87Y      0.051200
     26 H151        3.2290    0.6650   -0.5890 h1        1 87Y      0.051200
     27 H16         3.2700    2.1950    1.7820 ho        1 87Y      0.423000
     28 H142        0.1860    0.9320   -0.9890 hc        1 87Y      0.064200
     29 H141        1.6610    0.2720   -1.7970 hc        1 87Y      0.064200
     30 H133        2.5500   -2.3180    0.6110 hc        1 87Y      0.048367
     31 H132        1.6470   -2.7040   -0.9130 hc        1 87Y      0.048367
     32 H131        2.9480   -1.4480   -0.9300 hc        1 87Y      0.048367
     33 H9         -0.5760   -2.0530    0.0870 hn        1 87Y      0.448800
     34 H52        -4.0810   -2.0880    3.1700 hn        1 87Y      0.430300
     35 H51        -3.9450   -1.2890    4.6440 hn        1 87Y      0.430300
     36 H172        0.2570   -1.8470   -2.3460 hc        1 87Y      0.046700
     37 H171       -1.1970   -0.9120   -1.8050 hc        1 87Y      0.046700
     38 H19         0.8960   -1.6630   -4.5880 ha        1 87Y      0.131500
     39 H20         0.7140   -0.5480   -6.8050 ha        1 87Y      0.132000
     40 H21        -0.5350    1.6010   -7.0290 ha        1 87Y      0.132000
     41 H22        -1.6030    2.6330   -5.0220 ha        1 87Y      0.132000
     42 H23        -1.4230    1.5180   -2.8000 ha        1 87Y      0.131500
@<TRIPOS>BOND
     1    1    2 1   
     2    1   15 1   
     3    1   24 1   
     4    2    3 2   
     5    2    4 1   
     6    4    5 1   
     7    4   13 2   
     8    5    6 2   
     9    6    7 1   
    10    6    9 1   
    11    7    8 1   
    12    7   25 1   
    13    7   26 1   
    14    8   27 1   
    15    9   10 1   
    16    9   11 1   
    17    9   12 1   
    18   10   17 1   
    19   10   28 1   
    20   10   29 1   
    21   11   30 1   
    22   11   31 1   
    23   11   32 1   
    24   12   13 1   
    25   12   33 1   
    26   13   14 1   
    27   14   15 2   
    28   15   16 1   
    29   16   34 1   
    30   16   35 1   
    31   17   18 1   
    32   17   36 1   
    33   17   37 1   
    34   18   19 ar  
    35   18   23 ar  
    36   19   20 ar  
    37   19   38 1   
    38   20   21 ar  
    39   20   39 1   
    40   21   22 ar  
    41   21   40 1   
    42   22   23 ar  
    43   22   41 1   
    44   23   42 1   
@<TRIPOS>SUBSTRUCTURE
     1 87Y         1 TEMP              0 ****  ****    0 ROOT
