@<TRIPOS>MOLECULE
87Y
   43    45     1     0     0
SMALL
bcc


@<TRIPOS>ATOM
      1 N2         -0.0460    0.9550   -0.1190 n         1 87Y     -0.498400
      2 C3          1.3590    0.6280   -0.1640 c         1 87Y      0.743700
      3 O8          1.8910    0.7660   -1.2640 o         1 87Y     -0.513500
      4 C7          1.9380    0.1850    1.1050 cc        1 87Y     -0.074600
      5 N10         3.2970   -0.1310    1.1180 ne        1 87Y     -0.504300
      6 C12         3.8260   -0.5850    2.2150 c2        1 87Y      0.380300
      7 C15         5.3100   -0.9070    2.2610 c3        1 87Y      0.103100
      8 O16         5.8040   -1.4810    1.0780 oh        1 87Y     -0.570800
      9 C11         3.0630   -0.8110    3.5370 c3        1 87Y      0.166900
     10 C14         3.0310   -2.3360    3.8000 c3        1 87Y     -0.105400
     11 C13         3.8310   -0.1040    4.6680 c3        1 87Y     -0.110100
     12 N9          1.7010   -0.2540    3.4680 nh        1 87Y     -0.722000
     13 C6          1.1350    0.1010    2.2710 cd        1 87Y      0.391600
     14 N4         -0.2390    0.4290    2.2400 nd        1 87Y     -0.620300
     15 C1         -0.7290    0.8290    1.0760 cc        1 87Y      0.557800
     16 N5         -2.1960    1.1730    1.0860 n4        1 87Y     -0.808600
     17 C17         2.0940   -2.7540    4.9170 c3        1 87Y     -0.031100
     18 C18         2.3390   -4.1670    5.3200 ca        1 87Y     -0.101300
     19 C19         2.8770   -4.4620    6.5770 ca        1 87Y     -0.124500
     20 C20         3.0920   -5.7870    6.9550 ca        1 87Y     -0.121500
     21 C21         2.7720   -6.8250    6.0800 ca        1 87Y     -0.117000
     22 C22         2.2350   -6.5360    4.8250 ca        1 87Y     -0.121500
     23 C23         2.0180   -5.2130    4.4460 ca        1 87Y     -0.124500
     24 H2         -0.4780    1.2660   -0.9640 hn        1 87Y      0.351500
     25 H152        5.5130   -1.6850    3.0480 h1        1 87Y      0.072700
     26 H151        5.8570    0.0430    2.5150 h1        1 87Y      0.072700
     27 H16         5.7450   -0.8260    0.3700 ho        1 87Y      0.424000
     28 H142        2.7440   -2.8690    2.8560 hc        1 87Y      0.073200
     29 H141        4.0730   -2.6630    4.0620 hc        1 87Y      0.073200
     30 H133        3.9950    0.9720    4.4210 hc        1 87Y      0.061033
     31 H132        3.2730   -0.1700    5.6330 hc        1 87Y      0.061033
     32 H131        4.8240   -0.5960    4.8050 hc        1 87Y      0.061033
     33 H9          1.1340   -0.3840    4.2770 hn        1 87Y      0.462800
     34 H52        -2.3190    2.1560    0.8170 hn        1 87Y      0.483133
     35 H51        -2.6960    0.5640    0.4270 hn        1 87Y      0.483133
     36 H172        2.2300   -2.0760    5.8020 hc        1 87Y      0.042200
     37 H171        1.0250   -2.6620    4.5820 hc        1 87Y      0.042200
     38 H19         3.1300   -3.6490    7.2740 ha        1 87Y      0.128000
     39 H20         3.5150   -6.0130    7.9450 ha        1 87Y      0.140500
     40 H21         2.9440   -7.8710    6.3790 ha        1 87Y      0.143000
     41 H22         1.9830   -7.3540    4.1330 ha        1 87Y      0.140500
     42 H23         1.5950   -4.9880    3.4570 ha        1 87Y      0.128000
     43 H53        -2.5790    1.0320    2.0340 hn        1 87Y      0.483133
@<TRIPOS>BOND
     1    1    2 1   
     2    1   15 1   
     3    1   24 1   
     4    2    3 2   
     5    2    4 1   
     6    4    5 1   
     7    4   13 2   
     8    5    6 2   
     9    6    7 1   
    10    6    9 1   
    11    7    8 1   
    12    7   25 1   
    13    7   26 1   
    14    8   27 1   
    15    9   10 1   
    16    9   11 1   
    17    9   12 1   
    18   10   17 1   
    19   10   28 1   
    20   10   29 1   
    21   11   30 1   
    22   11   31 1   
    23   11   32 1   
    24   12   13 1   
    25   12   33 1   
    26   13   14 1   
    27   14   15 2   
    28   15   16 1   
    29   16   34 1   
    30   16   35 1   
    31   16   43 1   
    32   17   18 1   
    33   17   36 1   
    34   17   37 1   
    35   18   19 ar  
    36   18   23 ar  
    37   19   20 ar  
    38   19   38 1   
    39   20   21 ar  
    40   20   39 1   
    41   21   22 ar  
    42   21   40 1   
    43   22   23 ar  
    44   22   41 1   
    45   23   42 1   
@<TRIPOS>SUBSTRUCTURE
     1 87Y         1 TEMP              0 ****  ****    0 ROOT
