@<TRIPOS>MOLECULE
880
   69    73     1     0     0
SMALL
bcc


@<TRIPOS>ATOM
      1 N1         -0.0400    0.1270    0.3020 na        1 880     -0.179900
      2 C2          1.3650    0.1100    0.1810 cc        1 880      0.420800
      3 N3          1.9560    0.3970    1.3660 nd        1 880     -0.657000
      4 C4          0.9220    0.5990    2.2900 cd        1 880      0.373800
      5 C5         -0.3250    0.4330    1.6400 cc        1 880     -0.257100
      6 C6         -1.0070   -0.1940   -0.7100 c3        1 880      0.036300
      7 C7         -1.1580   -1.6890   -1.0010 c3        1 880     -0.103400
      8 C10        -2.1750   -1.8990   -2.0920 c3        1 880     -0.095100
      9 C16         2.0880   -0.1810   -1.1000 c3        1 880     -0.083000
     10 C17         3.0510    0.9470   -1.4460 c3        1 880     -0.073900
     11 C18         3.8080    0.6150   -2.7320 c3        1 880      0.163800
     12 N19         4.4750   -0.6710   -2.6880 n3        1 880     -0.820200
     13 C20         3.6200   -1.7690   -2.2830 c3        1 880      0.163800
     14 C21         2.8550   -1.4940   -0.9880 c3        1 880     -0.073900
     15 C35         1.1760    0.9040    3.6880 ca        1 880     -0.086500
     16 C36        -1.6940    0.5170    2.1660 ca        1 880      0.548800
     17 C37         0.3360    1.7720    4.3960 ca        1 880     -0.116000
     18 C38         0.5850    2.0560    5.7420 ca        1 880      0.016400
     19 C39         1.6850    1.4770    6.3900 ca        1 880      0.016400
     20 C40         2.5300    0.6170    5.6800 ca        1 880     -0.123000
     21 C41         2.2810    0.3330    4.3410 ca        1 880     -0.092000
     22 CL45       -0.4630    3.1100    6.5630 cl        1 880     -0.078400
     23 CL46        2.0140    1.8000    8.0230 cl        1 880     -0.075400
     24 C47        -2.3170    1.7810    2.2570 ca        1 880     -0.409600
     25 C48        -3.6160    1.8020    2.7950 ca        1 880      0.460200
     26 N49        -4.2710    0.7060    3.2000 nb        1 880     -0.733000
     27 C50        -3.5980   -0.5050    3.0480 ca        1 880      0.865900
     28 N51        -2.3040   -0.6260    2.5450 nb        1 880     -0.735000
     29 N54        -4.2720   -1.7060    3.3270 nh        1 880     -0.813900
     30 C55        -5.3980   -1.7250    4.2470 c3        1 880      0.206500
     31 C56        -6.1290   -3.0790    4.1640 c3        1 880     -0.093900
     32 C57        -7.3630   -3.0590    5.0420 c3        1 880     -0.074400
     33 C58        -7.0140   -2.7480    6.4830 c3        1 880     -0.080400
     34 C59        -6.2470   -1.4470    6.5900 c3        1 880     -0.074400
     35 C60        -5.0140   -1.4570    5.7130 c3        1 880     -0.093900
     36 H061       -2.0060    0.2150   -0.3810 h1        1 880      0.063700
     37 H062       -0.7100    0.3380   -1.6610 h1        1 880      0.063700
     38 H071       -0.1680   -2.1180   -1.3120 hc        1 880      0.059700
     39 H072       -1.4800   -2.2260   -0.0700 hc        1 880      0.059700
     40 H101       -1.8620   -1.3850   -3.0340 hc        1 880      0.038700
     41 H102       -2.2850   -2.9900   -2.3060 hc        1 880      0.038700
     42 H103       -3.1720   -1.4980   -1.7880 hc        1 880      0.038700
     43 H16         1.3390   -0.2790   -1.9380 hc        1 880      0.050700
     44 H171        3.7770    1.0990   -0.6060 hc        1 880      0.062700
     45 H172        2.4880    1.9030   -1.5950 hc        1 880      0.062700
     46 H181        3.0810    0.6840   -3.5960 h1        1 880      0.026950
     47 H182        4.6040    1.3960   -2.8960 h1        1 880      0.026950
     48 H19         4.8920   -0.8720   -3.5770 hn        1 880      0.363800
     49 H201        2.8680   -2.0370   -3.0840 h1        1 880      0.026950
     50 H202        4.2830   -2.6670   -2.1270 h1        1 880      0.026950
     51 H211        3.5690   -1.4420   -0.1260 hc        1 880      0.062700
     52 H212        2.1450   -2.3400   -0.8020 hc        1 880      0.062700
     53 H37        -0.5260    2.2350    3.8890 ha        1 880      0.153000
     54 H40         3.3980    0.1640    6.1840 ha        1 880      0.151000
     55 H41         2.9560   -0.3410    3.7920 ha        1 880      0.158000
     56 H47        -1.8110    2.6960    1.9330 ha        1 880      0.163000
     57 H48        -4.1670    2.7540    2.9150 h4        1 880      0.030100
     58 H54        -3.6740   -2.5050    3.4030 hn        1 880      0.422800
     59 H55        -6.1260   -0.9230    3.9210 h1        1 880      0.086700
     60 H561       -5.4450   -3.9040    4.4960 hc        1 880      0.048200
     61 H562       -6.4290   -3.2870    3.1040 hc        1 880      0.048200
     62 H571       -8.0840   -2.2910    4.6570 hc        1 880      0.044450
     63 H572       -7.8710   -4.0570    4.9850 hc        1 880      0.044450
     64 H581       -6.3970   -3.5830    6.9070 hc        1 880      0.041700
     65 H582       -7.9540   -2.6820    7.0910 hc        1 880      0.041700
     66 H591       -6.9120   -0.5940    6.2900 hc        1 880      0.044450
     67 H592       -5.9420   -1.2770    7.6550 hc        1 880      0.044450
     68 H601       -4.3040   -2.2490    6.0690 hc        1 880      0.048200
     69 H602       -4.4920   -0.4680    5.7930 hc        1 880      0.048200
@<TRIPOS>BOND
     1    1    2 1   
     2    1    5 1   
     3    1    6 1   
     4    2    3 2   
     5    2    9 1   
     6    3    4 1   
     7    4    5 2   
     8    4   15 1   
     9    5   16 1   
    10    6    7 1   
    11    6   36 1   
    12    6   37 1   
    13    7    8 1   
    14    7   38 1   
    15    7   39 1   
    16    8   40 1   
    17    8   41 1   
    18    8   42 1   
    19    9   10 1   
    20    9   14 1   
    21    9   43 1   
    22   10   11 1   
    23   10   44 1   
    24   10   45 1   
    25   11   12 1   
    26   11   46 1   
    27   11   47 1   
    28   12   13 1   
    29   12   48 1   
    30   13   14 1   
    31   13   49 1   
    32   13   50 1   
    33   14   51 1   
    34   14   52 1   
    35   15   17 ar  
    36   15   21 ar  
    37   16   24 ar  
    38   16   28 ar  
    39   17   18 ar  
    40   17   53 1   
    41   18   19 ar  
    42   18   22 1   
    43   19   20 ar  
    44   19   23 1   
    45   20   21 ar  
    46   20   54 1   
    47   21   55 1   
    48   24   25 ar  
    49   24   56 1   
    50   25   26 ar  
    51   25   57 1   
    52   26   27 ar  
    53   27   28 ar  
    54   27   29 1   
    55   29   30 1   
    56   29   58 1   
    57   30   31 1   
    58   30   35 1   
    59   30   59 1   
    60   31   32 1   
    61   31   60 1   
    62   31   61 1   
    63   32   33 1   
    64   32   62 1   
    65   32   63 1   
    66   33   34 1   
    67   33   64 1   
    68   33   65 1   
    69   34   35 1   
    70   34   66 1   
    71   34   67 1   
    72   35   68 1   
    73   35   69 1   
@<TRIPOS>SUBSTRUCTURE
     1 880         1 TEMP              0 ****  ****    0 ROOT
