@<TRIPOS>MOLECULE
880
   70    74     1     0     0
SMALL
bcc


@<TRIPOS>ATOM
      1 N1         -0.2650    0.0010   -0.0940 na        1 880     -0.178900
      2 C2          1.1220    0.0960    0.1300 cc        1 880      0.471800
      3 N3          1.3990    0.1920    1.4600 nd        1 880     -0.651000
      4 C4          0.1770    0.1310    2.1250 cd        1 880      0.445800
      5 C5         -0.8740   -0.0020    1.1760 cc        1 880     -0.348100
      6 C6         -0.9090   -0.2660   -1.3520 c3        1 880      0.027300
      7 C7         -0.7470   -1.6970   -1.8710 c3        1 880     -0.102400
      8 C10        -1.4400   -1.8400   -3.2010 c3        1 880     -0.099100
      9 C16         2.1510    0.1180   -0.9640 c3        1 880     -0.095000
     10 C17         2.9840    1.3930   -0.8860 c3        1 880     -0.075400
     11 C18         4.0620    1.3790   -1.9720 c3        1 880      0.165300
     12 N19         4.8870    0.1890   -1.9330 n3        1 880     -0.822200
     13 C20         4.1360   -1.0490   -1.9440 c3        1 880      0.165300
     14 C21         3.0590   -1.1020   -0.8580 c3        1 880     -0.075400
     15 C35         0.0550    0.2510    3.5690 ca        1 880     -0.111500
     16 C36        -2.3010   -0.1110    1.4190 ca        1 880      0.581800
     17 C37        -0.9630    1.0350    4.1230 ca        1 880     -0.120000
     18 C38        -1.0770    1.1620    5.5100 ca        1 880     -0.000600
     19 C39        -0.1650    0.5090    6.3520 ca        1 880      0.021400
     20 C40         0.8640   -0.2600    5.7930 ca        1 880     -0.117000
     21 C41         0.9770   -0.3870    4.4120 ca        1 880     -0.079000
     22 CL45       -2.3190    2.1320    6.1410 cl        1 880     -0.070400
     23 CL46       -0.2810    0.6390    8.0360 cl        1 880     -0.049400
     24 C47        -3.2140    0.7810    0.8010 ca        1 880     -0.316600
     25 C48        -4.5800    0.6360    1.1010 ca        1 880      0.456200
     26 N49        -5.0460   -0.3060    1.9460 nb        1 880     -0.675000
     27 C50        -4.0840   -1.1190    2.4960 ca        1 880      0.707900
     28 N51        -2.7340   -1.0790    2.2790 nb        1 880     -0.661000
     29 N54        -4.5680   -2.1880    3.4190 n4        1 880     -0.745700
     30 C55        -5.0050   -1.6470    4.7680 c3        1 880      0.132500
     31 C56        -5.9960   -2.6200    5.4200 c3        1 880     -0.101900
     32 C57        -6.4660   -2.0440    6.7420 c3        1 880     -0.077400
     33 C58        -5.3020   -1.7620    7.6680 c3        1 880     -0.091400
     34 C59        -4.2860   -0.8530    7.0120 c3        1 880     -0.077400
     35 C60        -3.8040   -1.4150    5.6880 c3        1 880     -0.101900
     36 H061       -2.0090   -0.0430   -1.2410 h1        1 880      0.065200
     37 H062       -0.4880    0.4520   -2.1150 h1        1 880      0.065200
     38 H071       -1.1780   -2.4250   -1.1350 hc        1 880      0.057700
     39 H072        0.3440   -1.9390   -1.9810 hc        1 880      0.057700
     40 H101       -1.3190   -2.8840   -3.5820 hc        1 880      0.046033
     41 H102       -2.5320   -1.6240   -3.1090 hc        1 880      0.046033
     42 H103       -1.0050   -1.1400   -3.9550 hc        1 880      0.046033
     43 H16         1.6340    0.0910   -1.9660 hc        1 880      0.055700
     44 H171        3.4660    1.4750    0.1230 hc        1 880      0.063450
     45 H172        2.3320    2.2900   -1.0360 hc        1 880      0.063450
     46 H181        4.7420    2.2640   -1.8160 h1        1 880      0.034200
     47 H182        3.5540    1.5120   -2.9740 h1        1 880      0.034200
     48 H19         5.5530    0.2000   -2.6820 hn        1 880      0.376800
     49 H201        3.6370   -1.2360   -2.9420 h1        1 880      0.034200
     50 H202        4.8670   -1.8870   -1.7670 h1        1 880      0.034200
     51 H211        2.4620   -2.0400   -0.9880 hc        1 880      0.063450
     52 H212        3.5420   -1.1310    0.1540 hc        1 880      0.063450
     53 H37        -1.6590    1.5760    3.4630 ha        1 880      0.141000
     54 H40         1.5950   -0.7580    6.4510 ha        1 880      0.165000
     55 H41         1.8000   -0.9800    3.9810 ha        1 880      0.167000
     56 H47        -2.8600    1.5740    0.1260 ha        1 880      0.193000
     57 H48        -5.3500    1.2990    0.6570 h4        1 880      0.069100
     58 H54        -3.8140   -2.8740    3.5640 hn        1 880      0.467800
     59 H55        -5.5290   -0.6630    4.5780 hx        1 880      0.121700
     60 H561       -5.5040   -3.6120    5.6010 hc        1 880      0.066450
     61 H562       -6.8840   -2.7830    4.7530 hc        1 880      0.066450
     62 H571       -7.0430   -1.0990    6.5580 hc        1 880      0.068450
     63 H572       -7.1660   -2.7770    7.2240 hc        1 880      0.068450
     64 H581       -4.8120   -2.7270    7.9630 hc        1 880      0.064700
     65 H582       -5.6830   -1.2790    8.6070 hc        1 880      0.064700
     66 H591       -4.7320    0.1640    6.8490 hc        1 880      0.068450
     67 H592       -3.4000   -0.7240    7.6890 hc        1 880      0.068450
     68 H601       -3.2620   -2.3820    5.8680 hc        1 880      0.066450
     69 H602       -3.0820   -0.6930    5.2190 hc        1 880      0.066450
     70 H542       -5.3690   -2.6580    2.9750 hn        1 880      0.467800
@<TRIPOS>BOND
     1    1    2 1   
     2    1    5 1   
     3    1    6 1   
     4    2    3 2   
     5    2    9 1   
     6    3    4 1   
     7    4    5 2   
     8    4   15 1   
     9    5   16 1   
    10    6    7 1   
    11    6   36 1   
    12    6   37 1   
    13    7    8 1   
    14    7   38 1   
    15    7   39 1   
    16    8   40 1   
    17    8   41 1   
    18    8   42 1   
    19    9   10 1   
    20    9   14 1   
    21    9   43 1   
    22   10   11 1   
    23   10   44 1   
    24   10   45 1   
    25   11   12 1   
    26   11   46 1   
    27   11   47 1   
    28   12   13 1   
    29   12   48 1   
    30   13   14 1   
    31   13   49 1   
    32   13   50 1   
    33   14   51 1   
    34   14   52 1   
    35   15   17 ar  
    36   15   21 ar  
    37   16   24 ar  
    38   16   28 ar  
    39   17   18 ar  
    40   17   53 1   
    41   18   19 ar  
    42   18   22 1   
    43   19   20 ar  
    44   19   23 1   
    45   20   21 ar  
    46   20   54 1   
    47   21   55 1   
    48   24   25 ar  
    49   24   56 1   
    50   25   26 ar  
    51   25   57 1   
    52   26   27 ar  
    53   27   28 ar  
    54   27   29 1   
    55   29   30 1   
    56   29   58 1   
    57   29   70 1   
    58   30   31 1   
    59   30   35 1   
    60   30   59 1   
    61   31   32 1   
    62   31   60 1   
    63   31   61 1   
    64   32   33 1   
    65   32   62 1   
    66   32   63 1   
    67   33   34 1   
    68   33   64 1   
    69   33   65 1   
    70   34   35 1   
    71   34   66 1   
    72   34   67 1   
    73   35   68 1   
    74   35   69 1   
@<TRIPOS>SUBSTRUCTURE
     1 880         1 TEMP              0 ****  ****    0 ROOT
