@<TRIPOS>MOLECULE
880
   69    73     1     0     0
SMALL
bcc


@<TRIPOS>ATOM
      1 N1         -0.0400    0.1230    0.3030 na        1 880     -0.179900
      2 C2          1.3660    0.1120    0.1850 cc        1 880      0.420800
      3 N3          1.9530    0.4120    1.3690 nd        1 880     -0.657000
      4 C4          0.9160    0.6150    2.2890 cd        1 880      0.373800
      5 C5         -0.3300    0.4380    1.6370 cc        1 880     -0.257100
      6 C6         -1.0020   -0.2110   -0.7100 c3        1 880      0.036300
      7 C7         -1.1440   -1.7090   -0.9900 c3        1 880     -0.103400
      8 C10        -2.1560   -1.9330   -2.0830 c3        1 880     -0.095100
      9 C16         2.0940   -0.1850   -1.0920 c3        1 880     -0.083000
     10 C17         3.0520    0.9460   -1.4450 c3        1 880     -0.073900
     11 C18         3.8140    0.6080   -2.7270 c3        1 880      0.163800
     12 N19         4.4870   -0.6740   -2.6710 n7        1 880     -0.820200
     13 C20         3.6370   -1.7730   -2.2590 c3        1 880      0.163800
     14 C21         2.8680   -1.4920   -0.9690 c3        1 880     -0.073900
     15 C35         1.1650    0.9320    3.6860 ca        1 880     -0.086500
     16 C36        -1.7000    0.5180    2.1590 ca        1 880      0.548800
     17 C37         0.3210    1.8020    4.3840 ca        1 880     -0.116000
     18 C38         0.5650    2.0970    5.7280 ca        1 880      0.016400
     19 C39         1.6650    1.5260    6.3840 ca        1 880      0.017400
     20 C40         2.5150    0.6640    5.6830 ca        1 880     -0.123000
     21 C41         2.2690    0.3690    4.3460 ca        1 880     -0.092000
     22 Cl45       -0.4880    3.1550    6.5390 cl        1 880     -0.078400
     23 Cl46        1.9890    1.8630    8.0150 cl        1 880     -0.075400
     24 C47        -2.3290    1.7800    2.2430 ca        1 880     -0.409600
     25 C48        -3.6290    1.7970    2.7780 ca        1 880      0.460200
     26 N49        -4.2800    0.6990    3.1860 nb        1 880     -0.733000
     27 C50        -3.6020   -0.5090    3.0400 ca        1 880      0.865900
     28 N51        -2.3050   -0.6260    2.5410 nb        1 880     -0.736000
     29 N54        -4.2710   -1.7120    3.3220 nu        1 880     -0.813900
     30 C55        -5.3990   -1.7330    4.2400 c3        1 880      0.206500
     31 C56        -6.1250   -3.0890    4.1600 c3        1 880     -0.093900
     32 C57        -7.3600   -3.0710    5.0360 c3        1 880     -0.074400
     33 C58        -7.0150   -2.7560    6.4760 c3        1 880     -0.080400
     34 C59        -6.2530   -1.4520    6.5810 c3        1 880     -0.074400
     35 C60        -5.0180   -1.4600    5.7060 c3        1 880     -0.093900
     36 H061       -0.7060    0.3150   -1.6640 h1        1 880      0.063700
     37 H062       -2.0040    0.1940   -0.3860 h1        1 880      0.063700
     38 H071       -0.1510   -2.1350   -1.2940 hc        1 880      0.059700
     39 H072       -1.4660   -2.2410   -0.0560 hc        1 880      0.059700
     40 H101       -3.1570   -1.5360   -1.7840 hc        1 880      0.038700
     41 H102       -2.2600   -3.0260   -2.2880 hc        1 880      0.038700
     42 H103       -1.8440   -1.4250   -3.0270 hc        1 880      0.038700
     43 H16         1.3480   -0.2930   -1.9310 hc        1 880      0.050700
     44 H171        3.7750    1.1090   -0.6040 hc        1 880      0.062700
     45 H172        2.4840    1.8980   -1.6020 hc        1 880      0.062700
     46 H181        3.0880    0.6680   -3.5930 h1        1 880      0.026950
     47 H182        4.6050    1.3930   -2.8940 h1        1 880      0.026950
     48 H19         4.9070   -0.8790   -3.5580 hn        1 880      0.363800
     49 H201        4.3040   -2.6660   -2.0950 h1        1 880      0.026950
     50 H202        2.8890   -2.0510   -3.0610 h1        1 880      0.026950
     51 H211        3.5790   -1.4290   -0.1050 hc        1 880      0.062700
     52 H212        2.1620   -2.3400   -0.7780 hc        1 880      0.062700
     53 H37        -0.5410    2.2590    3.8710 ha        1 880      0.153000
     54 H40         3.3820    0.2170    6.1920 ha        1 880      0.151000
     55 H41         2.9480   -0.3080    3.8030 ha        1 880      0.158000
     56 H47        -1.8260    2.6960    1.9160 ha        1 880      0.163000
     57 H48        -4.1840    2.7470    2.8930 h4        1 880      0.030100
     58 H54        -3.6700   -2.5080    3.4030 hn        1 880      0.422800
     59 H55        -6.1290   -0.9330    3.9110 h1        1 880      0.086700
     60 H561       -5.4390   -3.9100    4.4940 hc        1 880      0.048200
     61 H562       -6.4230   -3.3010    3.1000 hc        1 880      0.048200
     62 H571       -8.0840   -2.3060    4.6480 hc        1 880      0.044700
     63 H572       -7.8650   -4.0710    4.9800 hc        1 880      0.044700
     64 H581       -7.9560   -2.6920    7.0830 hc        1 880      0.041700
     65 H582       -6.3950   -3.5880    6.9040 hc        1 880      0.041700
     66 H591       -5.9490   -1.2780    7.6470 hc        1 880      0.044700
     67 H592       -6.9200   -0.6020    6.2790 hc        1 880      0.044700
     68 H601       -4.5000   -0.4690    5.7850 hc        1 880      0.048200
     69 H602       -4.3060   -2.2480    6.0660 hc        1 880      0.048200
@<TRIPOS>BOND
     1    1    2 1   
     2    1    5 1   
     3    1    6 1   
     4    2    3 2   
     5    2    9 1   
     6    3    4 1   
     7    4    5 2   
     8    4   15 1   
     9    5   16 1   
    10    6    7 1   
    11    6   36 1   
    12    6   37 1   
    13    7    8 1   
    14    7   38 1   
    15    7   39 1   
    16    8   40 1   
    17    8   41 1   
    18    8   42 1   
    19    9   10 1   
    20    9   14 1   
    21    9   43 1   
    22   10   11 1   
    23   10   44 1   
    24   10   45 1   
    25   11   12 1   
    26   11   46 1   
    27   11   47 1   
    28   12   13 1   
    29   12   48 1   
    30   13   14 1   
    31   13   49 1   
    32   13   50 1   
    33   14   51 1   
    34   14   52 1   
    35   15   17 ar  
    36   15   21 ar  
    37   16   24 ar  
    38   16   28 ar  
    39   17   18 ar  
    40   17   53 1   
    41   18   19 ar  
    42   18   22 1   
    43   19   20 ar  
    44   19   23 1   
    45   20   21 ar  
    46   20   54 1   
    47   21   55 1   
    48   24   25 ar  
    49   24   56 1   
    50   25   26 ar  
    51   25   57 1   
    52   26   27 ar  
    53   27   28 ar  
    54   27   29 1   
    55   29   30 1   
    56   29   58 1   
    57   30   31 1   
    58   30   35 1   
    59   30   59 1   
    60   31   32 1   
    61   31   60 1   
    62   31   61 1   
    63   32   33 1   
    64   32   62 1   
    65   32   63 1   
    66   33   34 1   
    67   33   64 1   
    68   33   65 1   
    69   34   35 1   
    70   34   66 1   
    71   34   67 1   
    72   35   68 1   
    73   35   69 1   
@<TRIPOS>SUBSTRUCTURE
     1 880         1 TEMP              0 ****  ****    0 ROOT
