@<TRIPOS>MOLECULE
880
   69    73     1     0     0
SMALL
bcc


@<TRIPOS>ATOM
      1 N1          0.9850    0.4340    2.4690 na        1 880     -0.179900
      2 C2          0.0490    0.1500    3.4860 cc        1 880      0.420800
      3 N3         -1.2180    0.2220    3.0110 nd        1 880     -0.657000
      4 C4         -1.1180    0.5500    1.6520 cd        1 880      0.373800
      5 C5          0.2490    0.6840    1.3030 cc        1 880     -0.257100
      6 C6          2.4170    0.3890    2.5660 c3        1 880      0.036300
      7 C7          3.0150   -1.0200    2.5750 c3        1 880     -0.103400
      8 C10         4.5140   -0.9390    2.7050 c3        1 880     -0.095100
      9 C16         0.4270   -0.1760    4.9010 c3        1 880     -0.083000
     10 C17        -0.2680    0.7640    5.8770 c3        1 880     -0.073900
     11 C18         0.0980    0.3920    7.3140 c3        1 880      0.163800
     12 N19        -0.1600   -1.0000    7.6270 n3        1 880     -0.820200
     13 C20         0.4110   -1.9370    6.6800 c3        1 880      0.163800
     14 C21         0.0580   -1.6190    5.2270 c3        1 880     -0.073900
     15 C35        -2.2840    0.6880    0.7970 ca        1 880     -0.086500
     16 C36         0.8780    0.9940    0.0130 ca        1 880      0.548800
     17 C37        -2.3160    1.6480   -0.2210 ca        1 880     -0.116000
     18 C38        -3.4400    1.7700   -1.0430 ca        1 880      0.016400
     19 C39        -4.5480    0.9350   -0.8460 ca        1 880      0.017400
     20 C40        -4.5210   -0.0180    0.1790 ca        1 880     -0.123000
     21 C41        -3.4010   -0.1410    0.9940 ca        1 880     -0.092000
     22 CL45       -3.4340    2.9450   -2.2700 cl        1 880     -0.078400
     23 CL46       -5.9280    1.0570   -1.8260 cl        1 880     -0.075400
     24 C47         1.0150    2.3440   -0.3770 ca        1 880     -0.409600
     25 C48         1.5980    2.5770   -1.6350 ca        1 880      0.460200
     26 N49         2.0270    1.6030   -2.4470 nb        1 880     -0.733000
     27 C50         1.8850    0.3000   -1.9750 ca        1 880      0.865900
     28 N51         1.3020   -0.0330   -0.7530 nb        1 880     -0.736000
     29 N54         2.4330   -0.7630   -2.7130 nh        1 880     -0.813900
     30 C55         2.6470   -0.6360   -4.1460 c3        1 880      0.206500
     31 C56         3.5070   -1.8060   -4.6610 c3        1 880     -0.093900
     32 C57         3.8180   -1.6140   -6.1310 c3        1 880     -0.074400
     33 C58         2.5540   -1.5020   -6.9570 c3        1 880     -0.080400
     34 C59         1.6620   -0.3920   -6.4390 c3        1 880     -0.074400
     35 C60         1.3480   -0.5730   -4.9690 c3        1 880     -0.093900
     36 H061        2.7230    0.9250    3.5110 h1        1 880      0.063700
     37 H062        2.8430    0.9590    1.6900 h1        1 880      0.063700
     38 H071        2.7420   -1.5540    1.6270 hc        1 880      0.059700
     39 H072        2.5870   -1.6090    3.4290 hc        1 880      0.059700
     40 H101        4.9510   -1.9670    2.7140 hc        1 880      0.038700
     41 H102        4.9570   -0.3760    1.8490 hc        1 880      0.038700
     42 H103        4.8050   -0.4250    3.6530 hc        1 880      0.038700
     43 H16         1.5420   -0.0590    5.0260 hc        1 880      0.050700
     44 H171        0.0490    1.8210    5.6860 hc        1 880      0.062700
     45 H172       -1.3790    0.7050    5.7390 hc        1 880      0.062700
     46 H181        1.1800    0.6700    7.4850 h1        1 880      0.026950
     47 H182       -0.5270    1.0110    8.0180 h1        1 880      0.026950
     48 H19         0.1640   -1.2090    8.5530 hn        1 880      0.363800
     49 H201        1.5380   -1.9880    6.7630 h1        1 880      0.026950
     50 H202        0.0060   -2.9560    6.9360 h1        1 880      0.026950
     51 H211       -1.0390   -1.7760    5.0570 hc        1 880      0.062700
     52 H212        0.6180   -2.3200    4.5580 hc        1 880      0.062700
     53 H37        -1.4500    2.3120   -0.3760 ha        1 880      0.153000
     54 H40        -5.3910   -0.6740    0.3400 ha        1 880      0.151000
     55 H41        -3.3930   -0.8910    1.8000 ha        1 880      0.158000
     56 H47         0.6760    3.1650    0.2640 ha        1 880      0.163000
     57 H48         1.7250    3.6070   -2.0210 h4        1 880      0.030100
     58 H54         2.1110   -1.6680   -2.4320 hn        1 880      0.422800
     59 H55         3.2250    0.3200   -4.3260 h1        1 880      0.086700
     60 H561        4.4650   -1.8600   -4.0820 hc        1 880      0.048200
     61 H562        2.9620   -2.7740   -4.5150 hc        1 880      0.048200
     62 H571        4.4370   -0.6890   -6.2660 hc        1 880      0.044700
     63 H572        4.4280   -2.4830   -6.4940 hc        1 880      0.044700
     64 H581        2.8200   -1.3020   -8.0270 hc        1 880      0.041700
     65 H582        1.9970   -2.4750   -6.9250 hc        1 880      0.041700
     66 H591        2.1670    0.5980   -6.5940 hc        1 880      0.044700
     67 H592        0.7050   -0.3760   -7.0220 hc        1 880      0.044700
     68 H601        0.7610   -1.5170   -4.8230 hc        1 880      0.048200
     69 H602        0.7160    0.2820   -4.6170 hc        1 880      0.048200
@<TRIPOS>BOND
     1    1    2 1   
     2    1    5 1   
     3    1    6 1   
     4    2    3 2   
     5    2    9 1   
     6    3    4 1   
     7    4    5 2   
     8    4   15 1   
     9    5   16 1   
    10    6    7 1   
    11    6   36 1   
    12    6   37 1   
    13    7    8 1   
    14    7   38 1   
    15    7   39 1   
    16    8   40 1   
    17    8   41 1   
    18    8   42 1   
    19    9   10 1   
    20    9   14 1   
    21    9   43 1   
    22   10   11 1   
    23   10   44 1   
    24   10   45 1   
    25   11   12 1   
    26   11   46 1   
    27   11   47 1   
    28   12   13 1   
    29   12   48 1   
    30   13   14 1   
    31   13   49 1   
    32   13   50 1   
    33   14   51 1   
    34   14   52 1   
    35   15   17 ar  
    36   15   21 ar  
    37   16   24 ar  
    38   16   28 ar  
    39   17   18 ar  
    40   17   53 1   
    41   18   19 ar  
    42   18   22 1   
    43   19   20 ar  
    44   19   23 1   
    45   20   21 ar  
    46   20   54 1   
    47   21   55 1   
    48   24   25 ar  
    49   24   56 1   
    50   25   26 ar  
    51   25   57 1   
    52   26   27 ar  
    53   27   28 ar  
    54   27   29 1   
    55   29   30 1   
    56   29   58 1   
    57   30   31 1   
    58   30   35 1   
    59   30   59 1   
    60   31   32 1   
    61   31   60 1   
    62   31   61 1   
    63   32   33 1   
    64   32   62 1   
    65   32   63 1   
    66   33   34 1   
    67   33   64 1   
    68   33   65 1   
    69   34   35 1   
    70   34   66 1   
    71   34   67 1   
    72   35   68 1   
    73   35   69 1   
@<TRIPOS>SUBSTRUCTURE
     1 880         1 TEMP              0 ****  ****    0 ROOT
