@<TRIPOS>MOLECULE
881
   89    95     1     0     0
SMALL
bcc


@<TRIPOS>ATOM
      1 NAA        -7.6310   -0.2790    2.0590 nh        1 881     -0.943800
      2 NAB         7.6300    0.2880    2.0610 nh        1 881     -0.943800
      3 CAC       -10.8160   -1.6250   -1.5850 ca        1 881     -0.233300
      4 CAD        10.8160    1.6190   -1.5880 ca        1 881     -0.233300
      5 CAE        -9.8750   -0.7390   -2.1050 ca        1 881     -0.099000
      6 CAF         9.8750    0.7300   -2.1050 ca        1 881     -0.099000
      7 CAG       -10.5900   -2.1650   -0.3040 ca        1 881      0.395200
      8 CAH        10.5900    2.1640   -0.3090 ca        1 881      0.395200
      9 CAI        -8.7460   -0.4210   -1.3440 ca        1 881     -0.191300
     10 CAJ         8.7460    0.4160   -1.3430 ca        1 881     -0.191300
     11 CAK        -4.6090   -1.2840    1.9280 ca        1 881     -0.216000
     12 CAL         4.6080    1.2920    1.9240 ca        1 881     -0.216000
     13 CAM        -0.7170   -0.0630    3.8560 cc        1 881     -0.259300
     14 CAN         0.7150    0.0790    3.8560 cc        1 881     -0.259300
     15 CAO        -3.3410   -1.1250    2.4690 ca        1 881     -0.067000
     16 CAP         3.3400    1.1350    2.4660 ca        1 881     -0.067000
     17 CAQ        -4.0830    0.3640    0.2250 ca        1 881     -0.210000
     18 CAR         4.0820   -0.3630    0.2280 ca        1 881     -0.210000
     19 CAS        -0.6210    2.8180   -2.8880 c3        1 881      0.151300
     20 CAT        -2.7260    3.8850   -2.3960 c3        1 881      0.151300
     21 CAU         0.6230   -2.8310   -2.8750 c3        1 881      0.151300
     22 CAV         2.7270   -3.8960   -2.3770 c3        1 881      0.151300
     23 CAW        -0.6000    2.1120   -1.5320 c3        1 881     -0.131900
     24 CAX        -2.7980    3.2230   -1.0190 c3        1 881     -0.131900
     25 CAY         0.6010   -2.1190   -1.5220 c3        1 881     -0.131900
     26 CAZ         2.7990   -3.2280   -1.0040 c3        1 881     -0.131900
     27 NBA        -9.5160   -1.8740    0.4490 nb        1 881     -0.666000
     28 NBB         9.5160    1.8770    0.4440 nb        1 881     -0.666000
     29 NBC        -1.3910    4.0460   -2.9380 n3        1 881     -0.798200
     30 NBD         1.3920   -4.0590   -2.9200 n3        1 881     -0.798200
     31 NBE        -6.2280   -0.7610    0.1310 ne        1 881     -0.666100
     32 OBI        -0.0000    0.0040    1.6870 os        1 881     -0.313800
     33 CBJ        -7.3800   -0.6950    0.7540 cf        1 881      0.596200
     34 CBK         7.3800    0.6980    0.7540 ce        1 881      0.596200
     35 CBL        -5.0010   -0.5480    0.7870 ca        1 881      0.201400
     36 CBM         5.0000    0.5510    0.7860 ca        1 881      0.201400
     37 CBN        -8.6070   -1.0120   -0.0730 ca        1 881      0.360000
     38 CBO         8.6070    1.0120   -0.0740 ca        1 881      0.360000
     39 CBP        -2.8080    0.5160    0.7800 ca        1 881      0.170100
     40 CBQ         2.8070   -0.5130    0.7830 ca        1 881      0.170100
     41 CBR        -1.1160   -0.1000    2.5270 cd        1 881      0.319200
     42 CBS         1.1150    0.1110    2.5270 cd        1 881      0.319200
     43 CBT        -2.4150   -0.2330    1.9130 ca        1 881     -0.172500
     44 CBU         2.4140    0.2410    1.9130 ca        1 881     -0.172500
     45 CBV        -2.0270    1.9070   -1.0250 c3        1 881      0.143100
     46 CBW         2.0270   -1.9120   -1.0160 c3        1 881      0.143100
     47 HNAA       -6.8630   -0.2480    2.6890 hn        1 881      0.423300
     48 HNAB       -8.5090   -0.5130    2.4570 hn        1 881      0.423300
     49 HNAC        6.8620    0.2600    2.6910 hn        1 881      0.423300
     50 HNAD        8.5080    0.5240    2.4580 hn        1 881      0.423300
     51 HAC       -11.7140   -1.9020   -2.1530 ha        1 881      0.147000
     52 HAD        11.7140    1.8940   -2.1570 ha        1 881      0.147000
     53 HAE       -10.0120   -0.2950   -3.1030 ha        1 881      0.144000
     54 HAF        10.0130    0.2830   -3.1000 ha        1 881      0.144000
     55 HAG       -11.3090   -2.8730    0.1470 h4        1 881      0.026100
     56 HAH        11.3080    2.8740    0.1390 h4        1 881      0.026100
     57 HAI        -7.9780    0.2650   -1.7280 ha        1 881      0.163000
     58 HAJ         7.9790   -0.2720   -1.7240 ha        1 881      0.163000
     59 HAK        -5.2950   -2.0180    2.3760 ha        1 881      0.133000
     60 HAL         5.2940    2.0280    2.3690 ha        1 881      0.133000
     61 HAM        -1.3530   -0.1200    4.7330 ha        1 881      0.156000
     62 HAN         1.3510    0.1390    4.7330 ha        1 881      0.156000
     63 HAO        -3.0460   -1.7140    3.3520 ha        1 881      0.139000
     64 HAP         3.0440    1.7290    3.3460 ha        1 881      0.139000
     65 HAQ        -4.3780    0.9560   -0.6540 ha        1 881      0.149000
     66 HAR         4.3790   -0.9590   -0.6480 ha        1 881      0.149000
     67 HAS         0.4370    3.0500   -3.1940 h1        1 881      0.053200
     68 HASA       -1.0570    2.1170   -3.6550 h1        1 881      0.053200
     69 HAT        -3.3130    3.2610   -3.1280 h1        1 881      0.053200
     70 HATA       -3.2100    4.8990   -2.3400 h1        1 881      0.053200
     71 HAU        -0.4350   -3.0650   -3.1810 h1        1 881      0.053200
     72 HAUA        1.0580   -2.1330   -3.6450 h1        1 881      0.053200
     73 HAV         3.3140   -3.2760   -3.1120 h1        1 881      0.053200
     74 HAVA        3.2120   -4.9100   -2.3170 h1        1 881      0.053200
     75 HAW        -0.0920    1.1190   -1.6290 hc        1 881      0.060950
     76 HAWA       -0.0240    2.7120   -0.7810 hc        1 881      0.060950
     77 HAX        -2.3640    3.8970   -0.2360 hc        1 881      0.060950
     78 HAXA       -3.8690    3.0410   -0.7490 hc        1 881      0.060950
     79 HAY         0.0930   -1.1270   -1.6240 hc        1 881      0.060950
     80 HAYA        0.0250   -2.7160   -0.7690 hc        1 881      0.060950
     81 HAZ         2.3640   -3.8990   -0.2180 hc        1 881      0.060950
     82 HAZA        3.8690   -3.0450   -0.7340 hc        1 881      0.060950
     83 HNBC       -0.9060    4.7690   -2.4360 hn        1 881      0.352800
     84 HNBD        0.9080   -4.7810   -2.4150 hn        1 881      0.352800
     85 HBV        -2.5480    1.1440   -1.6650 h1        1 881      0.056700
     86 HBW         2.5490   -1.1520   -1.6590 h1        1 881      0.056700
     87 NBF         6.2280    0.7610    0.1300 nf        1 881     -0.666100
     88 OBG        -1.8830    1.4310    0.3250 os        1 881     -0.316900
     89 OBH         1.8830   -1.4300    0.3320 os        1 881     -0.316900
@<TRIPOS>BOND
     1    1   33 1   
     2    1   47 1   
     3    1   48 1   
     4    2   34 1   
     5    2   49 1   
     6    2   50 1   
     7    3    5 ar  
     8    3    7 ar  
     9    3   51 1   
    10    4    6 ar  
    11    4    8 ar  
    12    4   52 1   
    13    5    9 ar  
    14    5   53 1   
    15    6   10 ar  
    16    6   54 1   
    17    7   27 ar  
    18    7   55 1   
    19    8   28 ar  
    20    8   56 1   
    21    9   37 ar  
    22    9   57 1   
    23   10   38 ar  
    24   10   58 1   
    25   11   15 ar  
    26   11   35 ar  
    27   11   59 1   
    28   12   16 ar  
    29   12   36 ar  
    30   12   60 1   
    31   13   14 1   
    32   13   41 2   
    33   13   61 1   
    34   14   42 2   
    35   14   62 1   
    36   15   43 ar  
    37   15   63 1   
    38   16   44 ar  
    39   16   64 1   
    40   17   35 ar  
    41   17   39 ar  
    42   17   65 1   
    43   18   36 ar  
    44   18   40 ar  
    45   18   66 1   
    46   19   23 1   
    47   19   29 1   
    48   19   67 1   
    49   19   68 1   
    50   20   24 1   
    51   20   29 1   
    52   20   69 1   
    53   20   70 1   
    54   21   25 1   
    55   21   30 1   
    56   21   71 1   
    57   21   72 1   
    58   22   26 1   
    59   22   30 1   
    60   22   73 1   
    61   22   74 1   
    62   23   45 1   
    63   23   75 1   
    64   23   76 1   
    65   24   45 1   
    66   24   77 1   
    67   24   78 1   
    68   25   46 1   
    69   25   79 1   
    70   25   80 1   
    71   26   46 1   
    72   26   81 1   
    73   26   82 1   
    74   27   37 ar  
    75   28   38 ar  
    76   29   83 1   
    77   30   84 1   
    78   31   33 2   
    79   31   35 1   
    80   32   41 1   
    81   32   42 1   
    82   33   37 1   
    83   34   38 1   
    84   34   87 2   
    85   36   87 1   
    86   39   43 ar  
    87   39   88 1   
    88   40   44 ar  
    89   40   89 1   
    90   41   43 1   
    91   42   44 1   
    92   45   85 1   
    93   45   88 1   
    94   46   86 1   
    95   46   89 1   
@<TRIPOS>SUBSTRUCTURE
     1 881         1 TEMP              0 ****  ****    0 ROOT
