@<TRIPOS>MOLECULE
881
   89    81     1     0     0
SMALL
bcc


@<TRIPOS>ATOM
      1 NAA         2.9170   -2.4090    5.6670 n3        1 881     -0.383000
      2 NAB        -4.4600   -3.1620   -4.5630 n3        1 881     -0.383000
      3 CAC         1.8930   -3.4070   10.6600 c1        1 881     -0.121833
      4 CAD        -3.9000   -6.5890   -8.2610 c1        1 881     -0.121833
      5 CAE         3.0390   -2.7140   10.3520 c1        1 881     -0.121833
      6 CAF        -4.7210   -5.5290   -8.4960 c1        1 881     -0.121833
      7 CAG         0.8810   -3.5240    9.7190 c1        1 881     -0.070000
      8 CAH        -2.9730   -6.5350   -7.2170 c1        1 881     -0.121833
      9 CAI         3.1790   -2.1350    9.1080 c1        1 881     -0.126000
     10 CAJ        -4.6380   -4.4230   -7.7180 c1        1 881     -0.121833
     11 CAK         0.3460   -1.4230    3.8420 c1        1 881     -0.207000
     12 CAL        -2.1550   -2.3000   -2.7610 c1        1 881     -0.207000
     13 CAM        -1.5600    1.2840    1.0010 c1        1 881     -0.169000
     14 CAN        -1.8670    1.0490   -0.3320 c1        1 881     -0.169000
     15 CAO         0.0790   -0.7840    2.6310 c1        1 881     -0.071000
     16 CAP        -1.6350   -1.3880   -1.8090 c1        1 881     -0.071000
     17 CAQ         0.9860    0.6970    4.8280 c1        1 881     -0.197500
     18 CAR        -1.0660   -1.0440   -4.5510 c1        1 881     -0.197500
     19 CAS         2.5520    5.7380    4.1980 c3        1 881     -0.077250
     20 CAT         3.9830    3.9880    3.6910 c3        1 881     -0.077250
     21 CAU         0.9690    3.2230   -6.7600 c3        1 881     -0.077250
     22 CAV        -1.3110    3.5120   -5.9000 c3        1 881     -0.077250
     23 CAW         1.3830    4.9470    3.6520 c3        1 881     -0.189500
     24 CAX         2.8260    3.1910    3.1430 c3        1 881     -0.189500
     25 CAY         1.2920    2.3010   -5.6210 c3        1 881     -0.189500
     26 CAZ        -0.9990    2.5850   -4.7530 c3        1 881     -0.189500
     27 NBA         1.0240   -2.9440    8.4770 n1        1 881     -0.140000
     28 NBB        -2.8900   -5.4270   -6.4390 n1        1 881     -0.140000
     29 NBC         3.5660    4.9780    4.4230 n3        1 881     -0.284500
     30 NBD        -0.1130    4.1730   -6.4300 n3        1 881     -0.284500
     31 NBE         0.9780   -1.0470    6.3400 n1        1 881     -0.239000
     32 NBF        -2.1530   -2.9900   -5.2810 n1        1 881     -0.239000
     33 OBG         0.4900    2.7460    3.4320 os        1 881     -0.222000
     34 OBH         0.4490    0.8930   -3.8780 os        1 881     -0.222000
     35 OBI         0.0380   -0.0510    0.1390 os        1 881     -0.120000
     36 CBJ         1.9820   -1.8700    6.7000 c2        1 881      0.187000
     37 CBK        -3.4180   -3.4830   -5.4790 c2        1 881      0.186000
     38 CBL         0.8000   -0.6800    4.9440 c1        1 881      0.054500
     39 CBM        -1.8720   -2.1290   -4.1260 c1        1 881      0.054500
     40 CBN         2.1640   -2.2530    8.1690 c1        1 881      0.002000
     41 CBO        -3.7060   -4.3720   -6.6720 c1        1 881      0.002000
     42 CBP         0.7190    1.3410    3.6120 c2        1 881      0.108500
     43 CBQ        -0.5520   -0.1450   -3.6130 c2        1 881      0.108500
     44 CBR        -0.3830    0.6060    1.2960 c2        1 881      0.013500
     45 CBS        -0.8730    0.2200   -0.8640 c2        1 881      0.013500
     46 CBT         0.2660    0.6010    2.5150 c2        1 881     -0.052000
     47 CBU        -0.8400   -0.3190   -2.2270 c2        1 881     -0.052000
     48 CBV         1.5030    3.4240    3.9420 c3        1 881      0.030000
     49 CBW         0.0840    1.6240   -5.0830 c3        1 881      0.030000
     50 HNAA        3.2250   -1.8400    4.9480 hn        1 881      0.219500
     51 HNAB        3.2280   -3.3080    5.7300 hn        1 881      0.219500
     52 HNAC       -5.3070   -2.9690   -4.8770 hn        1 881      0.219500
     53 HNAD       -4.2970   -3.1870   -3.6460 hn        1 881      0.219500
     54 HAC         1.7910   -3.8230   11.5490 ha        1 881      0.151167
     55 HAD        -3.9610   -7.4170   -8.8430 ha        1 881      0.151167
     56 HAE         3.7770   -2.6290   11.0350 ha        1 881      0.151167
     57 HAF        -5.3680   -5.5670   -9.2220 ha        1 881      0.151167
     58 HAG         0.0800   -4.0070    9.9330 ha        1 881      0.163000
     59 HAH        -2.3910   -7.2870   -7.0490 ha        1 881      0.151167
     60 HAI         4.0140   -1.6280    8.8820 ha        1 881      0.163000
     61 HAJ        -5.2290   -3.6560   -7.8870 ha        1 881      0.151167
     62 HAK         0.2180   -2.3710    3.9230 ha        1 881      0.133500
     63 HAL        -2.7200   -3.0590   -2.4630 ha        1 881      0.133500
     64 HAM        -2.0950    1.8470    1.6430 DU        1 881      0.172000
     65 HAN        -2.6660    1.4120   -0.8310 DU        1 881      0.172000
     66 HAO        -0.2590   -1.3380    1.8110 ha        1 881      0.147500
     67 HAP        -1.8370   -1.5100   -0.8360 ha        1 881      0.147500
     68 HAQ         1.3050    1.2160    5.5990 ha        1 881      0.148500
     69 HAR        -0.8610   -0.9220   -5.5350 ha        1 881      0.148500
     70 HAS         2.2900    6.1610    5.0200 h1        1 881      0.079875
     71 HASA        2.8030    6.4200    3.5540 h1        1 881      0.079875
     72 HAT         4.5450    4.3600    2.9000 h1        1 881      0.079875
     73 HATA        4.5560    3.3930    4.2450 h1        1 881      0.079875
     74 HAU         1.7540    3.7170   -6.9900 h1        1 881      0.079875
     75 HAUA        0.6930    2.6840   -7.5360 h1        1 881      0.079875
     76 HAV        -1.9460    4.2050   -5.5890 h1        1 881      0.079875
     77 HAVA       -1.7260    3.0030   -6.6060 h1        1 881      0.079875
     78 HAW         0.5680    5.2790    4.0530 hc        1 881      0.098625
     79 HAWA        1.3360    5.0800    2.7000 hc        1 881      0.098625
     80 HAX         2.6770    3.4500    2.1950 hc        1 881      0.098625
     81 HAXA        3.0580    2.2170    3.1800 hc        1 881      0.098625
     82 HAY         1.9210    1.6240   -5.9310 hc        1 881      0.098625
     83 HAYA        1.7230    2.8340   -4.8840 hc        1 881      0.098625
     84 HAZ        -1.8040    2.0860   -4.5230 hc        1 881      0.098625
     85 HAZA       -0.7290    3.1120   -3.9900 hc        1 881      0.098625
     86 HNBC        4.2830    5.4920    4.6800 hn        1 881      0.157500
     87 HNBD       -0.3310    4.6470   -7.1630 hn        1 881      0.157500
     88 HBV         1.6270    3.2420    4.9200 h1        1 881      0.099500
     89 HBW        -0.2450    0.9940   -5.7450 h1        1 881      0.099500
@<TRIPOS>BOND
     1    1   36 1   
     2    1   50 1   
     3    1   51 1   
     4    2   37 1   
     5    2   52 1   
     6    2   53 1   
     7    3    5 1   
     8    3   54 1   
     9    4    8 1   
    10    4   55 1   
    11    5   56 1   
    12    6   10 1   
    13    6   57 1   
    14    7   27 1   
    15    7   58 1   
    16    8   59 1   
    17    9   40 1   
    18    9   60 1   
    19   10   61 1   
    20   11   38 1   
    21   11   62 1   
    22   12   39 1   
    23   12   63 1   
    24   13   14 1   
    25   13   44 1   
    26   14   45 1   
    27   15   46 1   
    28   15   66 1   
    29   16   47 1   
    30   16   67 1   
    31   17   42 1   
    32   17   68 1   
    33   18   43 1   
    34   18   69 1   
    35   19   23 1   
    36   19   29 1   
    37   19   70 1   
    38   19   71 1   
    39   20   24 1   
    40   20   29 1   
    41   20   72 1   
    42   20   73 1   
    43   21   25 1   
    44   21   30 1   
    45   21   74 1   
    46   21   75 1   
    47   22   26 1   
    48   22   30 1   
    49   22   76 1   
    50   22   77 1   
    51   23   48 1   
    52   23   78 1   
    53   23   79 1   
    54   24   48 1   
    55   24   80 1   
    56   24   81 1   
    57   25   49 1   
    58   25   82 1   
    59   25   83 1   
    60   26   49 1   
    61   26   84 1   
    62   26   85 1   
    63   28   41 1   
    64   29   86 1   
    65   30   87 1   
    66   31   36 1   
    67   32   37 1   
    68   33   42 1   
    69   33   48 1   
    70   34   43 1   
    71   34   49 1   
    72   35   44 1   
    73   35   45 1   
    74   36   40 1   
    75   37   41 1   
    76   42   46 1   
    77   43   47 1   
    78   44   46 1   
    79   45   47 1   
    80   48   88 1   
    81   49   89 1   
@<TRIPOS>SUBSTRUCTURE
     1 881         1 TEMP              0 ****  ****    0 ROOT
