@<TRIPOS>MOLECULE
881
   91    87     1     0     0
SMALL
bcc


@<TRIPOS>ATOM
      1 NAA       -44.2960   72.3570   -5.9170 n8        1 881     -0.375000
      2 NAB       -42.8210   69.6510  -19.4660 n9        1 881     -0.426000
      3 CAC       -38.5880   75.7870   -3.2550 c1        1 881     -0.764000
      4 CAD       -37.9430   63.4220  -20.1120 c2        1 881     -0.547000
      5 CAE       -39.4800   74.9960   -3.7210 c1        1 881      0.385000
      6 CAF       -38.3810   62.6460  -19.0260 c1        1 881     -0.045000
      7 CAG       -37.6860   76.5840   -2.7770 c1        1 881      0.385000
      8 CAH       -36.6710   63.3490  -20.5150 c1        1 881      0.448000
      9 CAI       -41.3030   74.0900   -6.5940 c3        1 881     -0.229000
     10 CAJ       -39.7240   62.6300  -18.4910 c3        1 881     -0.200000
     11 CAK       -44.6770   71.1910   -8.8170 c2        1 881      0.049000
     12 CAL       -42.9270   67.3670  -17.2340 c1        1 881     -0.100000
     13 CAM       -45.4600   69.9950  -12.8260 c3        1 881     -0.248000
     14 CAN       -45.0180   69.5180  -14.1630 c1        1 881      0.028000
     15 CAO       -45.4440   70.4030   -9.8010 c3        1 881     -0.127000
     16 CAP       -43.3700   68.3990  -16.3070 c3        1 881     -0.189000
     17 CAQ       -42.9220   69.5350   -8.7380 c2        1 881      0.233000
     18 CAR       -41.3150   66.4870  -15.5440 c1        1 881     -0.149000
     19 CAS       936.4380-1498.2750   95.0610 c1        1 881      0.281000
     20 CAT       -46.0080   67.7300   -6.6490 c1        1 881     -0.227250
     21 CAU       -40.2490   68.6260  -11.1710 c2        1 881     -0.056000
     22 CAV       -40.0220   70.6340  -15.7370 c1        1 881     -0.227250
     23 CAW       -42.8120   65.3280  -10.7970 c3        1 881     -0.227000
     24 CAX       -46.8290   67.9290   -7.4960 c1        1 881     -0.227250
     25 CAY       -39.4950   68.0360  -12.3250 c3        1 881     -0.221000
     26 CAZ       -40.6220   70.6840  -16.7710 c1        1 881     -0.227250
     27 NBA       -41.7120   72.7710   -4.4940 n2        1 881     -0.227000
     28 NBB       -41.3140   63.3520  -20.3230 n2        1 881     -0.166000
     29 NBC       935.3200-1498.4210   95.3050 n2        1 881     -0.057000
     30 NBD       -39.8180   69.2330  -10.1350 n2        1 881     -0.277000
     31 NBE       -42.6130   71.5650   -7.4910 n2        1 881     -0.254000
     32 OBI       -43.5830   68.5690  -12.5090 os        1 881     -0.123000
     33 CBJ       -43.0180   72.2420   -6.4400 c2        1 881      0.192000
     34 CBK       -41.2310   64.5730  -18.3300 c1        1 881      0.095000
     35 CBL       -43.4540   70.7750   -8.2900 c2        1 881     -0.105000
     36 CBM       -41.9600   66.4500  -16.7810 c2        1 881     -0.220000
     37 CBN       -41.9410   73.0610   -5.7200 c2        1 881      0.029000
     38 CBO       -40.7860   63.4770  -19.1600 c2        1 881      0.053000
     39 CBP       -43.7990   68.6040   -9.4970 c3        1 881      0.054000
     40 CBQ       -41.6640   67.5940  -14.6310 c3        1 881      0.021000
     41 CBR       -44.5260   69.3270  -11.8380 c2        1 881      0.114000
     42 CBS       -43.8450   68.7250  -13.9200 c2        1 881     -0.155000
     43 CBT       -44.5820   69.4020  -10.4930 c2        1 881     -0.297000
     44 CBU       -43.0000   68.2330  -14.8630 c2        1 881      0.079000
     45 CBV       -43.7760   66.3620  -10.2710 c3        1 881     -0.013000
     46 CBW       -40.2330   66.8280  -12.8830 c3        1 881     -0.025000
     47 HNAA      -44.9700   71.6650   -6.1460 hn        1 881      0.223000
     48 HNAB      -45.1090   72.1690   -8.5300 ha        1 881      0.171000
     49 HNAC      -43.0650   68.7780  -19.0390 hn        1 881      0.140667
     50 HNAD      -43.6580   70.1410  -19.7050 hn        1 881      0.140667
     51 HAC       -42.0850   74.7160   -7.0880 hc        1 881      0.108667
     52 HAD       -38.6140   64.1200  -20.6620 ha        1 881      0.170000
     53 HAE       -40.6300   74.7580   -5.9980 hc        1 881      0.108667
     54 HAF       -39.6250   62.9060  -17.3980 hc        1 881      0.168500
     55 HAG       -40.9990   73.3070   -4.0360 hn        1 881      0.197000
     56 HAH       -40.9920   62.5800  -20.8710 hn        1 881      0.188000
     57 HAI       -40.6940   73.5870   -7.3870 hc        1 881      0.108667
     58 HAJ       -40.0640   61.5490  -18.5050 hc        1 881      0.168500
     59 HAK       -45.9500   71.0920  -10.5320 hc        1 881      0.141500
     60 HAL       -44.4890   68.5190  -16.4100 hc        1 881      0.179000
     61 HAM       -46.5270   69.7050  -12.6400 hc        1 881      0.160000
     62 HAN       -45.3900   71.1150  -12.7840 hc        1 881      0.160000
     63 HAO       -46.2690   69.8640   -9.2350 hc        1 881      0.141500
     64 HAP       -42.9180   69.3740  -16.6810 hc        1 881      0.179000
     65 HAQ       -44.5470   68.1740   -8.7390 h1        1 881      0.140000
     66 HAR       -40.8890   68.4150  -14.8290 h1        1 881      0.143000
     67 HAS       -42.4660   65.6140  -11.8220 hc        1 881      0.100000
     68 HASA      937.4960-1498.1370   94.8300 ha        1 881      0.367000
     69 HAT       -44.2520   66.0270   -9.3100 h1        1 881      0.076500
     70 HATA      -45.2980   67.5360   -5.8820 ha        1 881      0.229250
     71 HAU       -39.4000   68.8230  -13.1210 hc        1 881      0.101500
     72 HAUA      -38.4610   67.7210  -12.0280 hc        1 881      0.101500
     73 HAV       -39.4800   70.6090  -14.8260 ha        1 881      0.229250
     74 HAVA      -41.8740   69.2320   -8.5230 ha        1 881      0.229000
     75 HAW       -43.3300   64.3410  -10.8470 hc        1 881      0.100000
     76 HAWA      -41.9210   65.2420  -10.1300 hc        1 881      0.100000
     77 HAX       -44.5710   66.6000  -11.0260 h1        1 881      0.076500
     78 HAXA      -47.5800   68.0790   -8.2320 ha        1 881      0.229250
     79 HAY       -41.5760   69.9170  -13.1030 ha        1 881      0.000500
     80 HAYA      -41.2660   70.4890  -13.2960 ha        1 881      0.000500
     81 HAZ       -39.6710   66.3760  -13.7420 h1        1 881      0.113000
     82 HAZA      -41.1520   70.7270  -17.6950 ha        1 881      0.229250
     83 HNBC      934.3580-1498.5460   95.5150 hn        1 881      0.409000
     84 HNBD      -38.8290   69.3430  -10.0530 hn        1 881      0.139000
     85 HBV       -41.3560   68.4960  -11.2590 h4        1 881      0.171000
     86 HBW       -40.3830   66.0550  -12.0800 h1        1 881      0.113000
     87 OBG       -43.0080   67.5530  -10.0190 os        1 881     -0.251000
     88 OBH       -41.5620   67.1800  -13.2670 os        1 881     -0.250000
     89 HAA3      -44.3810   72.7510   -5.0060 hn        1 881      0.223000
     90 HAB3      -42.3070   69.4730  -20.3030 hn        1 881      0.140667
     91 NBF       -41.5840   65.4430  -17.6540 n2        1 881      0.169000
@<TRIPOS>BOND
     1    1   33 1   
     2    1   47 1   
     3    1   89 1   
     4    2   49 1   
     5    2   50 1   
     6    2   90 1   
     7    3    5 1   
     8    3    7 1   
     9    4    6 1   
    10    4    8 1   
    11    4   52 1   
    12    6   10 1   
    13    9   37 1   
    14    9   51 1   
    15    9   53 1   
    16    9   57 1   
    17   10   38 1   
    18   10   54 1   
    19   10   58 1   
    20   11   15 1   
    21   11   35 1   
    22   11   48 1   
    23   12   16 1   
    24   12   36 1   
    25   13   14 1   
    26   13   41 1   
    27   13   61 1   
    28   13   62 1   
    29   14   42 1   
    30   15   43 1   
    31   15   59 1   
    32   15   63 1   
    33   16   44 1   
    34   16   60 1   
    35   16   64 1   
    36   17   35 1   
    37   17   39 1   
    38   17   74 1   
    39   18   36 1   
    40   18   40 1   
    41   19   29 1   
    42   19   68 1   
    43   20   24 1   
    44   20   70 1   
    45   21   25 1   
    46   21   30 1   
    47   21   85 1   
    48   22   26 1   
    49   22   73 1   
    50   23   45 1   
    51   23   67 1   
    52   23   75 1   
    53   23   76 1   
    54   24   78 1   
    55   25   46 1   
    56   25   71 1   
    57   25   72 1   
    58   26   82 1   
    59   27   37 1   
    60   27   55 1   
    61   28   38 1   
    62   28   56 1   
    63   29   83 1   
    64   30   84 1   
    65   31   33 1   
    66   31   35 1   
    67   32   41 1   
    68   32   42 1   
    69   33   37 1   
    70   34   38 1   
    71   34   91 1   
    72   36   91 1   
    73   39   43 1   
    74   39   65 1   
    75   39   87 1   
    76   40   44 1   
    77   40   66 1   
    78   40   88 1   
    79   41   43 1   
    80   42   44 1   
    81   45   69 1   
    82   45   77 1   
    83   45   87 1   
    84   46   81 1   
    85   46   86 1   
    86   46   88 1   
    87   79   80 1   
@<TRIPOS>SUBSTRUCTURE
     1 881         1 TEMP              0 ****  ****    0 ROOT
