@<TRIPOS>MOLECULE
882
   75    78     1     0     0
SMALL
bcc


@<TRIPOS>ATOM
      1 N1          0.3890    0.1330   -0.3370 na        1 882      0.001900
      2 C4          1.7610    0.1380   -0.0830 cc        1 882     -0.048600
      3 C5          1.9660    0.1520    1.3200 cd        1 882     -0.122000
      4 C6         -0.1890    0.1270   -1.6760 c3        1 882      0.024000
      5 C7          2.8070    0.1470   -1.1360 c3        1 882     -0.027100
      6 C8          2.9560    1.5100   -1.7920 c3        1 882     -0.081400
      7 C10         3.6520    2.7470   -3.8630 c3        1 882     -0.122400
      8 C13        -0.7420   -1.2400   -2.0790 c3        1 882     -0.110600
      9 C15         5.3800   -0.9570    2.4120 ca        1 882     -0.166000
     10 C17        -3.8670    2.0890    3.4240 ca        1 882     -0.171000
     11 C20        -5.1720    2.2890    3.8570 ca        1 882     -0.106000
     12 C21         3.5930    1.1390    2.9010 ca        1 882     -0.097000
     13 C22         0.1050    1.4250    5.4270 ca        1 882     -0.167500
     14 C24         4.8170    1.1190    3.5600 ca        1 882     -0.166000
     15 C26        -4.6760    0.5300    1.7440 ca        1 882     -0.171000
     16 C28        -0.1380    0.2180    6.1060 ca        1 882      0.121900
     17 O7          6.8110    4.6840   -6.9430 o         1 882     -0.844300
     18 O6          5.5140    3.0580   -7.7580 o         1 882     -0.844300
     19 C35         4.9100    4.0180   -5.6310 c3        1 882     -0.235400
     20 C11         4.3970    2.6550   -5.1950 c3        1 882      0.171100
     21 O3          3.4860    2.1080   -6.1400 oh        1 882     -0.677800
     22 C9          3.3830    1.3760   -3.2540 c3        1 882      0.152100
     23 O4          2.3260    0.6930   -3.9200 oh        1 882     -0.648800
     24 C27         3.2440    0.1260    1.9970 ca        1 882     -0.002000
     25 C30         5.7180    0.0660    3.3160 ca        1 882      0.116900
     26 F1          6.9120    0.0370    3.9560 f         1 882     -0.147900
     27 C18         4.1510   -0.9190    1.7620 ca        1 882     -0.097000
     28 C14        -1.2620    1.1950   -1.8770 c3        1 882     -0.110600
     29 C2         -0.2830    0.1500    0.8880 cc        1 882     -0.181900
     30 C1          0.6700    0.1760    1.9330 cd        1 882     -0.078000
     31 C31         0.3850    0.1900    3.3550 ca        1 882     -0.021000
     32 C25         0.3630    1.4020    4.0600 ca        1 882     -0.097000
     33 C19        -0.1180   -1.0040    5.4080 ca        1 882     -0.167500
     34 C16         0.1440   -1.0080    4.0420 ca        1 882     -0.097000
     35 C3         -1.7570    0.1010    1.0570 c         1 882      0.716700
     36 O1         -2.4740   -0.7310    0.4700 o         1 882     -0.593100
     37 N2         -2.2630    1.0550    1.9330 ns        1 882     -0.462100
     38 C32        -3.5940    1.2010    2.3530 ca        1 882      0.076600
     39 C23        -5.9750    0.7450    2.1960 ca        1 882     -0.106000
     40 C29        -6.2330    1.6200    3.2480 ca        1 882     -0.164000
     41 H6          0.6650    0.3740   -2.3900 h1        1 882      0.117700
     42 H71         3.7810   -0.1500   -0.6630 hc        1 882      0.069700
     43 H72         2.5680   -0.6250   -1.9200 hc        1 882      0.069700
     44 H81         1.9900    2.0760   -1.7530 hc        1 882      0.050200
     45 H82         3.7260    2.1120   -1.2440 hc        1 882      0.050200
     46 H101        4.2720    3.3500   -3.1520 hc        1 882      0.051700
     47 H102        2.6780    3.2770   -4.0230 hc        1 882      0.051700
     48 H131        0.0540   -2.0200   -2.0220 hc        1 882      0.051533
     49 H132       -1.5940   -1.5420   -1.4230 hc        1 882      0.051533
     50 H133       -1.1010   -1.1740   -3.1340 hc        1 882      0.051533
     51 H15         6.0900   -1.7740    2.2250 ha        1 882      0.144500
     52 H17        -3.0480    2.6280    3.9240 ha        1 882      0.150000
     53 H20        -5.3640    2.9820    4.6890 ha        1 882      0.128500
     54 H21         2.8840    1.9590    3.0940 ha        1 882      0.140000
     55 H22         0.0920    2.3740    5.9810 ha        1 882      0.146500
     56 H24         5.0890    1.9160    4.2660 ha        1 882      0.144500
     57 H26        -4.5050   -0.1700    0.9100 ha        1 882      0.150000
     58 H351        4.0460    4.6780   -5.8930 hc        1 882      0.037700
     59 H352        5.4810    4.4940   -4.7970 hc        1 882      0.037700
     60 H11         5.2690    1.9460   -5.0930 h1        1 882      0.029700
     61 HO3         3.9020    2.2050   -7.0170 ho        1 882      0.468000
     62 H9          4.3110    0.7400   -3.3220 h1        1 882      0.035700
     63 HO4         2.4470    0.8350   -4.8710 ho        1 882      0.447000
     64 H18         3.8840   -1.7220    1.0580 ha        1 882      0.140000
     65 H141       -2.1760    0.9690   -1.2760 hc        1 882      0.051533
     66 H142       -1.5410    1.2080   -2.9590 hc        1 882      0.051533
     67 H143       -0.8810    2.2060   -1.5980 hc        1 882      0.051533
     68 H25         0.5630    2.3450    3.5280 ha        1 882      0.145500
     69 H19        -0.3070   -1.9420    5.9470 ha        1 882      0.146500
     70 H16         0.1640   -1.9630    3.4930 ha        1 882      0.145500
     71 HN2        -1.5910    1.6090    2.4240 hn        1 882      0.326500
     72 H23        -6.8060    0.2120    1.7090 ha        1 882      0.128500
     73 H29        -7.2620    1.7830    3.5960 ha        1 882      0.128000
     74 C36         5.8180    3.9110   -6.8680 c         1 882      0.910600
     75 F2         -0.3910    0.2310    7.4380 f         1 882     -0.145900
@<TRIPOS>BOND
     1    1    2 1   
     2    1    4 1   
     3    1   29 1   
     4    2    3 2   
     5    2    5 1   
     6    3   24 1   
     7    3   30 1   
     8    4    8 1   
     9    4   28 1   
    10    4   41 1   
    11    5    6 1   
    12    5   42 1   
    13    5   43 1   
    14    6   22 1   
    15    6   44 1   
    16    6   45 1   
    17    7   20 1   
    18    7   22 1   
    19    7   46 1   
    20    7   47 1   
    21    8   48 1   
    22    8   49 1   
    23    8   50 1   
    24    9   25 ar  
    25    9   27 ar  
    26    9   51 1   
    27   10   11 ar  
    28   10   38 ar  
    29   10   52 1   
    30   11   40 ar  
    31   11   53 1   
    32   12   14 ar  
    33   12   24 ar  
    34   12   54 1   
    35   13   16 ar  
    36   13   32 ar  
    37   13   55 1   
    38   14   25 ar  
    39   14   56 1   
    40   15   38 ar  
    41   15   39 ar  
    42   15   57 1   
    43   16   33 ar  
    44   16   75 1   
    45   17   74 1   
    46   18   74 1   
    47   19   20 1   
    48   19   58 1   
    49   19   59 1   
    50   19   74 1   
    51   20   21 1   
    52   20   60 1   
    53   21   61 1   
    54   22   23 1   
    55   22   62 1   
    56   23   63 1   
    57   24   27 ar  
    58   25   26 1   
    59   27   64 1   
    60   28   65 1   
    61   28   66 1   
    62   28   67 1   
    63   29   30 2   
    64   29   35 1   
    65   30   31 1   
    66   31   32 ar  
    67   31   34 ar  
    68   32   68 1   
    69   33   34 ar  
    70   33   69 1   
    71   34   70 1   
    72   35   36 2   
    73   35   37 1   
    74   37   38 1   
    75   37   71 1   
    76   39   40 ar  
    77   39   72 1   
    78   40   73 1   
@<TRIPOS>SUBSTRUCTURE
     1 882         1 TEMP              0 ****  ****    0 ROOT
