@<TRIPOS>MOLECULE
882
   76    79     1     0     0
SMALL
bcc


@<TRIPOS>ATOM
      1 N1          0.7870   -0.8600    0.2880 na        1 882      0.030900
      2 C4          2.0820   -0.4580    0.5450 cc        1 882      0.020400
      3 C5          2.3270   -0.5320    1.9580 cd        1 882     -0.094000
      4 C6          0.1810   -0.9000   -1.0430 c3        1 882     -0.001000
      5 C7          3.0510    0.0030   -0.4850 c3        1 882     -0.047100
      6 C8          2.7130    1.4010   -0.9780 c3        1 882     -0.085400
      7 C10         2.3840    2.9220   -2.9180 c3        1 882     -0.124400
      8 C13        -0.0790   -2.3210   -1.5390 c3        1 882     -0.110100
      9 C15         5.3670   -0.9170    4.1190 ca        1 882     -0.165000
     10 C17        -2.1890    1.4700    3.0800 ca        1 882     -0.101500
     11 C20        -2.8530    2.6450    2.7330 ca        1 882     -0.107000
     12 C21         4.2480    0.9710    2.3810 ca        1 882     -0.090000
     13 C22         0.6480   -0.3820    6.2460 ca        1 882     -0.169500
     14 C24         5.4560    1.2530    3.0080 ca        1 882     -0.165000
     15 C26        -3.6780    0.2190    1.6010 ca        1 882     -0.101500
     16 C28         0.5430   -1.7060    6.7130 ca        1 882      0.148900
     17 O7          3.3180    6.0580   -6.4640 o         1 882     -0.834800
     18 O6          2.4450    4.0880   -7.0630 o         1 882     -0.834800
     19 C35         2.4200    4.6660   -4.7250 c3        1 882     -0.240400
     20 C11         2.5710    3.1880   -4.4130 c3        1 882      0.172100
     21 O3          1.5930    2.4030   -5.0850 oh        1 882     -0.684800
     22 C9          2.9200    1.5630   -2.4860 c3        1 882      0.153100
     23 O4          2.2520    0.4770   -3.1160 oh        1 882     -0.662800
     24 C27         3.5860   -0.2440    2.6110 ca        1 882     -0.048000
     25 C30         6.0210    0.3070    3.8830 ca        1 882      0.140900
     26 F1          7.1950    0.5730    4.5000 f         1 882     -0.130900
     27 C18         4.1590   -1.1810    3.4840 ca        1 882     -0.090000
     28 C14        -1.0880   -0.0600   -1.1570 c3        1 882     -0.110100
     29 C2          0.1650   -1.1520    1.5190 cc        1 882     -0.283900
     30 C1          1.1230   -0.9600    2.5680 cd        1 882     -0.013000
     31 C31         0.9040   -1.2140    3.9790 ca        1 882     -0.095000
     32 C25         0.8300   -0.1470    4.8880 ca        1 882     -0.103500
     33 C19         0.6270   -2.7840    5.8100 ca        1 882     -0.169500
     34 C16         0.8100   -2.5310    4.4560 ca        1 882     -0.103500
     35 C3         -1.1940   -1.5870    1.6620 c         1 882      0.623700
     36 O1         -1.8840   -2.3640    1.0130 o         1 882     -0.466100
     37 N2         -1.9270   -0.9910    2.8740 n4        1 882     -0.551200
     38 C32        -2.6090    0.2540    2.5150 ca        1 882     -0.043400
     39 C23        -4.3270    1.4060    1.2700 ca        1 882     -0.107000
     40 C29        -3.9180    2.6160    1.8320 ca        1 882     -0.077000
     41 H6          0.9480   -0.4300   -1.7480 h1        1 882      0.148700
     42 H71         3.0710   -0.7180   -1.3500 hc        1 882      0.091200
     43 H72         4.0760   -0.0050   -0.0240 hc        1 882      0.091200
     44 H81         3.3570    2.1540   -0.4540 hc        1 882      0.046200
     45 H82         1.6440    1.6490   -0.7420 hc        1 882      0.046200
     46 H101        2.9190    3.7190   -2.3420 hc        1 882      0.049700
     47 H102        1.2910    2.9830   -2.6800 hc        1 882      0.049700
     48 H131       -0.8820   -2.8250   -0.9520 hc        1 882      0.055700
     49 H132        0.8490   -2.9390   -1.4900 hc        1 882      0.055700
     50 H133       -0.4020   -2.2570   -2.6070 hc        1 882      0.055700
     51 H15         5.8190   -1.6540    4.7980 ha        1 882      0.157500
     52 H17        -1.3420    1.5110    3.7850 ha        1 882      0.158500
     53 H20        -2.5250    3.6020    3.1710 ha        1 882      0.166000
     54 H21         3.8080    1.7110    1.6920 ha        1 882      0.142000
     55 H22         0.6050    0.4530    6.9620 ha        1 882      0.166000
     56 H24         5.9760    2.2060    2.8250 ha        1 882      0.157500
     57 H26        -3.9950   -0.7310    1.1370 ha        1 882      0.158500
     58 H351        1.3650    4.9860   -4.5430 hc        1 882      0.037700
     59 H352        3.0940    5.2670   -4.0670 hc        1 882      0.037700
     60 H11         3.5930    2.8370   -4.7380 h1        1 882      0.035700
     61 HO3         1.5960    2.6910   -6.0190 ho        1 882      0.477000
     62 H9          4.0170    1.4820   -2.7320 h1        1 882      0.045700
     63 HO4         2.0660    0.7320   -4.0330 ho        1 882      0.462000
     64 H18         3.6450   -2.1380    3.6670 ha        1 882      0.142000
     65 H141       -1.9140   -0.4660   -0.5250 hc        1 882      0.055700
     66 H142       -0.8920    1.0010   -0.8680 hc        1 882      0.055700
     67 H143       -1.4170   -0.0760   -2.2260 hc        1 882      0.055700
     68 H25         0.9480    0.8870    4.5250 ha        1 882      0.155500
     69 H19         0.5640   -3.8170    6.1870 ha        1 882      0.166000
     70 H16         0.9070   -3.3740    3.7530 ha        1 882      0.155500
     71 HN2        -1.2570   -0.8080    3.6340 hn        1 882      0.458800
     72 H23        -5.1650    1.3840    0.5530 ha        1 882      0.166000
     73 H29        -4.4340    3.5520    1.5590 ha        1 882      0.166000
     74 C36         2.7590    4.9630   -6.1990 c         1 882      0.912600
     75 H221       -2.6330   -1.6650    3.1950 hn        1 882      0.458800
     76 F2          0.3640   -1.9440    8.0310 f         1 882     -0.119900
@<TRIPOS>BOND
     1    1    2 1   
     2    1    4 1   
     3    1   29 1   
     4    2    3 2   
     5    2    5 1   
     6    3   24 1   
     7    3   30 1   
     8    4    8 1   
     9    4   28 1   
    10    4   41 1   
    11    5    6 1   
    12    5   42 1   
    13    5   43 1   
    14    6   22 1   
    15    6   44 1   
    16    6   45 1   
    17    7   20 1   
    18    7   22 1   
    19    7   46 1   
    20    7   47 1   
    21    8   48 1   
    22    8   49 1   
    23    8   50 1   
    24    9   25 ar  
    25    9   27 ar  
    26    9   51 1   
    27   10   11 ar  
    28   10   38 ar  
    29   10   52 1   
    30   11   40 ar  
    31   11   53 1   
    32   12   14 ar  
    33   12   24 ar  
    34   12   54 1   
    35   13   16 ar  
    36   13   32 ar  
    37   13   55 1   
    38   14   25 ar  
    39   14   56 1   
    40   15   38 ar  
    41   15   39 ar  
    42   15   57 1   
    43   16   33 ar  
    44   16   76 1   
    45   17   74 1   
    46   18   74 1   
    47   19   20 1   
    48   19   58 1   
    49   19   59 1   
    50   19   74 1   
    51   20   21 1   
    52   20   60 1   
    53   21   61 1   
    54   22   23 1   
    55   22   62 1   
    56   23   63 1   
    57   24   27 ar  
    58   25   26 1   
    59   27   64 1   
    60   28   65 1   
    61   28   66 1   
    62   28   67 1   
    63   29   30 2   
    64   29   35 1   
    65   30   31 1   
    66   31   32 ar  
    67   31   34 ar  
    68   32   68 1   
    69   33   34 ar  
    70   33   69 1   
    71   34   70 1   
    72   35   36 2   
    73   35   37 1   
    74   37   38 1   
    75   37   71 1   
    76   37   75 1   
    77   39   40 ar  
    78   39   72 1   
    79   40   73 1   
@<TRIPOS>SUBSTRUCTURE
     1 882         1 TEMP              0 ****  ****    0 ROOT
