@<TRIPOS>MOLECULE
882
   75    78     1     0     0
SMALL
bcc


@<TRIPOS>ATOM
      1 N1          0.2250   -0.0230   -0.3730 na        1 882      0.001900
      2 C4          1.5960   -0.0640   -0.1190 cc        1 882     -0.048600
      3 C5          1.7990   -0.1340    1.2820 cd        1 882     -0.122000
      4 C6         -0.3510    0.0610   -1.7100 c3        1 882      0.024000
      5 C7          2.6430   -0.0160   -1.1700 c3        1 882     -0.027100
      6 C8          2.8230    1.3790   -1.7460 c3        1 882     -0.081400
      7 C10         3.5470    2.7180   -3.7420 c3        1 882     -0.122400
      8 C13        -0.9340   -1.2680   -2.1910 c3        1 882     -0.110600
      9 C15         5.1870   -1.3790    2.3080 ca        1 882     -0.166000
     10 C17        -3.9920    1.8080    3.4930 ca        1 882     -0.171000
     11 C20        -5.2930    2.0120    3.9360 ca        1 882     -0.105500
     12 C21         3.4450    0.7230    2.9180 ca        1 882     -0.097000
     13 C22        -0.0400    0.9410    5.4560 ca        1 882     -0.167500
     14 C24         4.6680    0.6380    3.5750 ca        1 882     -0.166000
     15 C26        -4.8340    0.3660    1.7270 ca        1 882     -0.171000
     16 C28        -0.3090   -0.2990    6.0640 ca        1 882      0.121900
     17 O7          6.7500    4.7630   -6.7050 o         1 882     -0.844300
     18 O6          5.4210    3.2150   -7.6130 o         1 882     -0.844300
     19 C35         4.8340    4.0620   -5.4330 c3        1 882     -0.235400
     20 C11         4.2930    2.6870   -5.0770 c3        1 882      0.171100
     21 O3          3.3710    2.2150   -6.0520 oh        1 882     -0.677800
     22 C9          3.2490    1.3210   -3.2130 c3        1 882      0.152100
     23 O4          2.1780    0.6990   -3.9180 oh        1 882     -0.648800
     24 C27         3.0750   -0.2280    1.9560 ca        1 882     -0.002000
     25 C30         5.5450   -0.4180    3.2710 ca        1 882      0.116900
     26 F1          6.7380   -0.5110    3.9080 f         1 882     -0.147900
     27 C18         3.9600   -1.2770    1.6620 ca        1 882     -0.097000
     28 C14        -1.4010    1.1620   -1.8500 c3        1 882     -0.110600
     29 C2         -0.4490   -0.0620    0.8510 cc        1 882     -0.181900
     30 C1          0.5030   -0.1180    1.8960 cd        1 882     -0.078000
     31 C31         0.2160   -0.1790    3.3160 ca        1 882     -0.021000
     32 C25         0.2200    0.9900    4.0900 ca        1 882     -0.097000
     33 C19        -0.3150   -1.4780    5.2970 ca        1 882     -0.167500
     34 C16        -0.0520   -1.4090    3.9330 ca        1 882     -0.097000
     35 C3         -1.9240   -0.0880    1.0160 c         1 882      0.716700
     36 O1         -2.6580   -0.8690    0.3830 o         1 882     -0.593100
     37 N2         -2.4090    0.8260    1.9460 n         1 882     -0.462100
     38 C32        -3.7370    0.9770    2.3730 ca        1 882      0.076600
     39 C23        -6.1280    0.5840    2.1910 ca        1 882     -0.105500
     40 C29        -6.3680    1.4030    3.2910 ca        1 882     -0.164000
     41 H6          0.5090    0.3290   -2.4090 h1        1 882      0.117700
     42 H71         3.6100   -0.3610   -0.7140 hc        1 882      0.069700
     43 H72         2.3880   -0.7360   -1.9970 hc        1 882      0.069700
     44 H81         1.8690    1.9630   -1.6740 hc        1 882      0.050200
     45 H82         3.6050    1.9310   -1.1640 hc        1 882      0.050200
     46 H101        4.1800    3.2660   -2.9980 hc        1 882      0.051700
     47 H102        2.5860    3.2770   -3.8710 hc        1 882      0.051700
     48 H131       -1.7940   -1.5890   -1.5540 hc        1 882      0.051533
     49 H132       -1.2900   -1.1340   -3.2410 hc        1 882      0.051533
     50 H133       -0.1560   -2.0680   -2.1790 hc        1 882      0.051533
     51 H15         5.8790   -2.2000    2.0740 ha        1 882      0.144500
     52 H17        -3.1620    2.3000    4.0230 ha        1 882      0.150000
     53 H20        -5.4710    2.6610    4.8070 ha        1 882      0.128500
     54 H21         2.7530    1.5460    3.1580 ha        1 882      0.140000
     55 H22        -0.0330    1.8560    6.0640 ha        1 882      0.146000
     56 H24         4.9560    1.3860    4.3260 ha        1 882      0.144500
     57 H26        -4.6770   -0.2890    0.8540 ha        1 882      0.150000
     58 H351        5.4140    4.4770   -4.5740 hc        1 882      0.037700
     59 H352        3.9850    4.7540   -5.6570 hc        1 882      0.037700
     60 H11         5.1490    1.9550   -5.0160 h1        1 882      0.029700
     61 HO3         3.7900    2.3540   -6.9220 ho        1 882      0.468000
     62 H9          4.1630    0.6690   -3.3180 h1        1 882      0.035700
     63 HO4         2.3030    0.8930   -4.8580 ho        1 882      0.447000
     64 H18         3.6760   -2.0320    0.9120 ha        1 882      0.140000
     65 H141       -1.6780    1.2430   -2.9290 hc        1 882      0.051533
     66 H142       -2.3200    0.9230   -1.2630 hc        1 882      0.051533
     67 H143       -0.9980    2.1470   -1.5140 hc        1 882      0.051533
     68 H25         0.4420    1.9580    3.6130 ha        1 882      0.145500
     69 H19        -0.5250   -2.4420    5.7810 ha        1 882      0.146000
     70 H16        -0.0510   -2.3310    3.3300 ha        1 882      0.145500
     71 HN2        -1.7260    1.3350    2.4680 hn        1 882      0.326500
     72 H23        -6.9700    0.0980    1.6740 ha        1 882      0.128500
     73 H29        -7.3940    1.5680    3.6480 ha        1 882      0.128000
     74 C36         5.7410    4.0080   -6.6750 c         1 882      0.910600
     75 F2         -0.5640   -0.3560    7.3940 f         1 882     -0.145900
@<TRIPOS>BOND
     1    1    2 1   
     2    1    4 1   
     3    1   29 1   
     4    2    3 2   
     5    2    5 1   
     6    3   24 1   
     7    3   30 1   
     8    4    8 1   
     9    4   28 1   
    10    4   41 1   
    11    5    6 1   
    12    5   42 1   
    13    5   43 1   
    14    6   22 1   
    15    6   44 1   
    16    6   45 1   
    17    7   20 1   
    18    7   22 1   
    19    7   46 1   
    20    7   47 1   
    21    8   48 1   
    22    8   49 1   
    23    8   50 1   
    24    9   25 ar  
    25    9   27 ar  
    26    9   51 1   
    27   10   11 ar  
    28   10   38 ar  
    29   10   52 1   
    30   11   40 ar  
    31   11   53 1   
    32   12   14 ar  
    33   12   24 ar  
    34   12   54 1   
    35   13   16 ar  
    36   13   32 ar  
    37   13   55 1   
    38   14   25 ar  
    39   14   56 1   
    40   15   38 ar  
    41   15   39 ar  
    42   15   57 1   
    43   16   33 ar  
    44   16   75 1   
    45   17   74 1   
    46   18   74 1   
    47   19   20 1   
    48   19   58 1   
    49   19   59 1   
    50   19   74 1   
    51   20   21 1   
    52   20   60 1   
    53   21   61 1   
    54   22   23 1   
    55   22   62 1   
    56   23   63 1   
    57   24   27 ar  
    58   25   26 1   
    59   27   64 1   
    60   28   65 1   
    61   28   66 1   
    62   28   67 1   
    63   29   30 2   
    64   29   35 1   
    65   30   31 1   
    66   31   32 ar  
    67   31   34 ar  
    68   32   68 1   
    69   33   34 ar  
    70   33   69 1   
    71   34   70 1   
    72   35   36 2   
    73   35   37 1   
    74   37   38 1   
    75   37   71 1   
    76   39   40 ar  
    77   39   72 1   
    78   40   73 1   
@<TRIPOS>SUBSTRUCTURE
     1 882         1 TEMP              0 ****  ****    0 ROOT
