@<TRIPOS>MOLECULE
882
   75    78     1     0     0
SMALL
bcc


@<TRIPOS>ATOM
      1 N1         -0.3280    0.9460   -1.0150 na        1 882      0.001900
      2 C4          0.4690   -0.1910   -0.8770 cc        1 882     -0.048600
      3 C5         -0.3410   -1.2640   -0.4270 cd        1 882     -0.122000
      4 C6          0.1770    2.2430   -1.4530 c3        1 882      0.024000
      5 C7          1.9280   -0.2280   -1.1460 c3        1 882     -0.027100
      6 C8          2.7380    0.4340   -0.0440 c3        1 882     -0.081400
      7 C10         4.8750    1.6190    0.5300 c3        1 882     -0.122400
      8 C13        -0.1970    2.5680   -2.8990 c3        1 882     -0.110600
      9 C15         1.1160   -4.6720   -1.0080 ca        1 882     -0.166000
     10 C17        -5.5330    1.9310    1.8180 ca        1 882     -0.171000
     11 C20        -6.7120    2.6150    2.0870 ca        1 882     -0.106000
     12 C21        -0.0860   -3.2240    1.0620 ca        1 882     -0.097000
     13 C22        -4.2190   -2.3660    1.9620 ca        1 882     -0.167500
     14 C24         0.3250   -4.5320    1.2940 ca        1 882     -0.166000
     15 C26        -5.2500    3.2420   -0.2100 ca        1 882     -0.171000
     16 C28        -5.0810   -2.9400    1.0100 ca        1 882      0.121900
     17 O7          9.5730    1.9040    1.5630 o         1 882     -0.844300
     18 O6          8.9070    2.9660   -0.2850 o         1 882     -0.844300
     19 C35         7.2090    2.2140    1.2520 c3        1 882     -0.235400
     20 C11         6.2930    1.9550    0.0670 c3        1 882      0.171100
     21 O3          6.1910    3.0940   -0.7780 oh        1 882     -0.677800
     22 C9          4.0120    1.0710   -0.5990 c3        1 882      0.152100
     23 O4          3.5910    2.0930   -1.4970 oh        1 882     -0.648800
     24 C27         0.0940   -2.6230   -0.1930 ca        1 882     -0.002000
     25 C30         0.9290   -5.2620    0.2550 ca        1 882      0.116900
     26 F1          1.3310   -6.5390    0.4710 f         1 882     -0.147900
     27 C18         0.6980   -3.3630   -1.2210 ca        1 882     -0.097000
     28 C14        -0.2430    3.3950   -0.5420 c3        1 882     -0.110600
     29 C2         -1.6350    0.6120   -0.6530 cc        1 882     -0.181900
     30 C1         -1.6710   -0.7490   -0.2700 cd        1 882     -0.078000
     31 C31        -2.8390   -1.4880    0.1660 ca        1 882     -0.021000
     32 C25        -3.1080   -1.6470    1.5330 ca        1 882     -0.097000
     33 C19        -4.8200   -2.7880   -0.3640 ca        1 882     -0.167500
     34 C16        -3.7040   -2.0670   -0.7750 ca        1 882     -0.097000
     35 C3         -2.8010    1.5300   -0.7090 c         1 882      0.716700
     36 O1         -3.0630    2.2240   -1.7080 o         1 882     -0.593100
     37 N2         -3.5760    1.5380    0.4460 n         1 882     -0.462100
     38 C32        -4.7750    2.2350    0.6580 ca        1 882      0.076600
     39 C23        -6.4350    3.9120    0.0800 ca        1 882     -0.106000
     40 C29        -7.1710    3.6070    1.2220 ca        1 882     -0.164000
     41 H6          1.3140    2.1740   -1.4010 h1        1 882      0.117700
     42 H71         2.2370   -1.3040   -1.2440 hc        1 882      0.069700
     43 H72         2.1490    0.2740   -2.1300 hc        1 882      0.069700
     44 H81         2.1350    1.2280    0.4680 hc        1 882      0.050200
     45 H82         3.0210   -0.3270    0.7280 hc        1 882      0.050200
     46 H101        4.9420    0.8550    1.3460 hc        1 882      0.051700
     47 H102        4.3960    2.5420    0.9460 hc        1 882      0.051700
     48 H131       -1.3030    2.6610   -3.0210 hc        1 882      0.051533
     49 H132        0.2820    3.5390   -3.1730 hc        1 882      0.051533
     50 H133        0.1800    1.7780   -3.5920 hc        1 882      0.051533
     51 H15         1.5910   -5.2490   -1.8140 ha        1 882      0.144500
     52 H17        -5.1940    1.1510    2.5160 ha        1 882      0.150000
     53 H20        -7.2860    2.3660    2.9920 ha        1 882      0.128500
     54 H21        -0.5640   -2.6510    1.8710 ha        1 882      0.140000
     55 H22        -4.4270   -2.4940    3.0330 ha        1 882      0.146500
     56 H24         0.1860   -4.9990    2.2790 ha        1 882      0.144500
     57 H26        -4.6910    3.5060   -1.1230 ha        1 882      0.150000
     58 H351        7.1340    1.3710    1.9820 hc        1 882      0.037700
     59 H352        6.9020    3.1580    1.7650 hc        1 882      0.037700
     60 H11         6.7060    1.0990   -0.5410 h1        1 882      0.029700
     61 HO3         7.1020    3.4060   -0.9370 ho        1 882      0.468000
     62 H9          4.5940    0.3040   -1.1880 h1        1 882      0.035700
     63 HO4         4.3520    2.6740   -1.6460 ho        1 882      0.447000
     64 H18         0.8390   -2.9020   -2.2110 ha        1 882      0.140000
     65 H141        0.0270    3.1870    0.5200 hc        1 882      0.051533
     66 H142        0.3010    4.3140   -0.8720 hc        1 882      0.051533
     67 H143       -1.3410    3.5870   -0.6110 hc        1 882      0.051533
     68 H25        -2.4260   -1.2050    2.2760 ha        1 882      0.145500
     69 H19        -5.4990   -3.2410   -1.1010 ha        1 882      0.146500
     70 H16        -3.4950   -1.9490   -1.8500 ha        1 882      0.145500
     71 HN2        -3.3330    0.8720    1.1510 hn        1 882      0.326500
     72 H23        -6.7890    4.6940   -0.6090 ha        1 882      0.128500
     73 H29        -8.1050    4.1430    1.4400 ha        1 882      0.128000
     74 C36         8.6750    2.3680    0.8100 c         1 882      0.910600
     75 F2         -6.1660   -3.6420    1.4190 f         1 882     -0.145900
@<TRIPOS>BOND
     1    1    2 1   
     2    1    4 1   
     3    1   29 1   
     4    2    3 2   
     5    2    5 1   
     6    3   24 1   
     7    3   30 1   
     8    4    8 1   
     9    4   28 1   
    10    4   41 1   
    11    5    6 1   
    12    5   42 1   
    13    5   43 1   
    14    6   22 1   
    15    6   44 1   
    16    6   45 1   
    17    7   20 1   
    18    7   22 1   
    19    7   46 1   
    20    7   47 1   
    21    8   48 1   
    22    8   49 1   
    23    8   50 1   
    24    9   25 ar  
    25    9   27 ar  
    26    9   51 1   
    27   10   11 ar  
    28   10   38 ar  
    29   10   52 1   
    30   11   40 ar  
    31   11   53 1   
    32   12   14 ar  
    33   12   24 ar  
    34   12   54 1   
    35   13   16 ar  
    36   13   32 ar  
    37   13   55 1   
    38   14   25 ar  
    39   14   56 1   
    40   15   38 ar  
    41   15   39 ar  
    42   15   57 1   
    43   16   33 ar  
    44   16   75 1   
    45   17   74 1   
    46   18   74 1   
    47   19   20 1   
    48   19   58 1   
    49   19   59 1   
    50   19   74 1   
    51   20   21 1   
    52   20   60 1   
    53   21   61 1   
    54   22   23 1   
    55   22   62 1   
    56   23   63 1   
    57   24   27 ar  
    58   25   26 1   
    59   27   64 1   
    60   28   65 1   
    61   28   66 1   
    62   28   67 1   
    63   29   30 2   
    64   29   35 1   
    65   30   31 1   
    66   31   32 ar  
    67   31   34 ar  
    68   32   68 1   
    69   33   34 ar  
    70   33   69 1   
    71   34   70 1   
    72   35   36 2   
    73   35   37 1   
    74   37   38 1   
    75   37   71 1   
    76   39   40 ar  
    77   39   72 1   
    78   40   73 1   
@<TRIPOS>SUBSTRUCTURE
     1 882         1 TEMP              0 ****  ****    0 ROOT
