@<TRIPOS>MOLECULE
882
   75    66     1     0     0
SMALL
bcc


@<TRIPOS>ATOM
      1 N1         -1.1480   -0.5030   -0.5260 n2        1 882     -0.067000
      2 C4          0.2270   -0.3820   -0.5380 c1        1 882     -0.078000
      3 C5          0.6690   -0.3610    0.7800 c2        1 882     -0.093500
      4 C6         -2.0070   -0.6060   -1.6940 c2        1 882      0.013000
      5 C7          1.1320   -0.4380   -1.7950 c2        1 882     -0.112000
      6 C8          1.4800    1.0060   -2.2490 c3        1 882     -0.158000
      7 C10         2.6970    2.3480   -3.9660 c3        1 882     -0.201000
      8 C13        -1.6160    0.4530   -2.7060 c3        1 882     -0.233500
      9 C15         4.0410   -1.6280    1.6690 c1        1 882     -0.134250
     10 C17        -4.6550   -2.3890    4.0420 c1        1 882     -0.184000
     11 C20        -5.8820   -2.7770    4.5420 c1        1 882     -0.134250
     12 C21         2.6100    0.7510    1.7510 c1        1 882     -0.091000
     13 C22        -0.8010    0.8120    5.0520 c1        1 882     -0.134250
     14 C24         3.9080    0.6970    2.2570 c1        1 882     -0.168000
     15 C26        -5.7210   -0.6670    2.7580 c1        1 882     -0.134250
     16 C28        -0.7290   -0.3690    5.7810 c1        1 882      0.084500
     17 O7          4.8710    3.4870   -7.7350 o         1 882     -0.579000
     18 C36         5.2070    3.6950   -6.5370 c2        1 882      0.330000
     19 O6          6.4090    3.9560   -6.2560 o         1 882     -0.579000
     20 C35         4.1470    3.7320   -5.4450 c3        1 882     -0.264000
     21 C11         3.8050    2.3140   -5.0240 c3        1 882      0.060000
     22 O3          3.3670    1.5950   -6.1320 oh        1 882     -0.405000
     23 C9          2.4950    0.9490   -3.3940 c3        1 882      0.042000
     24 O4          2.0190    0.1020   -4.3930 oh        1 882     -0.374000
     25 C27         2.0310   -0.3880    1.2050 c1        1 882     -0.022500
     26 C30         4.6200   -0.4910    2.2150 c1        1 882      0.084500
     27 F1          5.8950   -0.5320    2.6680 f         1 882     -0.110500
     28 C18         2.7440   -1.5750    1.1630 c1        1 882     -0.134250
     29 C14        -1.8510   -1.9860   -2.3190 c3        1 882     -0.233500
     30 C2         -1.5610   -0.5560    0.7900 c1        1 882     -0.078000
     31 C1         -0.4330   -0.4680    1.5980 c2        1 882     -0.093500
     32 C31        -0.4260   -0.4220    3.0120 c1        1 882     -0.022500
     33 C25        -0.6490    0.7870    3.6660 c1        1 882     -0.134250
     34 F2         -1.4670   -0.2100    6.8880 f         1 882     -0.110500
     35 C19        -0.5060   -1.5790    5.1270 c1        1 882     -0.168000
     36 C16        -0.3540   -1.6050    3.7440 c1        1 882     -0.091000
     37 C3         -2.9890   -0.8540    1.2710 c1        1 882      0.384000
     38 O1         -3.8330   -1.2140    0.4750 o         1 882     -0.358000
     39 N2         -3.2770   -0.8780    2.6800 n3        1 882     -0.316000
     40 C32        -4.5730   -1.3320    3.1480 c1        1 882      0.083000
     41 C23        -6.9520   -1.0580    3.2610 c1        1 882     -0.134250
     42 C29        -7.0320   -2.1110    4.1510 c1        1 882     -0.134250
     43 H6         -2.9490   -0.4720   -1.4240 ha        1 882      0.128000
     44 H71         1.9610   -0.9230   -1.5800 ha        1 882      0.108000
     45 H72         0.6620   -0.9010   -2.5140 ha        1 882      0.108000
     46 H81         0.6660    1.4570   -2.5560 hc        1 882      0.091000
     47 H82         1.8650    1.5010   -1.4960 hc        1 882      0.091000
     48 H101        2.9540    2.9630   -3.2440 hc        1 882      0.091000
     49 H102        1.8610    2.6580   -4.3780 hc        1 882      0.091000
     50 H131       -0.8140    0.1700   -3.1800 hc        1 882      0.094333
     51 H132       -2.3500    0.5790   -3.3490 hc        1 882      0.094333
     52 H133       -1.4410    1.2940   -2.2440 hc        1 882      0.094333
     53 H15         4.5430   -2.4640    1.6390 ha        1 882      0.142625
     54 H17        -3.8450   -2.8300    4.3480 ha        1 882      0.131000
     55 H20        -5.5820   -3.3840    5.2620 ha        1 882      0.142625
     56 H21         2.1120    1.5810    1.7810 ha        1 882      0.148000
     57 H22        -0.9190    1.6760    5.5200 ha        1 882      0.142625
     58 H24         4.3170    1.5000    2.6430 ha        1 882      0.147000
     59 H26        -6.1780    0.0140    2.2290 ha        1 882      0.142625
     60 H351        4.4900    4.2300   -4.6700 hc        1 882      0.077000
     61 H352        3.3380    4.1760   -5.7880 hc        1 882      0.077000
     62 H11         4.5970    1.8870   -4.6520 h1        1 882      0.069000
     63 HO3         2.7250    2.0480   -6.5450 ho        1 882      0.266000
     64 H9          3.3490    0.6070   -3.0570 h1        1 882      0.073000
     65 HO4         1.3360   -0.3720   -4.0790 ho        1 882      0.244000
     66 H18         2.3370   -2.3780    0.7780 ha        1 882      0.142625
     67 H141       -2.1470   -2.6660   -1.6830 hc        1 882      0.094333
     68 H142       -2.3950   -2.0400   -3.1330 hc        1 882      0.094333
     69 H143       -0.9090   -2.1380   -2.5450 hc        1 882      0.094333
     70 H25        -0.6990    1.6130    3.1560 ha        1 882      0.142625
     71 H19        -0.4840   -2.4200    5.6410 ha        1 882      0.147000
     72 H16        -0.1960   -2.4570    3.2840 ha        1 882      0.148000
     73 HN2        -2.6700   -0.5560    3.2720 hn        1 882      0.243000
     74 H23        -7.7610   -0.5610    3.0160 ha        1 882      0.142625
     75 H29        -7.6880   -2.6960    4.5640 ha        1 882      0.142625
@<TRIPOS>BOND
     1    1    2 1   
     2    1   30 1   
     3    2    3 1   
     4    3   25 1   
     5    3   31 1   
     6    4    8 1   
     7    4   29 1   
     8    4   43 1   
     9    5    6 1   
    10    5   44 1   
    11    5   45 1   
    12    6   23 1   
    13    6   46 1   
    14    6   47 1   
    15    7   21 1   
    16    7   23 1   
    17    7   48 1   
    18    7   49 1   
    19    8   50 1   
    20    8   51 1   
    21    8   52 1   
    22    9   28 1   
    23    9   53 1   
    24   10   40 1   
    25   10   54 1   
    26   11   42 1   
    27   11   55 1   
    28   12   25 1   
    29   12   56 1   
    30   13   33 1   
    31   13   57 1   
    32   14   26 1   
    33   14   58 1   
    34   15   41 1   
    35   15   59 1   
    36   16   34 1   
    37   16   35 1   
    38   17   18 1   
    39   18   19 1   
    40   18   20 1   
    41   20   21 1   
    42   20   60 1   
    43   20   61 1   
    44   21   22 1   
    45   21   62 1   
    46   22   63 1   
    47   23   24 1   
    48   23   64 1   
    49   24   65 1   
    50   26   27 1   
    51   28   66 1   
    52   29   67 1   
    53   29   68 1   
    54   29   69 1   
    55   30   31 1   
    56   31   32 1   
    57   32   36 1   
    58   33   70 1   
    59   35   71 1   
    60   36   72 1   
    61   37   38 1   
    62   37   39 1   
    63   39   40 1   
    64   39   73 1   
    65   41   74 1   
    66   42   75 1   
@<TRIPOS>SUBSTRUCTURE
     1 882         1 TEMP              0 ****  ****    0 ROOT
