@<TRIPOS>MOLECULE
883
   44    47     1     0     0
SMALL
bcc


@<TRIPOS>ATOM
      1 C1         -0.2130    0.5810    0.1710 c3        1 883     -0.109100
      2 C2          1.2740    0.2750    0.1200 c3        1 883      0.088000
      3 N3          1.8620    0.1210    1.4330 n         1 883     -0.549900
      4 C4          3.2510   -0.0340    1.5150 c         1 883      0.763100
      5 O5          3.9810    0.1920    0.5200 o         1 883     -0.631100
      6 N6          3.7960   -0.4560    2.7530 n         1 883     -0.456400
      7 C7          5.1630   -0.2950    3.0590 cc        1 883      0.469400
      8 N8          5.6460   -0.1770    4.3370 nd        1 883     -0.606100
      9 C9          7.0420   -0.1280    4.1890 ca        1 883      0.066400
     10 C10         8.0440   -0.0170    5.1560 ca        1 883     -0.044000
     11 C11         9.3740    0.0260    4.7350 cp        1 883     -0.080000
     12 C12         9.7080   -0.0370    3.3660 ca        1 883     -0.061000
     13 C13         8.7400   -0.1480    2.3690 cp        1 883     -0.143500
     14 C14         9.1310   -0.2050    0.9410 cp        1 883      0.710500
     15 N15        10.3100    0.4060    0.5780 nb        1 883     -0.702500
     16 C16        10.6520    0.3350   -0.7210 ca        1 883      0.436700
     17 C17         9.8640   -0.3220   -1.6840 ca        1 883     -0.369600
     18 C18         8.6740   -0.9110   -1.2180 ca        1 883      0.436700
     19 N19         8.2950   -0.8640    0.0710 nb        1 883     -0.702500
     20 C20         7.3950   -0.2050    2.7770 ca        1 883     -0.023200
     21 N21         6.1960   -0.3260    2.0830 na        1 883     -0.242300
     22 C23        10.4420    0.1410    5.7230 cp        1 883     -0.112300
     23 C24        11.5660    0.9680    5.4840 ca        1 883      0.386200
     24 N25        12.5820    1.1170    6.3520 nb        1 883     -0.641000
     25 C26        12.5260    0.4450    7.5130 ca        1 883      0.361200
     26 C27        11.4420   -0.4080    7.8490 ca        1 883      0.009600
     27 F28        11.4340   -1.0630    9.0310 f         1 883     -0.131900
     28 C29        10.3850   -0.5590    6.9350 ca        1 883     -0.128000
     29 H1         -0.5830    0.7010   -0.8760 hc        1 883      0.046700
     30 H2         -0.7830   -0.2480    0.6560 hc        1 883      0.046700
     31 H3         -0.4140    1.5260    0.7300 hc        1 883      0.046700
     32 H4          1.8200    1.1140   -0.4010 h1        1 883      0.056700
     33 H5          1.4410   -0.6610   -0.4900 h1        1 883      0.056700
     34 H6          1.2840   -0.2930    2.1270 hn        1 883      0.304500
     35 H7          3.2050   -0.4600    3.5590 hn        1 883      0.337500
     36 H9          7.7830    0.0430    6.2230 ha        1 883      0.153000
     37 H10        10.7750   -0.0050    3.0890 ha        1 883      0.157000
     38 H11        11.6010    0.8320   -0.9960 h4        1 883      0.031100
     39 H12        10.1590   -0.3700   -2.7370 ha        1 883      0.157000
     40 H13         7.9900   -1.4460   -1.9020 h4        1 883      0.031100
     41 H14         6.0540   -0.3360    1.0990 hn        1 883      0.351700
     42 H15        11.6470    1.5450    4.5440 h4        1 883      0.035100
     43 H16        13.3700    0.5830    8.2100 h4        1 883      0.037100
     44 H17         9.5370   -1.2200    7.1700 ha        1 883      0.158000
@<TRIPOS>BOND
     1    1    2 1   
     2    1   29 1   
     3    1   30 1   
     4    1   31 1   
     5    2    3 1   
     6    2   32 1   
     7    2   33 1   
     8    3    4 1   
     9    3   34 1   
    10    4    5 2   
    11    4    6 1   
    12    6    7 1   
    13    6   35 1   
    14    7    8 2   
    15    7   21 1   
    16    8    9 1   
    17    9   10 ar  
    18    9   20 ar  
    19   10   11 ar  
    20   10   36 1   
    21   11   12 ar  
    22   11   22 1   
    23   12   13 ar  
    24   12   37 1   
    25   13   14 1   
    26   13   20 ar  
    27   14   15 ar  
    28   14   19 ar  
    29   15   16 ar  
    30   16   17 ar  
    31   16   38 1   
    32   17   18 ar  
    33   17   39 1   
    34   18   19 ar  
    35   18   40 1   
    36   20   21 1   
    37   21   41 1   
    38   22   23 ar  
    39   22   28 ar  
    40   23   24 ar  
    41   23   42 1   
    42   24   25 ar  
    43   25   26 ar  
    44   25   43 1   
    45   26   27 1   
    46   26   28 ar  
    47   28   44 1   
@<TRIPOS>SUBSTRUCTURE
     1 883         1 TEMP              0 ****  ****    0 ROOT
