@<TRIPOS>MOLECULE
883
   45    48     1     0     0
SMALL
bcc


@<TRIPOS>ATOM
      1 C1         -0.3500    0.1850    0.6350 c3        1 883     -0.140100
      2 C2          1.1200    0.4260    0.9040 c3        1 883      0.110800
      3 N3          1.8550   -0.8340    1.2350 ny        1 883     -0.673800
      4 C4          3.3700   -0.6160    1.3350 c         1 883      0.630100
      5 O5          4.0060   -1.1370    0.4150 o         1 883     -0.470100
      6 N6          3.8340    0.2140    2.3330 ns        1 883     -0.377400
      7 C7          5.2010    0.1130    2.7260 cc        1 883      0.353400
      8 N8          5.6070    0.0580    4.0300 nd        1 883     -0.526100
      9 C9          7.0050    0.0400    3.9590 ca        1 883      0.049400
     10 C10         7.9550   -0.0080    4.9940 ca        1 883     -0.034000
     11 C11         9.3000   -0.0340    4.6490 cp        1 883     -0.049000
     12 C12         9.7110   -0.0030    3.2930 ca        1 883     -0.033000
     13 C13         8.8090    0.0510    2.2360 cp        1 883     -0.138500
     14 C14         9.2830    0.0890    0.8300 cp        1 883      0.703500
     15 N15        10.6040    0.4060    0.6160 nb        1 883     -0.714000
     16 C16        11.0270    0.4210   -0.6600 ca        1 883      0.442700
     17 C17        10.1790    0.1290   -1.7460 ca        1 883     -0.350600
     18 C18         8.8440   -0.1770   -1.4300 ca        1 883      0.442700
     19 N19         8.3820   -0.1980   -0.1660 nb        1 883     -0.714000
     20 C20         7.4360    0.0690    2.5680 ca        1 883     -0.010200
     21 N21         6.2760    0.1370    1.8000 na        1 883     -0.220300
     22 C23        10.3190   -0.0920    5.6940 cp        1 883     -0.144300
     23 C24        11.4540   -0.9230    5.5510 ca        1 883      0.395200
     24 N25        12.4240   -1.0230    6.4780 nb        1 883     -0.631000
     25 C26        12.3090   -0.2940    7.5980 ca        1 883      0.380200
     26 C27        11.2060    0.5710    7.8370 ca        1 883      0.016600
     27 F28        11.1340    1.2840    8.9800 f         1 883     -0.120900
     28 C29        10.1960    0.6690    6.8640 ca        1 883     -0.122000
     29 H1         -0.5070   -0.4950   -0.2380 hc        1 883      0.084700
     30 H2         -0.8230    1.1730    0.3940 hc        1 883      0.084700
     31 H3         -0.8720   -0.2400    1.5270 hc        1 883      0.084700
     32 H4          1.2430    1.1400    1.7680 hx        1 883      0.110200
     33 H5          1.6140    0.8730   -0.0080 hx        1 883      0.110200
     34 H6          1.7070   -1.5210    0.4790 hn        1 883      0.466800
     35 H7          3.2210    0.5230    3.0640 hn        1 883      0.363500
     36 H9          7.6300   -0.0310    6.0460 ha        1 883      0.166000
     37 H10        10.7980   -0.0150    3.0900 ha        1 883      0.178000
     38 H11        12.0930    0.6790   -0.8110 h4        1 883      0.038100
     39 H12        10.5420    0.1400   -2.7800 ha        1 883      0.169000
     40 H13         8.1080   -0.4180   -2.2190 h4        1 883      0.038100
     41 H14         6.2060    0.0320    0.8160 hn        1 883      0.346700
     42 H15        11.5890   -1.5470    4.6490 h4        1 883      0.032100
     43 H16        13.1180   -0.3910    8.3440 h4        1 883      0.049100
     44 H17         9.3380    1.3380    7.0220 ha        1 883      0.157000
     45 H32         1.4920   -1.2330    2.1060 hn        1 883      0.466800
@<TRIPOS>BOND
     1    1    2 1   
     2    1   29 1   
     3    1   30 1   
     4    1   31 1   
     5    2    3 1   
     6    2   32 1   
     7    2   33 1   
     8    3    4 1   
     9    3   34 1   
    10    3   45 1   
    11    4    5 2   
    12    4    6 1   
    13    6    7 1   
    14    6   35 1   
    15    7    8 2   
    16    7   21 1   
    17    8    9 1   
    18    9   10 ar  
    19    9   20 ar  
    20   10   11 ar  
    21   10   36 1   
    22   11   12 ar  
    23   11   22 1   
    24   12   13 ar  
    25   12   37 1   
    26   13   14 1   
    27   13   20 ar  
    28   14   15 ar  
    29   14   19 ar  
    30   15   16 ar  
    31   16   17 ar  
    32   16   38 1   
    33   17   18 ar  
    34   17   39 1   
    35   18   19 ar  
    36   18   40 1   
    37   20   21 1   
    38   21   41 1   
    39   22   23 ar  
    40   22   28 ar  
    41   23   24 ar  
    42   23   42 1   
    43   24   25 ar  
    44   25   26 ar  
    45   25   43 1   
    46   26   27 1   
    47   26   28 ar  
    48   28   44 1   
@<TRIPOS>SUBSTRUCTURE
     1 883         1 TEMP              0 ****  ****    0 ROOT
