@<TRIPOS>MOLECULE
883
   45    48     1     0     0
SMALL
bcc


@<TRIPOS>ATOM
      1 C1         -0.3460    0.1790    0.6190 c3        1 883     -0.140100
      2 C2          1.1230    0.4220    0.8910 c3        1 883      0.110800
      3 N3          1.8590   -0.8370    1.2210 n4        1 883     -0.673800
      4 C4          3.3740   -0.6170    1.3250 c         1 883      0.630100
      5 O5          4.0120   -1.1350    0.4050 o         1 883     -0.470100
      6 N6          3.8350    0.2120    2.3250 n         1 883     -0.377400
      7 C7          5.2010    0.1120    2.7210 cc        1 883      0.353400
      8 N8          5.6040    0.0540    4.0260 nd        1 883     -0.526100
      9 C9          7.0020    0.0380    3.9590 ca        1 883      0.049400
     10 C10         7.9490   -0.0120    4.9960 ca        1 883     -0.034000
     11 C11         9.2950   -0.0360    4.6540 cp        1 883     -0.049000
     12 C12         9.7100   -0.0010    3.2990 ca        1 883     -0.033000
     13 C13         8.8100    0.0560    2.2400 cp        1 883     -0.138500
     14 C14         9.2870    0.0980    0.8360 cp        1 883      0.703500
     15 N15        10.6090    0.4130    0.6260 nb        1 883     -0.714000
     16 C16        11.0360    0.4320   -0.6490 ca        1 883      0.442700
     17 C17        10.1900    0.1460   -1.7380 ca        1 883     -0.350600
     18 C18         8.8540   -0.1580   -1.4270 ca        1 883      0.442700
     19 N19         8.3880   -0.1840   -0.1640 nb        1 883     -0.714000
     20 C20         7.4360    0.0710    2.5690 ca        1 883     -0.010200
     21 N21         6.2780    0.1400    1.7980 na        1 883     -0.220300
     22 C23        10.3110   -0.0960    5.7020 cp        1 883     -0.144300
     23 C24        11.4470   -0.9260    5.5590 ca        1 883      0.395200
     24 N25        12.4150   -1.0280    6.4880 nb        1 883     -0.631000
     25 C26        12.2960   -0.3030    7.6100 ca        1 883      0.380200
     26 C27        11.1920    0.5610    7.8480 ca        1 883      0.016600
     27 F28        11.1170    1.2710    8.9940 f         1 883     -0.120900
     28 C29        10.1850    0.6610    6.8730 ca        1 883     -0.122000
     29 H1         -0.8690   -0.2490    1.5090 hc        1 883      0.084700
     30 H2         -0.8200    1.1670    0.3790 hc        1 883      0.084700
     31 H3         -0.5000   -0.4990   -0.2560 hc        1 883      0.084700
     32 H4          1.2430    1.1350    1.7570 hx        1 883      0.110200
     33 H5          1.6190    0.8730   -0.0180 hx        1 883      0.110200
     34 H6          1.7140   -1.5220    0.4640 hn        1 883      0.466800
     35 H7          3.2200    0.5190    3.0550 hn        1 883      0.363500
     36 H9          7.6220   -0.0380    6.0470 ha        1 883      0.166000
     37 H10        10.7970   -0.0120    3.0990 ha        1 883      0.178000
     38 H11        12.1020    0.6890   -0.7970 h4        1 883      0.038100
     39 H12        10.5550    0.1610   -2.7720 ha        1 883      0.169000
     40 H13         8.1190   -0.3960   -2.2180 h4        1 883      0.038100
     41 H14         6.2100    0.0380    0.8130 hn        1 883      0.346700
     42 H15        11.5850   -1.5470    4.6550 h4        1 883      0.032100
     43 H16        13.1040   -0.4010    8.3580 h4        1 883      0.049100
     44 H17         9.3260    1.3290    7.0320 ha        1 883      0.157000
     45 H32         1.4950   -1.2380    2.0900 hn        1 883      0.466800
@<TRIPOS>BOND
     1    1    2 1   
     2    1   29 1   
     3    1   30 1   
     4    1   31 1   
     5    2    3 1   
     6    2   32 1   
     7    2   33 1   
     8    3    4 1   
     9    3   34 1   
    10    3   45 1   
    11    4    5 2   
    12    4    6 1   
    13    6    7 1   
    14    6   35 1   
    15    7    8 2   
    16    7   21 1   
    17    8    9 1   
    18    9   10 ar  
    19    9   20 ar  
    20   10   11 ar  
    21   10   36 1   
    22   11   12 ar  
    23   11   22 1   
    24   12   13 ar  
    25   12   37 1   
    26   13   14 1   
    27   13   20 ar  
    28   14   15 ar  
    29   14   19 ar  
    30   15   16 ar  
    31   16   17 ar  
    32   16   38 1   
    33   17   18 ar  
    34   17   39 1   
    35   18   19 ar  
    36   18   40 1   
    37   20   21 1   
    38   21   41 1   
    39   22   23 ar  
    40   22   28 ar  
    41   23   24 ar  
    42   23   42 1   
    43   24   25 ar  
    44   25   26 ar  
    45   25   43 1   
    46   26   27 1   
    47   26   28 ar  
    48   28   44 1   
@<TRIPOS>SUBSTRUCTURE
     1 883         1 TEMP              0 ****  ****    0 ROOT
