@<TRIPOS>MOLECULE
885
   34    32     1     0     0
SMALL
bcc


@<TRIPOS>ATOM
      1 C1         -4.1220   -1.0040   -1.6240 c3        1 885     -0.156000
      2 C2         -2.8610   -0.1270   -1.5430 c2        1 885     -0.170000
      3 C3         -2.1110   -0.1020   -0.3800 c2        1 885      0.012000
      4 C4         -1.0130    0.7440   -0.2790 c1        1 885     -0.871000
      5 C5         -0.6680    1.5680   -1.3490 c1        1 885      0.241000
      6 C6         -1.4210    1.5430   -2.5160 c1        1 885     -0.230000
      7 C7         -2.5140    0.7000   -2.6170 c1        1 885      0.035000
      8 CL         -3.5180    0.7530   -4.0300 cl        1 885     -0.054000
      9 N1          0.4310    2.4530   -1.2340 n3        1 885     -0.293000
     10 S1         -0.0990    0.8610    1.2830 s4        1 885      2.080800
     11 O1         -0.9710    0.7460    2.4060 o         1 885     -0.566900
     12 O2          0.4300    2.1730    1.4780 o         1 885     -0.566900
     13 N2          1.0840   -0.2710    1.3320 n2        1 885     -0.830000
     14 C8          1.0020   -1.7400    0.7040 c3        1 885     -0.006000
     15 C9          2.2140   -2.1140    0.4590 c3        1 885     -0.156000
     16 C10         3.0820   -1.3740    1.4600 c3        1 885     -0.157000
     17 C11         2.1420   -0.2530    2.1320 c3        1 885     -0.028000
     18 C12         2.8090    1.1340    2.2690 c2        1 885      0.339000
     19 O3          3.7760    1.4480    1.5080 o         1 885     -0.578000
     20 O4          2.4700    1.9020    3.2020 o         1 885     -0.578000
     21 H11A       -4.9190   -0.4340   -1.5940 hc        1 885      0.074333
     22 H12        -4.1360   -1.6300   -0.8620 hc        1 885      0.074333
     23 H13        -4.1150   -1.5120   -2.4650 hc        1 885      0.074333
     24 H3         -2.3520   -0.6760    0.3650 ha        1 885      0.146000
     25 H6         -1.1720    2.1350   -3.2880 ha        1 885      0.141000
     26 HN11        0.9200    2.4800   -0.4550 hn        1 885      0.228000
     27 HN12        0.6420    3.0370   -1.9420 hn        1 885      0.228000
     28 H81         0.4830   -1.7200   -0.1280 h1        1 885      0.072000
     29 H82         0.5790   -2.3630    1.3520 h1        1 885      0.072000
     30 H91         2.3000   -3.0720    0.5850 hc        1 885      0.072000
     31 H92         2.4660   -1.8680   -0.4520 hc        1 885      0.072000
     32 H101        3.4130   -2.0020    2.1540 hc        1 885      0.096500
     33 H102        3.8390   -0.9490    1.0010 hc        1 885      0.096500
     34 H11         1.9110   -0.4640    3.0680 h1        1 885      0.088000
@<TRIPOS>BOND
     1    1    2 1   
     2    1   21 1   
     3    1   22 1   
     4    1   23 1   
     5    2    3 1   
     6    2    7 1   
     7    3    4 1   
     8    3   24 1   
     9    4   10 1   
    10    5    6 1   
    11    5    9 1   
    12    6   25 1   
    13    7    8 1   
    14    9   26 1   
    15    9   27 1   
    16   10   11 1   
    17   10   12 1   
    18   13   14 1   
    19   13   17 1   
    20   14   15 1   
    21   14   28 1   
    22   14   29 1   
    23   15   16 1   
    24   15   30 1   
    25   15   31 1   
    26   16   17 1   
    27   16   32 1   
    28   16   33 1   
    29   17   18 1   
    30   17   34 1   
    31   18   19 1   
    32   18   20 1   
@<TRIPOS>SUBSTRUCTURE
     1 885         1 TEMP              0 ****  ****    0 ROOT
