@<TRIPOS>MOLECULE
885
   35    36     1     0     0
SMALL
bcc


@<TRIPOS>ATOM
      1 C1          0.1310    0.3440    0.6840 c3        1 885     -0.189000
      2 C2          1.5540    0.1570    0.3200 c2        1 885     -0.036000
      3 C3          2.5430    0.1580    1.3080 c2        1 885     -0.080000
      4 C4          3.8890   -0.0220    1.0030 c1        1 885     -0.551000
      5 C5          4.2300   -0.2270   -0.3320 c2        1 885     -0.103000
      6 C6          3.2760   -0.2290   -1.3640 c2        1 885     -0.136000
      7 C7          1.9400   -0.0300   -1.0220 c2        1 885     -0.066000
      8 CL          0.7820   -0.0250   -2.2700 cl        1 885     -0.012000
      9 N1          5.6370   -0.4760   -0.6520 n4        1 885     -0.009000
     10 S1          5.2650   -0.0810    2.6330 s6        1 885      2.849000
     11 O1          6.0020   -1.0620    1.9330 o         1 885     -0.945000
     12 O2          4.2230   -0.2560    3.5340 o         1 885     -0.945000
     13 N2          5.6880    1.4740    2.1980 n3        1 885     -0.792000
     14 C8          4.7440    2.5630    2.0610 c3        1 885     -0.015000
     15 C9          5.2740    3.7810    2.8410 c3        1 885     -0.175000
     16 C10         6.6730    3.4060    3.3180 c3        1 885     -0.152000
     17 C11         6.9170    1.9720    2.8180 c3        1 885     -0.062000
     18 C12         7.3020    1.0040    3.9510 c2        1 885      0.325000
     19 O3          8.2150    1.1470    4.7600 o         1 885     -0.325000
     20 O4          6.5150   -0.0660    3.9600 os        1 885     -0.636000
     21 H11A       -0.4710   -0.5430    0.3620 hc        1 885      0.096333
     22 H12         0.0110    0.4690    1.7890 hc        1 885      0.096333
     23 H13        -0.2840    1.2500    0.1760 hc        1 885      0.096333
     24 H3          2.2550    0.2810    2.3690 ha        1 885      0.172000
     25 H6          3.5560   -0.3880   -2.4170 ha        1 885      0.138000
     26 HN11        5.9600   -1.2790   -0.0750 hn        1 885      0.255000
     27 HN12        6.1890    0.3430   -0.3790 hn        1 885      0.255000
     28 H81         3.7310    2.2510    2.4430 h1        1 885      0.088500
     29 H82         4.6400    2.8170    0.9700 h1        1 885      0.088500
     30 H91         4.6050    4.0080    3.7070 hc        1 885      0.094000
     31 H92         5.2990    4.6810    2.1800 hc        1 885      0.094000
     32 H101        6.7520    3.4470    4.4330 hc        1 885      0.106000
     33 H102        7.4440    4.0940    2.8940 hc        1 885      0.106000
     34 H11         7.7480    1.9620    2.0570 h1        1 885      0.116000
     35 H131        5.7600   -0.6720   -1.6420 hn        1 885      0.255000
@<TRIPOS>BOND
     1    1    2 1   
     2    1   21 1   
     3    1   22 1   
     4    1   23 1   
     5    2    3 1   
     6    2    7 1   
     7    3    4 1   
     8    3   24 1   
     9    4    5 1   
    10    5    6 1   
    11    5    9 1   
    12    6    7 1   
    13    6   25 1   
    14    7    8 1   
    15    9   26 1   
    16    9   27 1   
    17    9   35 1   
    18   10   11 1   
    19   10   12 1   
    20   10   13 1   
    21   10   20 1   
    22   13   14 1   
    23   13   17 1   
    24   14   15 1   
    25   14   28 1   
    26   14   29 1   
    27   15   16 1   
    28   15   30 1   
    29   15   31 1   
    30   16   17 1   
    31   16   32 1   
    32   16   33 1   
    33   17   18 1   
    34   17   34 1   
    35   18   19 1   
    36   18   20 1   
@<TRIPOS>SUBSTRUCTURE
     1 885         1 TEMP              0 ****  ****    0 ROOT
