@<TRIPOS>MOLECULE
886
   67    69     1     0     0
SMALL
bcc


@<TRIPOS>ATOM
      1 C1          1.9860    1.2740   -1.1790 c3        1 886     -0.108600
      2 C2          1.7320    0.2560   -0.0850 c3        1 886     -0.063700
      3 C3          0.7520    0.8340    0.9200 c3        1 886     -0.108600
      4 C4          1.1790   -1.0790   -0.6020 c3        1 886     -0.031500
      5 C5          1.3360   -2.1870    0.5410 c         1 886      0.922600
      6 O1          0.5440   -2.1190    1.4970 o         1 886     -0.774800
      7 O2          2.2300   -3.0540    0.3270 o         1 886     -0.774800
      8 N1          1.8570   -1.5770   -1.8370 n4        1 886     -0.717900
      9 S1          0.8370   -2.5080   -3.0260 sy        1 886      1.466200
     10 O3          1.7760   -3.3780   -3.5770 o         1 886     -0.609800
     11 O4          0.3290   -1.5040   -3.8550 o         1 886     -0.609800
     12 C6         -0.2910   -3.2290   -2.1280 ca        1 886     -0.501500
     13 C7          0.0230   -4.2690   -1.2300 ca        1 886      0.025000
     14 C8         -0.9690   -4.9140   -0.5020 ca        1 886     -0.147500
     15 C9         -2.3110   -4.5310   -0.6370 cp        1 886      0.090000
     16 C10        -2.6390   -3.4970   -1.5350 ca        1 886     -0.147500
     17 C11        -1.6480   -2.8560   -2.2540 ca        1 886      0.025000
     18 C12        -3.3510   -5.1800    0.1560 cp        1 886     -0.078000
     19 C13        -4.5900   -5.4970   -0.4160 ca        1 886     -0.099500
     20 C14        -5.5790   -6.1150    0.3460 ca        1 886     -0.117500
     21 C15        -5.3430   -6.4190    1.6900 ca        1 886     -0.072300
     22 C16        -4.1060   -6.1020    2.2650 ca        1 886     -0.117500
     23 C17        -3.1160   -5.4880    1.5040 ca        1 886     -0.099500
     24 C18        -6.3920   -7.0460    2.5470 c3        1 886      0.169700
     25 O5         -7.2880   -7.7690    1.6890 os        1 886     -0.326900
     26 C19        -8.3230   -8.4260    2.3220 ca        1 886      0.151100
     27 C20        -8.5620   -8.4020    3.7020 ca        1 886     -0.194500
     28 C21        -9.6490   -9.1060    4.2140 ca        1 886     -0.050500
     29 C22       -10.4900   -9.8440    3.3710 ca        1 886     -0.205600
     30 C23       -10.2420   -9.8530    1.9920 ca        1 886     -0.050500
     31 C24        -9.1690   -9.1510    1.4600 ca        1 886     -0.194500
     32 C25       -11.6260  -10.5780    3.9680 c         1 886      0.583700
     33 O6        -12.1300  -10.2170    5.0390 o         1 886     -0.534100
     34 C26       -12.1350  -11.8000    3.2300 c3        1 886     -0.158700
     35 C27       -12.4420  -12.9140    4.2110 c3        1 886     -0.088100
     36 C28       -13.3730  -11.4330    2.4340 c3        1 886     -0.088100
     37 H11         2.9340    1.0620   -1.7320 hc        1 886      0.046367
     38 H12         1.1390    1.3050   -1.9060 hc        1 886      0.046367
     39 H13         2.0900    2.2920   -0.7280 hc        1 886      0.046367
     40 H21         2.7040    0.0430    0.4460 hc        1 886      0.072700
     41 H31        -0.1870    1.1560    0.4090 hc        1 886      0.046367
     42 H32         1.2080    1.7210    1.4220 hc        1 886      0.046367
     43 H33         0.4930    0.0710    1.6980 hc        1 886      0.046367
     44 H41         0.0860   -0.9610   -0.8410 hx        1 886      0.080700
     45 H1N1        2.3080   -0.7970   -2.3130 hn        1 886      0.463300
     46 H71         1.0840   -4.5520   -1.0680 ha        1 886      0.172500
     47 H81        -0.6910   -5.7140    0.2030 ha        1 886      0.160000
     48 H101       -3.6900   -3.1860   -1.6450 ha        1 886      0.160000
     49 H111       -1.9140   -2.0350   -2.9460 ha        1 886      0.172500
     50 H131       -4.7820   -5.2670   -1.4750 ha        1 886      0.147000
     51 H141       -6.5480   -6.3740   -0.1080 ha        1 886      0.148500
     52 H161       -3.9130   -6.3380    3.3230 ha        1 886      0.148500
     53 H171       -2.1490   -5.2270    1.9660 ha        1 886      0.147000
     54 H181       -6.9670   -6.2500    3.0950 h1        1 886      0.056700
     55 H182       -5.9320   -7.7580    3.2850 h1        1 886      0.056700
     56 H201       -7.9140   -7.8360    4.3850 ha        1 886      0.147000
     57 H211       -9.8600   -9.0830    5.2960 ha        1 886      0.147500
     58 H231      -10.9070  -10.4110    1.3130 ha        1 886      0.147500
     59 H241       -8.9680   -9.1500    0.3790 ha        1 886      0.147000
     60 H261      -11.3360  -12.1600    2.5230 hc        1 886      0.060700
     61 H271      -12.8660  -13.7930    3.6700 hc        1 886      0.043700
     62 H272      -11.5120  -13.2320    4.7390 hc        1 886      0.043700
     63 H273      -13.1800  -12.5650    4.9730 hc        1 886      0.043700
     64 H281      -14.1750  -11.0600    3.1160 hc        1 886      0.043700
     65 H282      -13.1400  -10.6360    1.6880 hc        1 886      0.043700
     66 H283      -13.7550  -12.3310    1.8910 hc        1 886      0.043700
     67 H121        2.6140   -2.2030   -1.4800 hn        1 886      0.463300
@<TRIPOS>BOND
     1    1    2 1   
     2    1   37 1   
     3    1   38 1   
     4    1   39 1   
     5    2    3 1   
     6    2    4 1   
     7    2   40 1   
     8    3   41 1   
     9    3   42 1   
    10    3   43 1   
    11    4    5 1   
    12    4    8 1   
    13    4   44 1   
    14    5    6 1   
    15    5    7 1   
    16    8    9 1   
    17    8   45 1   
    18    8   67 1   
    19    9   10 2   
    20    9   11 2   
    21    9   12 1   
    22   12   13 ar  
    23   12   17 ar  
    24   13   14 ar  
    25   13   46 1   
    26   14   15 ar  
    27   14   47 1   
    28   15   16 ar  
    29   15   18 1   
    30   16   17 ar  
    31   16   48 1   
    32   17   49 1   
    33   18   19 ar  
    34   18   23 ar  
    35   19   20 ar  
    36   19   50 1   
    37   20   21 ar  
    38   20   51 1   
    39   21   22 ar  
    40   21   24 1   
    41   22   23 ar  
    42   22   52 1   
    43   23   53 1   
    44   24   25 1   
    45   24   54 1   
    46   24   55 1   
    47   25   26 1   
    48   26   27 ar  
    49   26   31 ar  
    50   27   28 ar  
    51   27   56 1   
    52   28   29 ar  
    53   28   57 1   
    54   29   30 ar  
    55   29   32 1   
    56   30   31 ar  
    57   30   58 1   
    58   31   59 1   
    59   32   33 2   
    60   32   34 1   
    61   34   35 1   
    62   34   36 1   
    63   34   60 1   
    64   35   61 1   
    65   35   62 1   
    66   35   63 1   
    67   36   64 1   
    68   36   65 1   
    69   36   66 1   
@<TRIPOS>SUBSTRUCTURE
     1 886         1 TEMP              0 ****  ****    0 ROOT
