@<TRIPOS>MOLECULE
886
   67    69     1     0     0
SMALL
bcc


@<TRIPOS>ATOM
      1 C1          1.9970    1.2700   -1.1630 c3        1 886     -0.108600
      2 C2          1.7390    0.2510   -0.0710 c3        1 886     -0.063700
      3 C3          0.7580    0.8290    0.9330 c3        1 886     -0.108600
      4 C4          1.1840   -1.0820   -0.5910 c3        1 886     -0.031500
      5 C5          1.3360   -2.1920    0.5510 c         1 886      0.922600
      6 O1          0.5420   -2.1240    1.5060 o         1 886     -0.774800
      7 O2          2.2290   -3.0610    0.3380 o         1 886     -0.774800
      8 N1          1.8630   -1.5800   -1.8260 ny        1 886     -0.717900
      9 S1          0.8430   -2.5070   -3.0170 sy        1 886      1.466200
     10 O3          1.7810   -3.3790   -3.5670 o         1 886     -0.609800
     11 O4          0.3390   -1.5020   -3.8460 o         1 886     -0.609800
     12 C6         -0.2880   -3.2270   -2.1220 ca        1 886     -0.501500
     13 C7          0.0220   -4.2680   -1.2240 ca        1 886      0.025000
     14 C8         -0.9730   -4.9110   -0.4980 ca        1 886     -0.147500
     15 C9         -2.3140   -4.5250   -0.6350 cp        1 886      0.090000
     16 C10        -2.6390   -3.4900   -1.5340 ca        1 886     -0.147500
     17 C11        -1.6440   -2.8510   -2.2510 ca        1 886      0.025000
     18 C12        -3.3570   -5.1730    0.1550 cp        1 886     -0.078000
     19 C13        -4.5960   -5.4880   -0.4200 ca        1 886     -0.099500
     20 C14        -5.5870   -6.1040    0.3400 ca        1 886     -0.117500
     21 C15        -5.3540   -6.4080    1.6850 ca        1 886     -0.072300
     22 C16        -4.1180   -6.0930    2.2630 ca        1 886     -0.117500
     23 C17        -3.1250   -5.4800    1.5040 ca        1 886     -0.099500
     24 C18        -6.4060   -7.0340    2.5390 c3        1 886      0.169700
     25 O5         -7.2970   -7.7610    1.6800 os        1 886     -0.326900
     26 C19        -8.3320   -8.4190    2.3110 ca        1 886      0.151100
     27 C20        -8.5790   -8.3890    3.6890 ca        1 886     -0.194500
     28 C21        -9.6660   -9.0960    4.1990 ca        1 886     -0.050500
     29 C22       -10.4990   -9.8410    3.3550 ca        1 886     -0.205600
     30 C23       -10.2430   -9.8570    1.9770 ca        1 886     -0.050500
     31 C24        -9.1700   -9.1530    1.4470 ca        1 886     -0.194500
     32 C25       -11.6350  -10.5780    3.9490 c         1 886      0.583700
     33 O6        -12.1470  -10.2130    5.0150 o         1 886     -0.534100
     34 C26       -12.1330  -11.8070    3.2150 c3        1 886     -0.158700
     35 C27       -12.4380  -12.9170    4.2010 c3        1 886     -0.088100
     36 C28       -13.3680  -11.4530    2.4110 c3        1 886     -0.088100
     37 H11         2.9460    1.0570   -1.7140 hc        1 886      0.046367
     38 H12         1.1510    1.3040   -1.8910 hc        1 886      0.046367
     39 H13         2.1020    2.2870   -0.7100 hc        1 886      0.046367
     40 H21         2.7090    0.0350    0.4610 hc        1 886      0.072700
     41 H31        -0.1790    1.1550    0.4210 hc        1 886      0.046367
     42 H32         1.2150    1.7150    1.4370 hc        1 886      0.046367
     43 H33         0.4960    0.0660    1.7100 hc        1 886      0.046367
     44 H41         0.0910   -0.9620   -0.8320 hx        1 886      0.080700
     45 H1N1        2.6180   -2.2080   -1.4680 hn        1 886      0.463300
     46 H71         1.0810   -4.5530   -1.0600 ha        1 886      0.172500
     47 H81        -0.6980   -5.7120    0.2070 ha        1 886      0.160000
     48 H101       -3.6880   -3.1770   -1.6460 ha        1 886      0.160000
     49 H111       -1.9080   -2.0290   -2.9420 ha        1 886      0.172500
     50 H131       -4.7850   -5.2570   -1.4800 ha        1 886      0.147000
     51 H141       -6.5560   -6.3610   -0.1160 ha        1 886      0.148500
     52 H161       -3.9280   -6.3290    3.3210 ha        1 886      0.148500
     53 H171       -2.1590   -5.2210    1.9680 ha        1 886      0.147000
     54 H181       -5.9490   -7.7410    3.2830 h1        1 886      0.056700
     55 H182       -6.9860   -6.2360    3.0800 h1        1 886      0.056700
     56 H201       -7.9370   -7.8170    4.3720 ha        1 886      0.147000
     57 H211       -9.8830   -9.0680    5.2800 ha        1 886      0.147500
     58 H231      -10.9020  -10.4210    1.2980 ha        1 886      0.147500
     59 H241       -8.9630   -9.1570    0.3680 ha        1 886      0.147000
     60 H261      -11.3280  -12.1660    2.5150 hc        1 886      0.060700
     61 H271      -12.8550  -13.8020    3.6630 hc        1 886      0.043700
     62 H272      -13.1830  -12.5690    4.9570 hc        1 886      0.043700
     63 H273      -11.5090  -13.2270    4.7360 hc        1 886      0.043700
     64 H281      -13.1360  -10.6590    1.6610 hc        1 886      0.043700
     65 H282      -13.7420  -12.3550    1.8710 hc        1 886      0.043700
     66 H283      -14.1760  -11.0800    3.0870 hc        1 886      0.043700
     67 H121        2.3160   -0.8000   -2.3000 hn        1 886      0.463300
@<TRIPOS>BOND
     1    1    2 1   
     2    1   37 1   
     3    1   38 1   
     4    1   39 1   
     5    2    3 1   
     6    2    4 1   
     7    2   40 1   
     8    3   41 1   
     9    3   42 1   
    10    3   43 1   
    11    4    5 1   
    12    4    8 1   
    13    4   44 1   
    14    5    6 1   
    15    5    7 1   
    16    8    9 1   
    17    8   45 1   
    18    8   67 1   
    19    9   10 2   
    20    9   11 2   
    21    9   12 1   
    22   12   13 ar  
    23   12   17 ar  
    24   13   14 ar  
    25   13   46 1   
    26   14   15 ar  
    27   14   47 1   
    28   15   16 ar  
    29   15   18 1   
    30   16   17 ar  
    31   16   48 1   
    32   17   49 1   
    33   18   19 ar  
    34   18   23 ar  
    35   19   20 ar  
    36   19   50 1   
    37   20   21 ar  
    38   20   51 1   
    39   21   22 ar  
    40   21   24 1   
    41   22   23 ar  
    42   22   52 1   
    43   23   53 1   
    44   24   25 1   
    45   24   54 1   
    46   24   55 1   
    47   25   26 1   
    48   26   27 ar  
    49   26   31 ar  
    50   27   28 ar  
    51   27   56 1   
    52   28   29 ar  
    53   28   57 1   
    54   29   30 ar  
    55   29   32 1   
    56   30   31 ar  
    57   30   58 1   
    58   31   59 1   
    59   32   33 2   
    60   32   34 1   
    61   34   35 1   
    62   34   36 1   
    63   34   60 1   
    64   35   61 1   
    65   35   62 1   
    66   35   63 1   
    67   36   64 1   
    68   36   65 1   
    69   36   66 1   
@<TRIPOS>SUBSTRUCTURE
     1 886         1 TEMP              0 ****  ****    0 ROOT
