@<TRIPOS>MOLECULE
886
   67    69     1     0     0
SMALL
bcc


@<TRIPOS>ATOM
      1 C1          3.4370    0.7000   -1.5270 c3        1 886     -0.104600
      2 C2          2.2140    0.7480   -0.6340 c3        1 886     -0.064700
      3 C3          1.5950    2.1330   -0.6860 c3        1 886     -0.104600
      4 C4          1.1430   -0.2740   -1.0310 c3        1 886     -0.059500
      5 C5          0.0360   -0.3140    0.1220 c         1 886      0.914600
      6 O1         -0.9900    0.3630   -0.0860 o         1 886     -0.770800
      7 O2          0.3020   -1.0790    1.0850 o         1 886     -0.770800
      8 N1          1.6680   -1.6630   -1.2050 n4        1 886     -0.714900
      9 S1          0.8400   -2.6200   -2.5160 sy        1 886      1.466200
     10 O3          1.8420   -3.5340   -2.8630 o         1 886     -0.605300
     11 O4          0.4550   -1.7000   -3.4820 o         1 886     -0.605300
     12 C6         -0.3760   -3.2980   -1.6960 ca        1 886     -0.507500
     13 C7         -0.3440   -4.6760   -1.3850 ca        1 886      0.022500
     14 C8         -1.3890   -5.2860   -0.7170 ca        1 886     -0.148500
     15 C9         -2.5130   -4.5360   -0.3150 cp        1 886      0.087000
     16 C10        -2.5600   -3.1690   -0.6210 ca        1 886     -0.148500
     17 C11        -1.5070   -2.5620   -1.2950 ca        1 886      0.022500
     18 C12        -3.6030   -5.1720    0.4180 cp        1 886     -0.078000
     19 C13        -4.2340   -4.4910    1.4700 ca        1 886     -0.099500
     20 C14        -5.2710   -5.0950    2.1740 ca        1 886     -0.118000
     21 C15        -5.6940   -6.3870    1.8370 ca        1 886     -0.071300
     22 C16        -5.0700   -7.0670    0.7880 ca        1 886     -0.118000
     23 C17        -4.0290   -6.4650    0.0840 ca        1 886     -0.099500
     24 C18        -6.7900   -7.0110    2.6370 c3        1 886      0.169700
     25 O5         -7.3810   -8.0510    1.8430 os        1 886     -0.327900
     26 C19        -8.4440   -8.7130    2.4220 ca        1 886      0.151100
     27 C20        -8.9140   -8.4900    3.7220 ca        1 886     -0.194000
     28 C21        -9.9940   -9.2360    4.1890 ca        1 886     -0.050500
     29 C22       -10.6000  -10.2080    3.3840 ca        1 886     -0.204600
     30 C23       -10.1220  -10.4140    2.0820 ca        1 886     -0.050500
     31 C24        -9.0530   -9.6760    1.5930 ca        1 886     -0.194000
     32 C25       -11.7380  -10.9760    3.9320 c         1 886      0.583700
     33 O6        -12.4450  -10.5130    4.8360 o         1 886     -0.533100
     34 C26       -11.9930  -12.3560    3.3610 c3        1 886     -0.158700
     35 C27       -12.3490  -13.3240    4.4710 c3        1 886     -0.088600
     36 C28       -13.1080  -12.2840    2.3370 c3        1 886     -0.088600
     37 H11         3.1450    0.6290   -2.6030 hc        1 886      0.045033
     38 H12         4.1030   -0.1600   -1.2730 hc        1 886      0.045033
     39 H13         4.0370    1.6340   -1.3930 hc        1 886      0.045033
     40 H21         2.5230    0.5320    0.4280 hc        1 886      0.073700
     41 H31         1.4000    2.4360   -1.7420 hc        1 886      0.045033
     42 H32         2.2900    2.8740   -0.2230 hc        1 886      0.045033
     43 H33         0.6240    2.1470   -0.1280 hc        1 886      0.045033
     44 H41         0.6640    0.0490   -1.9990 hx        1 886      0.106700
     45 H1N1        2.6730   -1.6310   -1.3760 hn        1 886      0.461300
     46 H71         0.5360   -5.2730   -1.6880 ha        1 886      0.175000
     47 H81        -1.3390   -6.3610   -0.4790 ha        1 886      0.161500
     48 H101       -3.4260   -2.5610   -0.3120 ha        1 886      0.161500
     49 H111       -1.5550   -1.4680   -1.4890 ha        1 886      0.175000
     50 H131       -3.9000   -3.4780    1.7480 ha        1 886      0.146000
     51 H141       -5.7600   -4.5530    2.9980 ha        1 886      0.149000
     52 H161       -5.4090   -8.0790    0.5150 ha        1 886      0.149000
     53 H171       -3.5490   -7.0050   -0.7460 ha        1 886      0.146000
     54 H181       -7.5750   -6.2510    2.8980 h1        1 886      0.057200
     55 H182       -6.3680   -7.4600    3.5780 h1        1 886      0.057200
     56 H201       -8.4520   -7.7390    4.3770 ha        1 886      0.147000
     57 H211      -10.3860   -9.0610    5.2050 ha        1 886      0.148000
     58 H231      -10.6040  -11.1590    1.4270 ha        1 886      0.148000
     59 H241       -8.6760   -9.8270    0.5720 ha        1 886      0.147000
     60 H261      -11.0550  -12.7230    2.8580 hc        1 886      0.060700
     61 H271      -12.5880  -14.3260    4.0420 hc        1 886      0.043700
     62 H272      -13.2360  -12.9520    5.0390 hc        1 886      0.043700
     63 H273      -11.4950  -13.4320    5.1810 hc        1 886      0.043700
     64 H281      -12.8340  -11.5960    1.5020 hc        1 886      0.043700
     65 H282      -14.0470  -11.9100    2.8130 hc        1 886      0.043700
     66 H283      -13.3030  -13.2990    1.9150 hc        1 886      0.043700
     67 H121        1.5380   -2.1030   -0.2720 hn        1 886      0.461300
@<TRIPOS>BOND
     1    1    2 1   
     2    1   37 1   
     3    1   38 1   
     4    1   39 1   
     5    2    3 1   
     6    2    4 1   
     7    2   40 1   
     8    3   41 1   
     9    3   42 1   
    10    3   43 1   
    11    4    5 1   
    12    4    8 1   
    13    4   44 1   
    14    5    6 1   
    15    5    7 1   
    16    8    9 1   
    17    8   45 1   
    18    8   67 1   
    19    9   10 2   
    20    9   11 2   
    21    9   12 1   
    22   12   13 ar  
    23   12   17 ar  
    24   13   14 ar  
    25   13   46 1   
    26   14   15 ar  
    27   14   47 1   
    28   15   16 ar  
    29   15   18 1   
    30   16   17 ar  
    31   16   48 1   
    32   17   49 1   
    33   18   19 ar  
    34   18   23 ar  
    35   19   20 ar  
    36   19   50 1   
    37   20   21 ar  
    38   20   51 1   
    39   21   22 ar  
    40   21   24 1   
    41   22   23 ar  
    42   22   52 1   
    43   23   53 1   
    44   24   25 1   
    45   24   54 1   
    46   24   55 1   
    47   25   26 1   
    48   26   27 ar  
    49   26   31 ar  
    50   27   28 ar  
    51   27   56 1   
    52   28   29 ar  
    53   28   57 1   
    54   29   30 ar  
    55   29   32 1   
    56   30   31 ar  
    57   30   58 1   
    58   31   59 1   
    59   32   33 2   
    60   32   34 1   
    61   34   35 1   
    62   34   36 1   
    63   34   60 1   
    64   35   61 1   
    65   35   62 1   
    66   35   63 1   
    67   36   64 1   
    68   36   65 1   
    69   36   66 1   
@<TRIPOS>SUBSTRUCTURE
     1 886         1 TEMP              0 ****  ****    0 ROOT
