@<TRIPOS>MOLECULE
886
   66    54     1     0     0
SMALL
bcc


@<TRIPOS>ATOM
      1 C1          6.1870    6.5460   -6.3410 c3        1 886     -0.210000
      2 C2          5.1910    5.8100   -5.4740 c3        1 886     -0.090000
      3 C3          4.3990    4.8450   -6.3240 c3        1 886     -0.210000
      4 C4          5.9270    5.0460   -4.3960 c3        1 886     -0.052000
      5 C5          6.6620    3.8800   -5.0170 c1        1 886      0.324000
      6 O1          7.9190    3.8930   -5.0880 o         1 886     -0.570000
      7 O2          6.0180    2.8820   -5.4350 os        1 886     -0.552000
      8 N1          4.9960    4.5640   -3.4360 n3        1 886     -0.880000
      9 S1          5.5180    3.6560   -2.1670 s4        1 886      2.055800
     10 O3          6.4910    2.6850   -2.5860 o         1 886     -0.565400
     11 O4          6.2890    4.4430   -1.2460 o         1 886     -0.565400
     12 C6          4.1400    2.8800   -1.3560 c1        1 886     -0.230500
     13 C7          3.6330    3.4180   -0.1820 c1        1 886     -0.106833
     14 C8          2.5800    2.7920    0.4700 c1        1 886     -0.106833
     15 C9          2.0340    1.6290   -0.0520 c1        1 886     -0.230500
     16 C10         2.5410    1.0910   -1.2260 c1        1 886     -0.097250
     17 C11         3.5940    1.7170   -1.8780 c1        1 886     -0.097250
     18 C12         0.9670    1.0100    0.5930 c1        1 886     -0.230500
     19 C13        -0.3260    1.1980    0.1270 c1        1 886     -0.106833
     20 C14        -1.3780    0.4950    0.6960 c1        1 886     -0.106833
     21 C15        -1.1370   -0.3960    1.7310 c1        1 886     -0.230500
     22 C16         0.1560   -0.5840    2.1970 c1        1 886     -0.097250
     23 C17         1.2080    0.1190    1.6280 c1        1 886     -0.097250
     24 C18        -2.3000   -1.1000    2.4140 c2        1 886      0.021000
     25 O5         -2.6710   -2.2370    1.6610 os        1 886     -0.202000
     26 C19        -3.7210   -2.9870    2.2360 c1        1 886      0.118000
     27 C20        -5.0370   -2.7090    1.8980 c1        1 886     -0.106833
     28 C21        -6.0630   -3.5030    2.3890 c1        1 886     -0.106833
     29 C22        -5.7730   -4.5760    3.2190 c1        1 886     -0.195000
     30 C23        -4.4580   -4.8540    3.5570 c1        1 886     -0.054000
     31 C24        -3.4310   -4.0600    3.0660 c1        1 886     -0.225000
     32 C25        -6.8980   -5.4150    3.7940 c1        1 886      0.277000
     33 O6         -8.0530   -5.1320    3.5480 o         1 886     -0.303000
     34 C26        -6.5820   -6.5870    4.7000 c2        1 886     -0.150000
     35 C27        -7.3340   -6.4340    6.0040 c3        1 886     -0.205500
     36 C28        -7.0020   -7.8750    4.0240 c3        1 886     -0.205500
     37 H11         5.7100    7.0460   -7.0360 hc        1 886      0.073667
     38 H12         6.7050    7.1680   -5.7890 hc        1 886      0.073667
     39 H13         6.7930    5.9000   -6.7610 hc        1 886      0.073667
     40 H21         4.5830    6.4530   -5.0600 hc        1 886      0.061000
     41 H31         4.9610    4.0760   -6.5530 hc        1 886      0.073667
     42 H32         3.6140    4.5380   -5.8250 hc        1 886      0.073667
     43 H33         4.1090    5.2940   -7.1450 hc        1 886      0.073667
     44 H41         6.5690    5.6390   -3.9570 h1        1 886      0.095000
     45 H1N1        4.1140    4.7900   -3.5020 hn        1 886      0.264000
     46 H71         4.0330    4.2240    0.1980 ha        1 886      0.144333
     47 H81         2.2120    3.1810    1.2870 ha        1 886      0.144333
     48 H101        2.1670    0.2640   -1.5840 ha        1 886      0.155750
     49 H111        3.9500    1.3390   -2.7030 ha        1 886      0.155750
     50 H131       -0.4990    1.8480   -0.5800 ha        1 886      0.144333
     51 H141       -2.2880    0.6270    0.3680 ha        1 886      0.144333
     52 H161        0.3250   -1.2110    2.9250 ha        1 886      0.155750
     53 H171        2.1180   -0.0140    1.9560 ha        1 886      0.155750
     54 H181       -2.0310   -1.3780    3.3140 h4        1 886      0.086500
     55 H182       -3.0610   -0.4870    2.4760 h4        1 886      0.086500
     56 H201       -5.2380   -1.9740    1.2890 ha        1 886      0.144333
     57 H211       -6.9870   -3.3180    2.1360 ha        1 886      0.144333
     58 H231       -4.2540   -5.6090    4.1410 ha        1 886      0.134000
     59 H241       -2.5040   -4.2710    3.2850 ha        1 886      0.142000
     60 H261       -5.6230   -6.6110    4.8780 ha        1 886      0.101000
     61 H271       -7.0290   -7.1150    6.6390 hc        1 886      0.081333
     62 H272       -7.1650   -5.5430    6.3750 hc        1 886      0.081333
     63 H273       -8.2950   -6.5450    5.8420 hc        1 886      0.081333
     64 H281       -6.4730   -8.0040    3.2090 hc        1 886      0.081333
     65 H282       -6.8520   -8.6280    4.6330 hc        1 886      0.081333
     66 H283       -7.9530   -7.8270    3.7920 hc        1 886      0.081333
@<TRIPOS>BOND
     1    1    2 1   
     2    1   37 1   
     3    1   38 1   
     4    1   39 1   
     5    2    3 1   
     6    2    4 1   
     7    2   40 1   
     8    3   41 1   
     9    3   42 1   
    10    3   43 1   
    11    4    5 1   
    12    4    8 1   
    13    4   44 1   
    14    5    6 1   
    15    8    9 1   
    16    8   45 1   
    17    9   10 1   
    18    9   11 1   
    19   12   17 1   
    20   13   14 1   
    21   13   46 1   
    22   14   47 1   
    23   15   16 1   
    24   16   48 1   
    25   17   49 1   
    26   18   23 1   
    27   19   20 1   
    28   19   50 1   
    29   20   51 1   
    30   21   22 1   
    31   22   52 1   
    32   23   53 1   
    33   24   25 1   
    34   24   54 1   
    35   24   55 1   
    36   25   26 1   
    37   26   31 1   
    38   27   28 1   
    39   27   56 1   
    40   28   57 1   
    41   29   30 1   
    42   29   32 1   
    43   30   58 1   
    44   31   59 1   
    45   32   33 1   
    46   34   35 1   
    47   34   36 1   
    48   34   60 1   
    49   35   61 1   
    50   35   62 1   
    51   35   63 1   
    52   36   64 1   
    53   36   65 1   
    54   36   66 1   
@<TRIPOS>SUBSTRUCTURE
     1 886         1 TEMP              0 ****  ****    0 ROOT
