@<TRIPOS>MOLECULE
886
   66    68     1     0     0
SMALL
bcc


@<TRIPOS>ATOM
      1 C1         -6.1240   -2.2930    0.8060 c3        1 886     -0.098100
      2 C2         -7.2860   -2.2210   -0.1600 c3        1 886     -0.070700
      3 C3         -8.4160   -3.1030    0.3380 c3        1 886     -0.098100
      4 C4         -7.8200   -0.7870   -0.3620 c3        1 886      0.101500
      5 C5         -8.8360   -0.8310   -1.5770 c         1 886      0.921600
      6 O1         -8.3590   -0.7040   -2.7370 o         1 886     -0.820800
      7 O2        -10.0470   -0.9980   -1.2870 o         1 886     -0.820800
      8 N1         -6.8000    0.2080   -0.6170 n3        1 886     -0.918100
      9 S1         -6.1180    1.1530    0.4420 sy        1 886      1.504200
     10 O3         -6.3100    2.5240    0.1430 o         1 886     -0.675800
     11 O4         -6.3850    0.7970    1.7880 o         1 886     -0.675800
     12 C6         -4.4350    0.8700    0.1640 ca        1 886     -0.314500
     13 C7         -3.6860    0.0880    1.0460 ca        1 886     -0.026500
     14 C8         -2.3250   -0.1220    0.8390 ca        1 886     -0.148000
     15 C9         -1.6870    0.4460   -0.2720 cp        1 886     -0.012000
     16 C10        -2.4330    1.2340   -1.1590 ca        1 886     -0.148000
     17 C11        -3.7910    1.4420   -0.9350 ca        1 886     -0.026500
     18 C12        -0.2610    0.2190   -0.5030 cp        1 886     -0.021000
     19 C13         0.2190   -0.0150   -1.8000 ca        1 886     -0.119000
     20 C14         1.5750   -0.2360   -2.0220 ca        1 886     -0.113500
     21 C15         2.4740   -0.2320   -0.9490 ca        1 886     -0.104300
     22 C16         2.0020    0.0060    0.3450 ca        1 886     -0.113500
     23 C17         0.6450    0.2310    0.5660 ca        1 886     -0.119000
     24 C18         3.9150   -0.5190   -1.2060 c3        1 886      0.177700
     25 O5          4.6880    0.2740   -0.2880 os        1 886     -0.320900
     26 C19         6.0530    0.1450   -0.3860 ca        1 886      0.161100
     27 C20         6.7180   -0.7190   -1.2660 ca        1 886     -0.198500
     28 C21         8.1100   -0.7580   -1.2590 ca        1 886     -0.050500
     29 C22         8.8490    0.0420   -0.3780 ca        1 886     -0.214600
     30 C23         8.1700    0.9090    0.4910 ca        1 886     -0.050500
     31 C24         6.7850    0.9700    0.4940 ca        1 886     -0.198500
     32 C25        10.3220   -0.0470   -0.4050 c         1 886      0.586700
     33 O6         10.9250   -0.4440   -1.4120 o         1 886     -0.542100
     34 C26        11.0730    0.3470    0.8520 c3        1 886     -0.159700
     35 C27        12.2290   -0.6040    1.0920 c3        1 886     -0.087600
     36 C28        11.5740    1.7720    0.7190 c3        1 886     -0.087600
     37 H11        -5.9270   -3.3530    1.0960 hc        1 886      0.031033
     38 H12        -5.1930   -1.8840    0.3420 hc        1 886      0.031033
     39 H13        -6.3450   -1.7060    1.7320 hc        1 886      0.031033
     40 H21        -6.9480   -2.6000   -1.1660 hc        1 886      0.056700
     41 H31        -9.3240   -2.9620   -0.3010 hc        1 886      0.031033
     42 H32        -8.1070   -4.1750    0.3080 hc        1 886      0.031033
     43 H33        -8.6810   -2.8390    1.3900 hc        1 886      0.031033
     44 H41        -8.3880   -0.4860    0.5650 h1        1 886      0.055700
     45 H1N1       -6.6530    0.2970   -1.6040 hn        1 886      0.478800
     46 H71        -4.1890   -0.3630    1.9220 ha        1 886      0.154500
     47 H81        -1.7520   -0.7460    1.5410 ha        1 886      0.131500
     48 H101       -1.9420    1.6960   -2.0290 ha        1 886      0.131500
     49 H111       -4.3690    2.0800   -1.6270 ha        1 886      0.154500
     50 H131       -0.4850   -0.0300   -2.6470 ha        1 886      0.142500
     51 H141        1.9390   -0.4160   -3.0450 ha        1 886      0.135500
     52 H161        2.7120    0.0250    1.1860 ha        1 886      0.135500
     53 H171        0.2810    0.4240    1.5870 ha        1 886      0.142500
     54 H181        4.1320   -1.6070   -1.0210 h1        1 886      0.048700
     55 H182        4.2020   -0.2490   -2.2570 h1        1 886      0.048700
     56 H201        6.1610   -1.3610   -1.9620 ha        1 886      0.149000
     57 H211        8.6460   -1.4230   -1.9560 ha        1 886      0.144000
     58 H231        8.7360    1.5630    1.1730 ha        1 886      0.144000
     59 H241        6.2440    1.6500    1.1680 ha        1 886      0.149000
     60 H261       10.3730    0.2820    1.7310 hc        1 886      0.062700
     61 H271       12.9080   -0.6200    0.2050 hc        1 886      0.042200
     62 H272       12.8100   -0.2810    1.9880 hc        1 886      0.042200
     63 H273       11.8490   -1.6390    1.2640 hc        1 886      0.042200
     64 H281       10.7210    2.4770    0.5720 hc        1 886      0.042200
     65 H282       12.1260    2.0680    1.6430 hc        1 886      0.042200
     66 H283       12.2650    1.8600   -0.1540 hc        1 886      0.042200
@<TRIPOS>BOND
     1    1    2 1   
     2    1   37 1   
     3    1   38 1   
     4    1   39 1   
     5    2    3 1   
     6    2    4 1   
     7    2   40 1   
     8    3   41 1   
     9    3   42 1   
    10    3   43 1   
    11    4    5 1   
    12    4    8 1   
    13    4   44 1   
    14    5    6 1   
    15    5    7 1   
    16    8    9 1   
    17    8   45 1   
    18    9   10 2   
    19    9   11 2   
    20    9   12 1   
    21   12   13 ar  
    22   12   17 ar  
    23   13   14 ar  
    24   13   46 1   
    25   14   15 ar  
    26   14   47 1   
    27   15   16 ar  
    28   15   18 1   
    29   16   17 ar  
    30   16   48 1   
    31   17   49 1   
    32   18   19 ar  
    33   18   23 ar  
    34   19   20 ar  
    35   19   50 1   
    36   20   21 ar  
    37   20   51 1   
    38   21   22 ar  
    39   21   24 1   
    40   22   23 ar  
    41   22   52 1   
    42   23   53 1   
    43   24   25 1   
    44   24   54 1   
    45   24   55 1   
    46   25   26 1   
    47   26   27 ar  
    48   26   31 ar  
    49   27   28 ar  
    50   27   56 1   
    51   28   29 ar  
    52   28   57 1   
    53   29   30 ar  
    54   29   32 1   
    55   30   31 ar  
    56   30   58 1   
    57   31   59 1   
    58   32   33 2   
    59   32   34 1   
    60   34   35 1   
    61   34   36 1   
    62   34   60 1   
    63   35   61 1   
    64   35   62 1   
    65   35   63 1   
    66   36   64 1   
    67   36   65 1   
    68   36   66 1   
@<TRIPOS>SUBSTRUCTURE
     1 886         1 TEMP              0 ****  ****    0 ROOT
