@<TRIPOS>MOLECULE
887
   54    58     1     0     0
SMALL
bcc


@<TRIPOS>ATOM
      1 C1          0.3040    0.7220   -0.1260 ca        1 887      0.133100
      2 C2          1.5940    0.2670    0.0860 ca        1 887     -0.133000
      3 C3          2.0240   -0.0330    1.4040 ca        1 887     -0.025000
      4 C4          1.1330    0.1510    2.4990 ca        1 887     -0.005000
      5 C5         -0.1820    0.6240    2.2390 ca        1 887     -0.133000
      6 C6         -0.5950    0.9040    0.9610 ca        1 887     -0.109000
      7 C10         3.3370   -0.5200    1.6380 ca        1 887     -0.030000
      8 C11         3.7640   -0.8130    2.9150 ca        1 887     -0.148000
      9 C12         2.9000   -0.6240    4.0090 ca        1 887     -0.067000
     10 C13         1.6110   -0.1500    3.8110 ca        1 887     -0.193600
     11 O17        -0.0740    0.8910   -1.4470 os        1 887     -0.234200
     12 C18        -1.0500    1.8560   -1.7050 ca        1 887      0.131100
     13 C19        -1.9930    1.5340   -2.7270 ca        1 887     -0.139300
     14 C20        -2.9360    2.5510   -3.0780 ca        1 887      0.423600
     15 N21        -2.9490    3.7880   -2.4650 nb        1 887     -0.648000
     16 C22        -2.0490    4.0290   -1.5270 ca        1 887      0.421200
     17 C23        -1.0610    3.0940   -1.0960 ca        1 887     -0.304300
     18 C26        -2.0110    0.2790   -3.3860 ca        1 887     -0.184000
     19 C27        -2.9420    0.0270   -4.3670 ca        1 887      0.131100
     20 C28        -3.9020    1.0420   -4.7290 ca        1 887      0.144100
     21 C29        -3.8970    2.2660   -4.1000 ca        1 887     -0.249300
     22 O32        -3.0630   -1.1470   -5.0720 os        1 887     -0.292900
     23 O33        -4.7770    0.6630   -5.7180 os        1 887     -0.295900
     24 C34        -5.7270    1.6440   -6.1300 c3        1 887      0.104700
     25 C38        -2.0920   -2.1510   -4.7870 c3        1 887      0.106700
     26 C42         0.7040    0.0000    4.9490 c         1 887      0.592700
     27 N43         1.3090    0.7640    6.1390 ny        1 887     -0.653800
     28 C44         1.3430   -0.0560    7.3580 cx        1 887     -0.004500
     29 O45        -0.4530   -0.3510    5.1060 o         1 887     -0.410100
     30 C46         2.6250   -0.7120    7.8310 cx        1 887     -0.102900
     31 C47         2.0540    0.4360    8.6030 cx        1 887     -0.102900
     32 H2          2.2810    0.1240   -0.7630 ha        1 887      0.173000
     33 H5         -0.8910    0.7450    3.0730 ha        1 887      0.145000
     34 H6         -1.6180    1.2620    0.7570 ha        1 887      0.174000
     35 H10         4.0110   -0.6650    0.7750 ha        1 887      0.166000
     36 H11         4.7780   -1.2040    3.0920 ha        1 887      0.165000
     37 H12         3.2600   -0.8960    5.0140 ha        1 887      0.132000
     38 H22        -2.0830    5.0330   -1.0640 h4        1 887      0.030100
     39 H23        -0.3410    3.3690   -0.3160 ha        1 887      0.147000
     40 H26        -1.2630   -0.4740   -3.0960 ha        1 887      0.155000
     41 H29        -4.6230    3.0490   -4.3710 ha        1 887      0.168000
     42 H341       -6.3020    1.1180   -6.9340 h1        1 887      0.053700
     43 H342       -5.2100    2.5460   -6.5380 h1        1 887      0.053700
     44 H343       -6.3970    1.9230   -5.2810 h1        1 887      0.053700
     45 H381       -2.1750   -2.4870   -3.7250 h1        1 887      0.050033
     46 H382       -1.0620   -1.7780   -5.0040 h1        1 887      0.050033
     47 H383       -2.3710   -2.9800   -5.4880 h1        1 887      0.050033
     48 H43         2.2520    1.0820    5.8950 hn        1 887      0.455800
     49 H44         0.3780   -0.6080    7.4700 hx        1 887      0.157700
     50 H461        2.5500   -1.7410    8.2360 hc        1 887      0.109700
     51 H462        3.5660   -0.5630    7.2690 hc        1 887      0.109700
     52 H471        2.5840    1.4070    8.5930 hc        1 887      0.109700
     53 H472        1.5570    0.2540    9.5770 hc        1 887      0.109700
     54 H432        0.7220    1.5860    6.3270 hn        1 887      0.455800
@<TRIPOS>BOND
     1    1    2 ar  
     2    1    6 ar  
     3    1   11 1   
     4    2    3 ar  
     5    2   32 1   
     6    3    4 ar  
     7    3    7 ar  
     8    4    5 ar  
     9    4   10 ar  
    10    5    6 ar  
    11    5   33 1   
    12    6   34 1   
    13    7    8 ar  
    14    7   35 1   
    15    8    9 ar  
    16    8   36 1   
    17    9   10 ar  
    18    9   37 1   
    19   10   26 1   
    20   11   12 1   
    21   12   13 ar  
    22   12   17 ar  
    23   13   14 ar  
    24   13   18 ar  
    25   14   15 ar  
    26   14   21 ar  
    27   15   16 ar  
    28   16   17 ar  
    29   16   38 1   
    30   17   39 1   
    31   18   19 ar  
    32   18   40 1   
    33   19   20 ar  
    34   19   22 1   
    35   20   21 ar  
    36   20   23 1   
    37   21   41 1   
    38   22   25 1   
    39   23   24 1   
    40   24   42 1   
    41   24   43 1   
    42   24   44 1   
    43   25   45 1   
    44   25   46 1   
    45   25   47 1   
    46   26   27 1   
    47   26   29 2   
    48   27   28 1   
    49   27   48 1   
    50   27   54 1   
    51   28   30 1   
    52   28   31 1   
    53   28   49 1   
    54   30   31 1   
    55   30   50 1   
    56   30   51 1   
    57   31   52 1   
    58   31   53 1   
@<TRIPOS>SUBSTRUCTURE
     1 887         1 TEMP              0 ****  ****    0 ROOT
