@<TRIPOS>MOLECULE
887
   53    57     1     0     0
SMALL
bcc


@<TRIPOS>ATOM
      1 C1          0.2530    0.8270    0.1540 ca        1 887      0.093100
      2 C2          0.9030    1.8320    0.8380 ca        1 887     -0.125000
      3 C3          2.3150    1.9480    0.7260 ca        1 887     -0.032000
      4 C4          3.0370    1.0190   -0.0700 ca        1 887     -0.012000
      5 C5          2.3230   -0.0020   -0.7600 ca        1 887     -0.097000
      6 C6          0.9590   -0.1030   -0.6550 ca        1 887     -0.143000
      7 C10         3.0140    2.9860    1.4010 ca        1 887     -0.098000
      8 C11         4.3780    3.0930    1.2950 ca        1 887     -0.133000
      9 C12         5.1060    2.1620    0.5190 ca        1 887     -0.099000
     10 C13         4.4550    1.1460   -0.1470 ca        1 887     -0.120600
     11 O17        -1.1440    0.8360    0.1770 os        1 887     -0.248200
     12 C18        -1.7660   -0.3380    0.5740 ca        1 887      0.167100
     13 C19        -3.1740   -0.3940    0.3110 ca        1 887     -0.150300
     14 C20        -3.8700   -1.5610    0.7480 ca        1 887      0.423600
     15 N21        -3.2340   -2.6050    1.3930 nb        1 887     -0.676000
     16 C22        -1.9340   -2.4990    1.6050 ca        1 887      0.435200
     17 C23        -1.1360   -1.3830    1.2190 ca        1 887     -0.327300
     18 C26        -3.8650    0.6520   -0.3500 ca        1 887     -0.164000
     19 C27        -5.2180    0.5510   -0.5770 ca        1 887      0.111100
     20 C28        -5.9350   -0.6200   -0.1410 ca        1 887      0.135100
     21 C29        -5.2790   -1.6440    0.5010 ca        1 887     -0.249300
     22 O32        -5.9950    1.4990   -1.2080 os        1 887     -0.301900
     23 O33        -7.2820   -0.5990   -0.4260 os        1 887     -0.301900
     24 C34        -8.0270   -1.7410   -0.0140 c3        1 887      0.107700
     25 C38        -5.3080    2.6600   -1.6630 c3        1 887      0.107700
     26 C42         5.2430    0.1800   -0.9740 c         1 887      0.676700
     27 N43         6.2610   -0.4850   -0.3140 n         1 887     -0.542900
     28 C44         7.0910   -1.4390   -0.9560 cx        1 887      0.051700
     29 O45         5.0140   -0.0130   -2.1840 o         1 887     -0.594100
     30 C46         8.5360   -1.6360   -0.5390 cx        1 887     -0.152900
     31 C47         7.5280   -2.7120   -0.2560 cx        1 887     -0.152900
     32 H2          0.3430    2.5510    1.4530 ha        1 887      0.153000
     33 H5          2.8860   -0.6980   -1.4050 ha        1 887      0.164000
     34 H6          0.3970   -0.8840   -1.1880 ha        1 887      0.155000
     35 H10         2.4370    3.7030    2.0070 ha        1 887      0.140000
     36 H11         4.9220    3.8990    1.8090 ha        1 887      0.140000
     37 H12         6.2000    2.2710    0.4470 ha        1 887      0.141000
     38 H22        -1.4540   -3.3500    2.1240 h4        1 887      0.023100
     39 H23        -0.0600   -1.3720    1.4340 ha        1 887      0.157000
     40 H26        -3.2890    1.5340   -0.6700 ha        1 887      0.159000
     41 H29        -5.8170   -2.5430    0.8380 ha        1 887      0.160000
     42 H341       -7.9830   -1.8600    1.0960 h1        1 887      0.048033
     43 H342       -9.0680   -1.5010   -0.3460 h1        1 887      0.048033
     44 H343       -7.6510   -2.6620   -0.5230 h1        1 887      0.048033
     45 H381       -4.8520    3.2110   -0.8050 h1        1 887      0.046700
     46 H382       -4.5270    2.3890   -2.4140 h1        1 887      0.046700
     47 H383       -6.1190    3.2690   -2.1380 h1        1 887      0.046700
     48 H43         6.3930   -0.3310    0.6570 hn        1 887      0.313500
     49 H44         6.8530   -1.5040   -2.0450 h1        1 887      0.122700
     50 H461        9.2870   -1.7900   -1.3340 hc        1 887      0.074950
     51 H462        8.9490   -1.0600    0.3080 hc        1 887      0.074950
     52 H471        7.2290   -2.8960    0.7900 hc        1 887      0.074950
     53 H472        7.5500   -3.6450   -0.8460 hc        1 887      0.074950
@<TRIPOS>BOND
     1    1    2 ar  
     2    1    6 ar  
     3    1   11 1   
     4    2    3 ar  
     5    2   32 1   
     6    3    4 ar  
     7    3    7 ar  
     8    4    5 ar  
     9    4   10 ar  
    10    5    6 ar  
    11    5   33 1   
    12    6   34 1   
    13    7    8 ar  
    14    7   35 1   
    15    8    9 ar  
    16    8   36 1   
    17    9   10 ar  
    18    9   37 1   
    19   10   26 1   
    20   11   12 1   
    21   12   13 ar  
    22   12   17 ar  
    23   13   14 ar  
    24   13   18 ar  
    25   14   15 ar  
    26   14   21 ar  
    27   15   16 ar  
    28   16   17 ar  
    29   16   38 1   
    30   17   39 1   
    31   18   19 ar  
    32   18   40 1   
    33   19   20 ar  
    34   19   22 1   
    35   20   21 ar  
    36   20   23 1   
    37   21   41 1   
    38   22   25 1   
    39   23   24 1   
    40   24   42 1   
    41   24   43 1   
    42   24   44 1   
    43   25   45 1   
    44   25   46 1   
    45   25   47 1   
    46   26   27 1   
    47   26   29 2   
    48   27   28 1   
    49   27   48 1   
    50   28   30 1   
    51   28   31 1   
    52   28   49 1   
    53   30   31 1   
    54   30   50 1   
    55   30   51 1   
    56   31   52 1   
    57   31   53 1   
@<TRIPOS>SUBSTRUCTURE
     1 887         1 TEMP              0 ****  ****    0 ROOT
