@<TRIPOS>MOLECULE
887
   54    58     1     0     0
SMALL
bcc


@<TRIPOS>ATOM
      1 C1          0.3040    0.7330   -0.1240 ca        1 887      0.133100
      2 C2          1.5970    0.2880    0.0860 ca        1 887     -0.133000
      3 C3          2.0290   -0.0170    1.4020 ca        1 887     -0.025000
      4 C4          1.1350    0.1520    2.4980 ca        1 887     -0.005000
      5 C5         -0.1840    0.6150    2.2400 ca        1 887     -0.133000
      6 C6         -0.5980    0.9000    0.9630 ca        1 887     -0.110000
      7 C10         3.3460   -0.4950    1.6340 ca        1 887     -0.030000
      8 C11         3.7730   -0.7930    2.9100 ca        1 887     -0.148000
      9 C12         2.9070   -0.6180    4.0040 ca        1 887     -0.067000
     10 C13         1.6150   -0.1540    3.8080 ca        1 887     -0.193600
     11 O17        -0.0750    0.9080   -1.4440 os        1 887     -0.234200
     12 C18        -1.0590    1.8650   -1.6970 ca        1 887      0.131100
     13 C19        -1.9980    1.5420   -2.7220 ca        1 887     -0.139300
     14 C20        -2.9500    2.5530   -3.0670 ca        1 887      0.423600
     15 N21        -2.9740    3.7850   -2.4460 nb        1 887     -0.648000
     16 C22        -2.0780    4.0280   -1.5050 ca        1 887      0.421200
     17 C23        -1.0830    3.0990   -1.0790 ca        1 887     -0.304300
     18 C26        -2.0040    0.2910   -3.3900 ca        1 887     -0.184000
     19 C27        -2.9320    0.0380   -4.3740 ca        1 887      0.131100
     20 C28        -3.9010    1.0460   -4.7290 ca        1 887      0.144100
     21 C29        -3.9070    2.2660   -4.0930 ca        1 887     -0.249300
     22 O32        -3.0410   -1.1330   -5.0870 os        1 887     -0.292900
     23 O33        -4.7710    0.6660   -5.7220 os        1 887     -0.295900
     24 C34        -5.7300    1.6420   -6.1290 c3        1 887      0.104700
     25 C38        -2.0620   -2.1300   -4.8080 c3        1 887      0.106700
     26 C42         0.7060   -0.0180    4.9460 c         1 887      0.592700
     27 N43         1.3020    0.7430    6.1410 n4        1 887     -0.653800
     28 C44         1.3420   -0.0840    7.3560 cx        1 887     -0.004500
     29 O45        -0.4480   -0.3810    5.1010 o         1 887     -0.410100
     30 C46         2.6270   -0.7340    7.8260 cx        1 887     -0.102900
     31 C47         2.0480    0.4060    8.6040 cx        1 887     -0.102900
     32 H2          2.2860    0.1560   -0.7630 ha        1 887      0.173000
     33 H5         -0.8950    0.7250    3.0740 ha        1 887      0.145000
     34 H6         -1.6240    1.2500    0.7600 ha        1 887      0.174000
     35 H10         4.0210   -0.6290    0.7710 ha        1 887      0.166000
     36 H11         4.7910   -1.1760    3.0850 ha        1 887      0.165000
     37 H12         3.2690   -0.8930    5.0080 ha        1 887      0.132000
     38 H22        -2.1220    5.0290   -1.0360 h4        1 887      0.030100
     39 H23        -0.3650    3.3750   -0.2970 ha        1 887      0.147000
     40 H26        -1.2500   -0.4570   -3.1040 ha        1 887      0.155000
     41 H29        -4.6400    3.0440   -4.3590 ha        1 887      0.168000
     42 H341       -5.2200    2.5510   -6.5290 h1        1 887      0.053700
     43 H342       -6.2990    1.1150   -6.9370 h1        1 887      0.053700
     44 H343       -6.4030    1.9080   -5.2780 h1        1 887      0.053700
     45 H381       -2.3330   -2.9560   -5.5140 h1        1 887      0.050033
     46 H382       -2.1420   -2.4730   -3.7480 h1        1 887      0.050033
     47 H383       -1.0350   -1.7460   -5.0210 h1        1 887      0.050033
     48 H43         0.7090    1.5600    6.3330 hn        1 887      0.455800
     49 H44         0.3810   -0.6430    7.4640 hx        1 887      0.157700
     50 H461        2.5600   -1.7650    8.2250 hc        1 887      0.109700
     51 H462        3.5690   -0.5750    7.2660 hc        1 887      0.109700
     52 H471        1.5520    0.2140    9.5770 hc        1 887      0.109700
     53 H472        2.5710    1.3810    8.6010 hc        1 887      0.109700
     54 H432        2.2440    1.0700    5.9010 hn        1 887      0.455800
@<TRIPOS>BOND
     1    1    2 ar  
     2    1    6 ar  
     3    1   11 1   
     4    2    3 ar  
     5    2   32 1   
     6    3    4 ar  
     7    3    7 ar  
     8    4    5 ar  
     9    4   10 ar  
    10    5    6 ar  
    11    5   33 1   
    12    6   34 1   
    13    7    8 ar  
    14    7   35 1   
    15    8    9 ar  
    16    8   36 1   
    17    9   10 ar  
    18    9   37 1   
    19   10   26 1   
    20   11   12 1   
    21   12   13 ar  
    22   12   17 ar  
    23   13   14 ar  
    24   13   18 ar  
    25   14   15 ar  
    26   14   21 ar  
    27   15   16 ar  
    28   16   17 ar  
    29   16   38 1   
    30   17   39 1   
    31   18   19 ar  
    32   18   40 1   
    33   19   20 ar  
    34   19   22 1   
    35   20   21 ar  
    36   20   23 1   
    37   21   41 1   
    38   22   25 1   
    39   23   24 1   
    40   24   42 1   
    41   24   43 1   
    42   24   44 1   
    43   25   45 1   
    44   25   46 1   
    45   25   47 1   
    46   26   27 1   
    47   26   29 2   
    48   27   28 1   
    49   27   48 1   
    50   27   54 1   
    51   28   30 1   
    52   28   31 1   
    53   28   49 1   
    54   30   31 1   
    55   30   50 1   
    56   30   51 1   
    57   31   52 1   
    58   31   53 1   
@<TRIPOS>SUBSTRUCTURE
     1 887         1 TEMP              0 ****  ****    0 ROOT
