@<TRIPOS>MOLECULE
887
   54    58     1     0     0
SMALL
bcc


@<TRIPOS>ATOM
      1 C1          0.3040    0.6980   -0.1260 ca        1 887      0.133100
      2 C2          1.5840    0.2190    0.0880 ca        1 887     -0.133000
      3 C3          2.0100   -0.0780    1.4090 ca        1 887     -0.025000
      4 C4          1.1250    0.1350    2.5030 ca        1 887     -0.005000
      5 C5         -0.1810    0.6320    2.2400 ca        1 887     -0.133000
      6 C6         -0.5900    0.9090    0.9600 ca        1 887     -0.109000
      7 C10         3.3130   -0.5890    1.6460 ca        1 887     -0.030000
      8 C11         3.7350   -0.8790    2.9250 ca        1 887     -0.148000
      9 C12         2.8770   -0.6610    4.0180 ca        1 887     -0.067000
     10 C13         1.5980   -0.1630    3.8170 ca        1 887     -0.193600
     11 O17        -0.0730    0.8620   -1.4480 os        1 887     -0.234200
     12 C18        -1.0270    1.8460   -1.7140 ca        1 887      0.131100
     13 C19        -1.9770    1.5360   -2.7340 ca        1 887     -0.139300
     14 C20        -2.8980    2.5710   -3.0930 ca        1 887      0.423600
     15 N21        -2.8840    3.8130   -2.4900 nb        1 887     -0.648000
     16 C22        -1.9790    4.0420   -1.5540 ca        1 887      0.422200
     17 C23        -1.0120    3.0890   -1.1150 ca        1 887     -0.304300
     18 C26        -2.0230    0.2770   -3.3820 ca        1 887     -0.184000
     19 C27        -2.9590    0.0370   -4.3620 ca        1 887      0.131100
     20 C28        -3.8970    1.0700   -4.7320 ca        1 887      0.144100
     21 C29        -3.8650    2.2980   -4.1140 ca        1 887     -0.249300
     22 O32        -3.1050   -1.1400   -5.0570 os        1 887     -0.292900
     23 O33        -4.7800    0.7020   -5.7180 os        1 887     -0.295900
     24 C34        -5.7080    1.7000   -6.1390 c3        1 887      0.104700
     25 C38        -2.1570   -2.1630   -4.7640 c3        1 887      0.106700
     26 C42         0.6960    0.0170    4.9550 c         1 887      0.592700
     27 N43         1.3180    0.7800    6.1360 n4        1 887     -0.653800
     28 C44         1.3390   -0.0290    7.3640 cx        1 887     -0.004500
     29 O45        -0.4670   -0.3100    5.1180 o         1 887     -0.410100
     30 C46         2.6080   -0.7050    7.8410 cx        1 887     -0.102900
     31 C47         2.0610    0.4620    8.6030 cx        1 887     -0.102900
     32 H2          2.2670    0.0530   -0.7590 ha        1 887      0.173000
     33 H5         -0.8860    0.7750    3.0740 ha        1 887      0.145000
     34 H6         -1.6060    1.2850    0.7540 ha        1 887      0.174000
     35 H10         3.9820   -0.7560    0.7840 ha        1 887      0.166000
     36 H11         4.7420   -1.2890    3.1050 ha        1 887      0.165000
     37 H12         3.2330   -0.9310    5.0260 ha        1 887      0.132000
     38 H22        -1.9920    5.0510   -1.1000 h4        1 887      0.030100
     39 H23        -0.2860    3.3540   -0.3380 ha        1 887      0.147000
     40 H26        -1.2910   -0.4900   -3.0870 ha        1 887      0.155000
     41 H29        -4.5740    3.0940   -4.3910 ha        1 887      0.168000
     42 H341       -5.1710    2.5870   -6.5540 h1        1 887      0.053700
     43 H342       -6.3720    2.0000   -5.2920 h1        1 887      0.053700
     44 H343       -6.2940    1.1800   -6.9390 h1        1 887      0.053700
     45 H381       -2.2470   -2.4870   -3.6990 h1        1 887      0.050033
     46 H382       -1.1190   -1.8140   -4.9830 h1        1 887      0.050033
     47 H383       -2.4540   -2.9910   -5.4570 h1        1 887      0.050033
     48 H43         0.7480    1.6150    6.3170 hn        1 887      0.455800
     49 H44         0.3630   -0.5610    7.4820 hx        1 887      0.157700
     50 H461        3.5520   -0.5800    7.2760 hc        1 887      0.109700
     51 H462        2.5140   -1.7280    8.2560 hc        1 887      0.109700
     52 H471        1.5620    0.2990    9.5790 hc        1 887      0.109700
     53 H472        2.6090    1.4220    8.5830 hc        1 887      0.109700
     54 H432        2.2670    1.0770    5.8880 hn        1 887      0.455800
@<TRIPOS>BOND
     1    1    2 ar  
     2    1    6 ar  
     3    1   11 1   
     4    2    3 ar  
     5    2   32 1   
     6    3    4 ar  
     7    3    7 ar  
     8    4    5 ar  
     9    4   10 ar  
    10    5    6 ar  
    11    5   33 1   
    12    6   34 1   
    13    7    8 ar  
    14    7   35 1   
    15    8    9 ar  
    16    8   36 1   
    17    9   10 ar  
    18    9   37 1   
    19   10   26 1   
    20   11   12 1   
    21   12   13 ar  
    22   12   17 ar  
    23   13   14 ar  
    24   13   18 ar  
    25   14   15 ar  
    26   14   21 ar  
    27   15   16 ar  
    28   16   17 ar  
    29   16   38 1   
    30   17   39 1   
    31   18   19 ar  
    32   18   40 1   
    33   19   20 ar  
    34   19   22 1   
    35   20   21 ar  
    36   20   23 1   
    37   21   41 1   
    38   22   25 1   
    39   23   24 1   
    40   24   42 1   
    41   24   43 1   
    42   24   44 1   
    43   25   45 1   
    44   25   46 1   
    45   25   47 1   
    46   26   27 1   
    47   26   29 2   
    48   27   28 1   
    49   27   48 1   
    50   27   54 1   
    51   28   30 1   
    52   28   31 1   
    53   28   49 1   
    54   30   31 1   
    55   30   50 1   
    56   30   51 1   
    57   31   52 1   
    58   31   53 1   
@<TRIPOS>SUBSTRUCTURE
     1 887         1 TEMP              0 ****  ****    0 ROOT
