@<TRIPOS>MOLECULE
888
   50    53     1     0     0
SMALL
bcc


@<TRIPOS>ATOM
      1 C1          0.0680    0.2620    0.2150 ca        1 888      0.237600
      2 C2          1.3970    0.6600    0.4960 ca        1 888     -0.188000
      3 C3          1.9780    0.3180    1.7090 ca        1 888     -0.050000
      4 C4          1.2620   -0.4150    2.6590 ca        1 888     -0.172000
      5 C5         -0.0430   -0.8000    2.3840 ca        1 888      0.006000
      6 C6         -0.6660   -0.4760    1.1730 ca        1 888     -0.396500
      7 S11        -2.2830   -0.9870    0.9380 sy        1 888      1.585700
      8 N12        -2.5490   -0.3990   -0.5200 ne        1 888     -0.979300
      9 C13        -1.8190    0.3000   -1.3450 cf        1 888      0.933500
     10 N14        -0.4920    0.5940   -1.0310 nh        1 888     -0.729600
     11 C15        -2.3570    0.7360   -2.6550 cd        1 888     -0.433800
     12 C16        -3.4090    0.0660   -3.2610 cc        1 888      0.350900
     13 C17        -3.9290    0.5050   -4.5440 ca        1 888     -0.176800
     14 C18        -3.3730    1.6600   -5.1580 ca        1 888      0.131600
     15 N19        -2.3140    2.3330   -4.5520 n         1 888     -0.343000
     16 C20        -1.8060    1.9330   -3.2980 c         1 888      0.735700
     17 C21        -4.9800   -0.1940   -5.1710 ca        1 888     -0.035000
     18 C22        -5.4880    0.2330   -6.3830 ca        1 888     -0.177000
     19 C23        -4.9560    1.3790   -6.9900 ca        1 888     -0.057000
     20 C24        -3.9250    2.0860   -6.3990 ca        1 888     -0.196000
     21 O29        -4.0380   -1.0310   -2.7880 oh        1 888     -0.480100
     22 O30        -0.8920    2.6320   -2.8030 o         1 888     -0.670500
     23 C31        -1.7480    3.5130   -5.1870 c3        1 888      0.079000
     24 C32        -2.5810    4.7850   -5.0210 c3        1 888     -0.099400
     25 C35        -2.0330    5.9030   -5.8960 c3        1 888     -0.065700
     26 C38        -2.4620    5.7340   -7.3390 c3        1 888     -0.092600
     27 O46        -3.0890   -0.3890    1.9220 o         1 888     -0.653800
     28 O47        -2.3190   -2.3950    0.9380 o         1 888     -0.653800
     29 C7         -2.4980    7.2460   -5.3690 c3        1 888     -0.092600
     30 H2          1.9720    1.2420   -0.2400 ha        1 888      0.143000
     31 H3          3.0120    0.6290    1.9220 ha        1 888      0.138000
     32 H4          1.7300   -0.6830    3.6170 ha        1 888      0.144000
     33 H5         -0.6150   -1.3760    3.1340 ha        1 888      0.152000
     34 H23        -5.3680    1.7240   -7.9520 ha        1 888      0.142000
     35 H311       -1.6010    3.2860   -6.2820 h1        1 888      0.073700
     36 H312       -0.7260    3.6960   -4.7420 h1        1 888      0.073700
     37 H321       -2.5510    5.1000   -3.9450 hc        1 888      0.056700
     38 H322       -3.6550    4.5950   -5.2850 hc        1 888      0.056700
     39 H35        -0.9070    5.8770   -5.8510 hc        1 888      0.050700
     40 H381       -2.0480    6.5620   -7.9630 hc        1 888      0.036367
     41 H382       -3.5750    5.7520   -7.4230 hc        1 888      0.036367
     42 H383       -2.0930    4.7640   -7.7520 hc        1 888      0.036367
     43 H71        -3.6130    7.2970   -5.3560 hc        1 888      0.036367
     44 H72        -2.1240    7.4080   -4.3290 hc        1 888      0.036367
     45 H73        -2.1130    8.0690   -6.0170 hc        1 888      0.036367
     46 H21        -5.3910   -1.0880   -4.6720 ha        1 888      0.162000
     47 H22        -6.3070   -0.3170   -6.8690 ha        1 888      0.147000
     48 H24        -3.5450    2.9920   -6.8990 ha        1 888      0.151000
     49 H211        0.0270    1.2170   -1.6190 hn        1 888      0.485800
     50 H212       -3.7310   -1.2520   -1.8830 ho        1 888      0.492000
@<TRIPOS>BOND
     1    1    2 ar  
     2    1    6 ar  
     3    1   10 1   
     4    2    3 ar  
     5    2   30 1   
     6    3    4 ar  
     7    3   31 1   
     8    4    5 ar  
     9    4   32 1   
    10    5    6 ar  
    11    5   33 1   
    12    6    7 1   
    13    7    8 1   
    14    7   27 2   
    15    7   28 2   
    16    8    9 2   
    17    9   10 1   
    18    9   11 1   
    19   10   49 1   
    20   11   12 2   
    21   11   16 1   
    22   12   13 1   
    23   12   21 1   
    24   13   14 ar  
    25   13   17 ar  
    26   14   15 1   
    27   14   20 ar  
    28   15   16 1   
    29   15   23 1   
    30   16   22 2   
    31   17   18 ar  
    32   17   46 1   
    33   18   19 ar  
    34   18   47 1   
    35   19   20 ar  
    36   19   34 1   
    37   20   48 1   
    38   21   50 1   
    39   23   24 1   
    40   23   35 1   
    41   23   36 1   
    42   24   25 1   
    43   24   37 1   
    44   24   38 1   
    45   25   26 1   
    46   25   29 1   
    47   25   39 1   
    48   26   40 1   
    49   26   41 1   
    50   26   42 1   
    51   29   43 1   
    52   29   44 1   
    53   29   45 1   
@<TRIPOS>SUBSTRUCTURE
     1 888         1 TEMP              0 ****  ****    0 ROOT
