@<TRIPOS>MOLECULE
888
   50    53     1     0     0
SMALL
bcc


@<TRIPOS>ATOM
      1 C1          0.1200    0.1190    0.1740 ca        1 888      0.239600
      2 C2          1.5180    0.2010    0.3790 ca        1 888     -0.192000
      3 C3          2.0480   -0.0580    1.6350 ca        1 888     -0.052000
      4 C4          1.2140   -0.3950    2.7030 ca        1 888     -0.175000
      5 C5         -0.1580   -0.4670    2.5030 ca        1 888      0.005000
      6 C6         -0.7350   -0.2130    1.2530 ca        1 888     -0.395500
      7 S11        -2.4450   -0.3140    1.1270 sy        1 888      1.575700
      8 N12        -2.6250    0.0960   -0.4060 ne        1 888     -0.893300
      9 C13        -1.7780    0.3670   -1.3440 cf        1 888      0.925500
     10 N14        -0.3960    0.3480   -1.1120 nh        1 888     -0.734600
     11 C15        -2.2200    0.6880   -2.7260 cd        1 888     -0.356800
     12 C16        -3.1820   -0.0610   -3.3620 cc        1 888      0.301900
     13 C17        -3.7330    0.3710   -4.6300 ca        1 888     -0.195800
     14 C18        -3.2710    1.5980   -5.1890 ca        1 888      0.135600
     15 N19        -2.2340    2.3070   -4.5850 n         1 888     -0.341000
     16 C20        -1.6570    1.8760   -3.3700 c         1 888      0.727700
     17 C21        -4.7160   -0.3760   -5.3110 ca        1 888     -0.070000
     18 C22        -5.2710    0.0790   -6.4900 ca        1 888     -0.162000
     19 C23        -4.8550    1.3090   -7.0210 ca        1 888     -0.063000
     20 C24        -3.8800    2.0580   -6.3930 ca        1 888     -0.186000
     21 O29        -3.5470   -1.2440   -2.7930 oh        1 888     -0.455100
     22 O30        -0.6840    2.5090   -2.9070 o         1 888     -0.651500
     23 C31        -1.7450    3.5390   -5.1840 c3        1 888      0.076000
     24 C32        -2.6300    4.7600   -4.9350 c3        1 888     -0.100400
     25 C35        -2.1690    5.9380   -5.7820 c3        1 888     -0.066700
     26 C38        -2.6450    5.8060   -7.2140 c3        1 888     -0.092600
     27 O46        -3.0090    0.6270    2.0090 o         1 888     -0.652300
     28 O47        -2.8320   -1.6430    1.3820 o         1 888     -0.652300
     29 C7         -2.6760    7.2340   -5.1820 c3        1 888     -0.092600
     30 H2          2.1880    0.4700   -0.4520 ha        1 888      0.140000
     31 H3          3.1370    0.0060    1.7880 ha        1 888      0.136000
     32 H4          1.6420   -0.6000    3.6950 ha        1 888      0.141000
     33 H5         -0.8220   -0.7280    3.3460 ha        1 888      0.150000
     34 H23        -5.3120    1.6800   -7.9530 ha        1 888      0.144000
     35 H311       -0.7180    3.7490   -4.7590 h1        1 888      0.075200
     36 H312       -1.6200    3.3690   -6.2910 h1        1 888      0.075200
     37 H321       -3.7030    4.5310   -5.1650 hc        1 888      0.057200
     38 H322       -2.5740    5.0350   -3.8480 hc        1 888      0.057200
     39 H35        -1.0420    5.9650   -5.7790 hc        1 888      0.051700
     40 H381       -3.7600    5.7710   -7.2560 hc        1 888      0.036367
     41 H382       -2.2440    4.8750   -7.6810 hc        1 888      0.036367
     42 H383       -2.2970    6.6790   -7.8170 hc        1 888      0.036367
     43 H71        -3.7920    7.2310   -5.1270 hc        1 888      0.036367
     44 H72        -2.3560    8.1010   -5.8090 hc        1 888      0.036367
     45 H73        -2.2710    7.3730   -4.1510 hc        1 888      0.036367
     46 H21        -5.0480   -1.3450   -4.9060 ha        1 888      0.134000
     47 H22        -6.0370   -0.5140   -7.0120 ha        1 888      0.147000
     48 H24        -3.5850    3.0250   -6.8330 ha        1 888      0.154000
     49 H211        0.2080    0.7530   -1.7970 hn        1 888      0.472800
     50 H212       -4.4360   -1.4890   -3.0940 ho        1 888      0.441000
@<TRIPOS>BOND
     1    1    2 ar  
     2    1    6 ar  
     3    1   10 1   
     4    2    3 ar  
     5    2   30 1   
     6    3    4 ar  
     7    3   31 1   
     8    4    5 ar  
     9    4   32 1   
    10    5    6 ar  
    11    5   33 1   
    12    6    7 1   
    13    7    8 1   
    14    7   27 2   
    15    7   28 2   
    16    8    9 2   
    17    9   10 1   
    18    9   11 1   
    19   10   49 1   
    20   11   12 2   
    21   11   16 1   
    22   12   13 1   
    23   12   21 1   
    24   13   14 ar  
    25   13   17 ar  
    26   14   15 1   
    27   14   20 ar  
    28   15   16 1   
    29   15   23 1   
    30   16   22 2   
    31   17   18 ar  
    32   17   46 1   
    33   18   19 ar  
    34   18   47 1   
    35   19   20 ar  
    36   19   34 1   
    37   20   48 1   
    38   21   50 1   
    39   23   24 1   
    40   23   35 1   
    41   23   36 1   
    42   24   25 1   
    43   24   37 1   
    44   24   38 1   
    45   25   26 1   
    46   25   29 1   
    47   25   39 1   
    48   26   40 1   
    49   26   41 1   
    50   26   42 1   
    51   29   43 1   
    52   29   44 1   
    53   29   45 1   
@<TRIPOS>SUBSTRUCTURE
     1 888         1 TEMP              0 ****  ****    0 ROOT
