@<TRIPOS>MOLECULE
888
   50    45     1     0     0
SMALL
bcc


@<TRIPOS>ATOM
      1 C1          0.6150   -1.3810    4.3140 c1        1 888      0.158000
      2 C2         -0.3060   -1.7620    5.3110 c1        1 888     -0.106333
      3 C3          0.1070   -1.8740    6.6290 c1        1 888     -0.106333
      4 C4          1.4260   -1.6110    6.9660 c1        1 888     -0.106333
      5 C5          2.3290   -1.2370    5.9880 c1        1 888     -0.106333
      6 C6          1.9100   -1.1240    4.6510 c1        1 888     -0.840000
      7 S11         2.9930   -0.5520    3.4710 s4        1 888      2.066800
      8 N12         2.3570   -0.4430    2.0180 n1        1 888     -0.877000
      9 C13         1.0170   -0.9720    1.7710 c1        1 888      0.399000
     10 N14         0.2580   -1.6590    2.8900 n2        1 888     -0.296000
     11 C15         0.4550   -0.9750    0.3640 c2        1 888     -0.251000
     12 C16         0.5480   -2.1780   -0.4580 c1        1 888      0.246000
     13 C17        -0.0180   -2.1750   -1.8620 c1        1 888     -0.184000
     14 C18        -0.6260   -1.0170   -2.3710 c2        1 888      0.143000
     15 N19        -0.7190    0.2340   -1.5160 n         1 888     -0.244000
     16 C20        -0.1890    0.2340   -0.1740 c2        1 888      0.366000
     17 C21        -0.0630   -3.3730   -2.5990 c1        1 888     -0.070000
     18 C22        -0.7140   -3.4090   -3.8350 c1        1 888     -0.106333
     19 C23        -1.3250   -2.2440   -4.3450 c1        1 888     -0.106333
     20 C24        -1.2800   -1.0550   -3.6150 c1        1 888     -0.185000
     21 O29         1.2940   -3.3040    0.0080 oh        1 888     -0.210000
     22 O30        -0.2490    1.2480    0.5060 o         1 888     -0.376000
     23 C31        -1.4820    1.3810   -1.9900 c3        1 888     -0.040000
     24 C32        -0.5320    2.5550   -2.2440 c3        1 888     -0.178000
     25 C35        -1.2000    3.5640   -3.1820 c3        1 888     -0.104000
     26 C38        -0.1230    4.2070   -4.1020 c3        1 888     -0.211000
     27 O46         4.1410   -1.4060    3.4270 o         1 888     -0.539900
     28 O47         3.4070    0.7660    3.8660 o         1 888     -0.539900
     29 C7         -1.8940    4.6760   -2.3360 c3        1 888     -0.211000
     30 H2         -1.2390   -1.9480    5.0720 ha        1 888      0.143000
     31 H3         -0.5330   -2.1390    7.3230 ha        1 888      0.143000
     32 H4          1.7150   -1.6900    7.8910 ha        1 888      0.143000
     33 H5          3.2770   -1.0480    6.2300 ha        1 888      0.143000
     34 H23        -1.7840   -2.2680   -5.2200 ha        1 888      0.143000
     35 H311       -1.9370    1.1510   -2.8110 h1        1 888      0.114500
     36 H312       -2.1440    1.6370   -1.3090 h1        1 888      0.114500
     37 H321        0.2940    2.2240   -2.6550 hc        1 888      0.095000
     38 H322       -0.3170    3.0020   -1.3740 hc        1 888      0.095000
     39 H35        -1.8570    3.1140   -3.7230 hc        1 888      0.081000
     40 H381        0.3940    3.4930   -4.5570 hc        1 888      0.077167
     41 H382        0.4810    4.7530   -3.5640 hc        1 888      0.077167
     42 H383       -0.5640    4.7740   -4.7770 hc        1 888      0.077167
     43 H71        -2.0150    5.4780   -2.8860 hc        1 888      0.077167
     44 H72        -1.3390    4.8910   -1.5690 hc        1 888      0.077167
     45 H73        -2.7810    4.3510   -2.0230 hc        1 888      0.077167
     46 H21         0.3640   -4.1900   -2.2420 ha        1 888      0.135000
     47 H22        -0.7470   -4.2430   -4.3470 ha        1 888      0.143000
     48 H24        -1.7080   -0.2420   -3.9720 ha        1 888      0.152000
     49 H211       -0.4120   -2.2460    2.6940 hn        1 888      0.268000
     50 H212        0.7140   -3.9680    0.2690 ho        1 888      0.240000
@<TRIPOS>BOND
     1    1    6 1   
     2    1   10 1   
     3    2    3 1   
     4    2   30 1   
     5    3   31 1   
     6    4    5 1   
     7    4   32 1   
     8    5   33 1   
     9    6    7 1   
    10    7   27 1   
    11    7   28 1   
    12    8    9 1   
    13    9   11 1   
    14   10   49 1   
    15   11   12 1   
    16   11   16 1   
    17   12   21 1   
    18   13   14 1   
    19   13   17 1   
    20   14   15 1   
    21   14   20 1   
    22   15   16 1   
    23   15   23 1   
    24   16   22 1   
    25   17   46 1   
    26   18   19 1   
    27   18   47 1   
    28   19   34 1   
    29   20   48 1   
    30   21   50 1   
    31   23   24 1   
    32   23   35 1   
    33   23   36 1   
    34   24   25 1   
    35   24   37 1   
    36   24   38 1   
    37   25   26 1   
    38   25   29 1   
    39   25   39 1   
    40   26   40 1   
    41   26   41 1   
    42   26   42 1   
    43   29   43 1   
    44   29   44 1   
    45   29   45 1   
@<TRIPOS>SUBSTRUCTURE
     1 888         1 TEMP              0 ****  ****    0 ROOT
