@<TRIPOS>MOLECULE
888
   50    53     1     0     0
SMALL
bcc


@<TRIPOS>ATOM
      1 C1          0.0650    0.2680    0.2200 ca        1 888      0.237600
      2 C2          1.3910    0.6700    0.5060 ca        1 888     -0.188000
      3 C3          1.9700    0.3300    1.7200 ca        1 888     -0.050000
      4 C4          1.2530   -0.4050    2.6680 ca        1 888     -0.172000
      5 C5         -0.0510   -0.7930    2.3900 ca        1 888      0.006000
      6 C6         -0.6710   -0.4710    1.1770 ca        1 888     -0.396500
      7 S11        -2.2850   -0.9870    0.9370 sy        1 888      1.585700
      8 N12        -2.5480   -0.4000   -0.5220 ne        1 888     -0.979300
      9 C13        -1.8170    0.3010   -1.3450 cf        1 888      0.933500
     10 N14        -0.4930    0.5990   -1.0270 nu        1 888     -0.729600
     11 C15        -2.3530    0.7350   -2.6570 cd        1 888     -0.433800
     12 C16        -3.4010    0.0610   -3.2670 cc        1 888      0.350900
     13 C17        -3.9170    0.4980   -4.5520 ca        1 888     -0.176800
     14 C18        -3.3640    1.6550   -5.1630 ca        1 888      0.131600
     15 N19        -2.3110    2.3320   -4.5530 n         1 888     -0.343000
     16 C20        -1.8040    1.9340   -3.2980 c         1 888      0.735700
     17 C21        -4.9640   -0.2050   -5.1820 ca        1 888     -0.035000
     18 C22        -5.4700    0.2200   -6.3950 ca        1 888     -0.177000
     19 C23        -4.9400    1.3690   -7.0000 ca        1 888     -0.057000
     20 C24        -3.9140    2.0800   -6.4050 ca        1 888     -0.196000
     21 O29        -4.0270   -1.0390   -2.7960 oh        1 888     -0.480100
     22 O30        -0.8940    2.6360   -2.8000 o         1 888     -0.670500
     23 C31        -1.7480    3.5160   -5.1860 c3        1 888      0.079000
     24 C32        -2.5870    4.7830   -5.0210 c3        1 888     -0.099400
     25 C35        -2.0410    5.9050   -5.8930 c3        1 888     -0.065700
     26 C38        -2.4640    5.7360   -7.3370 c3        1 888     -0.092600
     27 O46        -3.0960   -0.3900    1.9180 o         1 888     -0.653800
     28 O47        -2.3180   -2.3940    0.9380 o         1 888     -0.653800
     29 C7         -2.5140    7.2450   -5.3650 c3        1 888     -0.092600
     30 H2          1.9680    1.2530   -0.2290 ha        1 888      0.143000
     31 H3          3.0030    0.6440    1.9370 ha        1 888      0.138000
     32 H4          1.7190   -0.6710    3.6280 ha        1 888      0.144000
     33 H5         -0.6230   -1.3700    3.1390 ha        1 888      0.152000
     34 H23        -5.3500    1.7120   -7.9630 ha        1 888      0.142000
     35 H311       -1.5970    3.2900   -6.2800 h1        1 888      0.073700
     36 H312       -0.7270    3.7030   -4.7380 h1        1 888      0.073700
     37 H321       -2.5630    5.0980   -3.9440 hc        1 888      0.056700
     38 H322       -3.6590    4.5890   -5.2890 hc        1 888      0.056700
     39 H35        -0.9150    5.8840   -5.8440 hc        1 888      0.050700
     40 H381       -3.5770    5.7500   -7.4250 hc        1 888      0.036367
     41 H382       -2.0890    4.7680   -7.7500 hc        1 888      0.036367
     42 H383       -2.0510    6.5660   -7.9590 hc        1 888      0.036367
     43 H71        -2.1440    7.4080   -4.3240 hc        1 888      0.036367
     44 H72        -2.1300    8.0710   -6.0120 hc        1 888      0.036367
     45 H73        -3.6290    7.2910   -5.3560 hc        1 888      0.036367
     46 H21        -5.3730   -1.1020   -4.6850 ha        1 888      0.162000
     47 H22        -6.2850   -0.3330   -6.8840 ha        1 888      0.147000
     48 H24        -3.5360    2.9870   -6.9040 ha        1 888      0.151000
     49 H211        0.0260    1.2230   -1.6130 hn        1 888      0.485800
     50 H212       -3.7220   -1.2580   -1.8900 ho        1 888      0.492000
@<TRIPOS>BOND
     1    1    2 ar  
     2    1    6 ar  
     3    1   10 1   
     4    2    3 ar  
     5    2   30 1   
     6    3    4 ar  
     7    3   31 1   
     8    4    5 ar  
     9    4   32 1   
    10    5    6 ar  
    11    5   33 1   
    12    6    7 1   
    13    7    8 1   
    14    7   27 2   
    15    7   28 2   
    16    8    9 2   
    17    9   10 1   
    18    9   11 1   
    19   10   49 1   
    20   11   12 2   
    21   11   16 1   
    22   12   13 1   
    23   12   21 1   
    24   13   14 ar  
    25   13   17 ar  
    26   14   15 1   
    27   14   20 ar  
    28   15   16 1   
    29   15   23 1   
    30   16   22 2   
    31   17   18 ar  
    32   17   46 1   
    33   18   19 ar  
    34   18   47 1   
    35   19   20 ar  
    36   19   34 1   
    37   20   48 1   
    38   21   50 1   
    39   23   24 1   
    40   23   35 1   
    41   23   36 1   
    42   24   25 1   
    43   24   37 1   
    44   24   38 1   
    45   25   26 1   
    46   25   29 1   
    47   25   39 1   
    48   26   40 1   
    49   26   41 1   
    50   26   42 1   
    51   29   43 1   
    52   29   44 1   
    53   29   45 1   
@<TRIPOS>SUBSTRUCTURE
     1 888         1 TEMP              0 ****  ****    0 ROOT
