@<TRIPOS>MOLECULE
888
   50    53     1     0     0
SMALL
bcc


@<TRIPOS>ATOM
      1 C1          3.3170    0.9610   -0.8850 ca        1 888      0.237600
      2 C2          3.7950    2.1070   -1.5640 ca        1 888     -0.188000
      3 C3          5.1520    2.3950   -1.5620 ca        1 888     -0.050000
      4 C4          6.0550    1.5650   -0.8920 ca        1 888     -0.172000
      5 C5          5.5850    0.4440   -0.2210 ca        1 888      0.006000
      6 C6          4.2230    0.1170   -0.1990 ca        1 888     -0.396500
      7 S11         3.7450   -1.2790    0.6680 sy        1 888      1.585700
      8 N12         2.1700   -1.2310    0.4210 ne        1 888     -0.979300
      9 C13         1.3930   -0.3970   -0.2140 cf        1 888      0.933500
     10 N14         1.9420    0.6720   -0.9220 nh        1 888     -0.729600
     11 C15        -0.0740   -0.6040   -0.2530 cd        1 888     -0.433800
     12 C16        -0.6310   -1.8590   -0.0620 cc        1 888      0.350900
     13 C17        -2.0700   -2.0470   -0.1010 ca        1 888     -0.176800
     14 C18        -2.9100   -0.9180   -0.2950 ca        1 888      0.131600
     15 N19        -2.3530    0.3440   -0.4890 n         1 888     -0.343000
     16 C20        -0.9580    0.5510   -0.4400 c         1 888      0.735700
     17 C21        -2.6310   -3.3290    0.0660 ca        1 888     -0.035000
     18 C22        -4.0010   -3.5070    0.0480 ca        1 888     -0.177000
     19 C23        -4.8400   -2.3970   -0.1290 ca        1 888     -0.057000
     20 C24        -4.3190   -1.1280   -0.2940 ca        1 888     -0.196000
     21 O29         0.0430   -3.0100    0.1450 oh        1 888     -0.480100
     22 O30        -0.5500    1.7290   -0.5690 o         1 888     -0.670500
     23 C31        -3.2200    1.4960   -0.6890 c3        1 888      0.079000
     24 C32        -3.8640    2.0350    0.5880 c3        1 888     -0.099400
     25 C35        -4.9150    3.0850    0.2570 c3        1 888     -0.065700
     26 C38        -6.2080    2.4440   -0.2000 c3        1 888     -0.092600
     27 O46         4.0890   -1.1060    2.0190 o         1 888     -0.653800
     28 O47         4.3250   -2.4100    0.0640 o         1 888     -0.653800
     29 C7         -5.1670    3.9620    1.4670 c3        1 888     -0.092600
     30 H2          3.0960    2.7740   -2.0920 ha        1 888      0.143000
     31 H3          5.5180    3.2880   -2.0930 ha        1 888      0.138000
     32 H4          7.1290    1.8000   -0.8960 ha        1 888      0.144000
     33 H5          6.2930   -0.2130    0.3140 ha        1 888      0.152000
     34 H23        -5.9330   -2.5390   -0.1340 ha        1 888      0.142000
     35 H311       -2.6060    2.3210   -1.1560 h1        1 888      0.073700
     36 H312       -4.0160    1.2090   -1.4340 h1        1 888      0.073700
     37 H321       -4.3360    1.2060    1.1770 hc        1 888      0.056700
     38 H322       -3.0660    2.4910    1.2330 hc        1 888      0.056700
     39 H35        -4.5230    3.7360   -0.5760 hc        1 888      0.050700
     40 H381       -6.9640    3.2310   -0.4410 hc        1 888      0.036367
     41 H382       -6.0430    1.8250   -1.1140 hc        1 888      0.036367
     42 H383       -6.6260    1.7880    0.6010 hc        1 888      0.036367
     43 H71        -4.2320    4.4940    1.7660 hc        1 888      0.036367
     44 H72        -5.9500    4.7230    1.2360 hc        1 888      0.036367
     45 H73        -5.5160    3.3460    2.3310 hc        1 888      0.036367
     46 H21        -1.9540   -4.1870    0.2130 ha        1 888      0.162000
     47 H22        -4.4360   -4.5090    0.1760 ha        1 888      0.147000
     48 H24        -5.0110   -0.2790   -0.4130 ha        1 888      0.151000
     49 H211        1.3360    1.3640   -1.3170 hn        1 888      0.485800
     50 H212        1.0040   -2.8430    0.2560 ho        1 888      0.492000
@<TRIPOS>BOND
     1    1    2 ar  
     2    1    6 ar  
     3    1   10 1   
     4    2    3 ar  
     5    2   30 1   
     6    3    4 ar  
     7    3   31 1   
     8    4    5 ar  
     9    4   32 1   
    10    5    6 ar  
    11    5   33 1   
    12    6    7 1   
    13    7    8 1   
    14    7   27 2   
    15    7   28 2   
    16    8    9 2   
    17    9   10 1   
    18    9   11 1   
    19   10   49 1   
    20   11   12 2   
    21   11   16 1   
    22   12   13 1   
    23   12   21 1   
    24   13   14 ar  
    25   13   17 ar  
    26   14   15 1   
    27   14   20 ar  
    28   15   16 1   
    29   15   23 1   
    30   16   22 2   
    31   17   18 ar  
    32   17   46 1   
    33   18   19 ar  
    34   18   47 1   
    35   19   20 ar  
    36   19   34 1   
    37   20   48 1   
    38   21   50 1   
    39   23   24 1   
    40   23   35 1   
    41   23   36 1   
    42   24   25 1   
    43   24   37 1   
    44   24   38 1   
    45   25   26 1   
    46   25   29 1   
    47   25   39 1   
    48   26   40 1   
    49   26   41 1   
    50   26   42 1   
    51   29   43 1   
    52   29   44 1   
    53   29   45 1   
@<TRIPOS>SUBSTRUCTURE
     1 888         1 TEMP              0 ****  ****    0 ROOT
