@<TRIPOS>MOLECULE
889
   57    59     1     0     0
SMALL
bcc


@<TRIPOS>ATOM
      1 O26         3.4980   -1.9100   -0.3380 o         1 889     -0.613100
      2 C25         2.6280   -1.0180   -0.2610 c         1 889      0.675100
      3 C14         2.9930    0.4530   -0.4540 c3        1 889     -0.126700
      4 C20         3.3730    1.0580    0.8890 c3        1 889     -0.073900
      5 C19         3.8410    2.5010    0.7140 c3        1 889      0.171300
      6 N17         4.9180    2.6440   -0.2550 n3        1 889     -0.732600
      7 C18         5.3510    4.0150   -0.3960 c3        1 889      0.159100
      8 C16         4.6200    2.0210   -1.5370 c3        1 889      0.171300
      9 C15         4.1650    0.5690   -1.4170 c3        1 889     -0.073900
     10 N24         1.3160   -1.3430    0.0140 n         1 889     -0.490800
     11 C1          0.2270   -0.3610    0.1010 c3        1 889      0.202300
     12 C21         0.8650   -2.7430    0.2700 c3        1 889      0.220700
     13 C22         1.5540   -3.3750    1.4830 c3        1 889     -0.106600
     14 C23         1.0590   -3.6570   -0.9440 c3        1 889     -0.106600
     15 C3         -0.6040   -2.5380    0.5470 cc        1 889     -0.114600
     16 N4         -1.7330   -3.2450    0.8750 na        1 889      0.032400
     17 N5         -2.8030   -2.4460    1.0000 nc        1 889     -0.516800
     18 C6         -2.3820   -1.1440    0.7450 cd        1 889      0.478200
     19 C2         -0.9690   -1.1670    0.4520 cd        1 889     -0.347600
     20 N7         -3.1620    0.0070    0.7900 n         1 889     -0.541400
     21 C8         -4.5550    0.0620    0.7760 c         1 889      0.665100
     22 O13        -5.2670   -0.9490    0.6960 o         1 889     -0.551100
     23 C9         -5.1690    1.4500    0.8820 c3        1 889     -0.152400
     24 C10        -5.4740    2.0290   -0.4920 c3        1 889     -0.065700
     25 C12        -6.4240    3.2010   -0.3480 c3        1 889     -0.095600
     26 C11        -4.2130    2.4630   -1.2100 c3        1 889     -0.095600
     27 H14         2.1230    1.0230   -0.8830 hc        1 889      0.057700
     28 H201        2.4930    1.0500    1.5820 hc        1 889      0.062700
     29 H202        4.1880    0.4440    1.3550 hc        1 889      0.062700
     30 H151        5.0090   -0.0750   -1.0540 hc        1 889      0.062700
     31 H152        3.8660    0.2010   -2.4310 hc        1 889      0.062700
     32 H191        2.9470    3.1350    0.4360 h1        1 889      0.030450
     33 H192        4.2270    2.8740    1.7050 h1        1 889      0.030450
     34 H181        5.6570    4.4040    0.6110 h1        1 889      0.032033
     35 H182        6.2400    4.0440   -1.0790 h1        1 889      0.032033
     36 H183        4.5570    4.6940   -0.8140 h1        1 889      0.032033
     37 H161        3.8290    2.6000   -2.1020 h1        1 889      0.030450
     38 H162        5.5640    2.0500   -2.1510 h1        1 889      0.030450
     39 H11C        0.4640    0.4100    0.8860 h1        1 889      0.045700
     40 H12C        0.0970    0.1600   -0.8900 h1        1 889      0.045700
     41 H221        1.3940   -2.7620    2.4020 hc        1 889      0.054200
     42 H222        1.1310   -4.3930    1.6520 hc        1 889      0.054200
     43 H223        2.6520   -3.4610    1.2910 hc        1 889      0.054200
     44 H231        2.1490   -3.7440   -1.1790 hc        1 889      0.054200
     45 H232        0.6540   -4.6690   -0.7050 hc        1 889      0.054200
     46 H233        0.5250   -3.2570   -1.8380 hc        1 889      0.054200
     47 H4         -1.8340   -4.2260    0.9970 hn        1 889      0.331700
     48 H7         -2.6550    0.8600    0.7290 hn        1 889      0.323500
     49 H91C       -6.1270    1.3310    1.4560 hc        1 889      0.069700
     50 H92C       -4.5130    2.1520    1.4580 hc        1 889      0.069700
     51 H10        -5.9810    1.2310   -1.1060 hc        1 889      0.069700
     52 H121       -5.9640    4.0050    0.2750 hc        1 889      0.037700
     53 H122       -6.6670    3.6250   -1.3520 hc        1 889      0.037700
     54 H123       -7.3750    2.8750    0.1380 hc        1 889      0.037700
     55 H111       -3.5720    1.5810   -1.4510 hc        1 889      0.037700
     56 H112       -4.4740    2.9750   -2.1670 hc        1 889      0.037700
     57 H113       -3.6240    3.1730   -0.5810 hc        1 889      0.037700
@<TRIPOS>BOND
     1    1    2 2   
     2    2    3 1   
     3    2   10 1   
     4    3    4 1   
     5    3    9 1   
     6    3   27 1   
     7    4    5 1   
     8    4   28 1   
     9    4   29 1   
    10    5    6 1   
    11    5   32 1   
    12    5   33 1   
    13    6    7 1   
    14    6    8 1   
    15    7   34 1   
    16    7   35 1   
    17    7   36 1   
    18    8    9 1   
    19    8   37 1   
    20    8   38 1   
    21    9   30 1   
    22    9   31 1   
    23   10   11 1   
    24   10   12 1   
    25   11   19 1   
    26   11   39 1   
    27   11   40 1   
    28   12   13 1   
    29   12   14 1   
    30   12   15 1   
    31   13   41 1   
    32   13   42 1   
    33   13   43 1   
    34   14   44 1   
    35   14   45 1   
    36   14   46 1   
    37   15   16 1   
    38   15   19 2   
    39   16   17 1   
    40   16   47 1   
    41   17   18 2   
    42   18   19 1   
    43   18   20 1   
    44   20   21 1   
    45   20   48 1   
    46   21   22 2   
    47   21   23 1   
    48   23   24 1   
    49   23   49 1   
    50   23   50 1   
    51   24   25 1   
    52   24   26 1   
    53   24   51 1   
    54   25   52 1   
    55   25   53 1   
    56   25   54 1   
    57   26   55 1   
    58   26   56 1   
    59   26   57 1   
@<TRIPOS>SUBSTRUCTURE
     1 889         1 TEMP              0 ****  ****    0 ROOT
