@<TRIPOS>MOLECULE
889
   58    60     1     0     0
SMALL
bcc


@<TRIPOS>ATOM
      1 O26         0.0430    0.2310   -0.2150 o         1 889     -0.575100
      2 C25         1.2690    0.0700   -0.0890 c         1 889      0.681100
      3 C14         1.9450    0.0370    1.2770 c3        1 889     -0.122700
      4 C20         2.3460    1.4510    1.6740 c3        1 889     -0.075400
      5 C19         2.9240    1.4660    3.0880 c3        1 889      0.172300
      6 N17         2.0340    0.8740    4.0730 n3        1 889     -0.732600
      7 C18         2.5670    0.9370    5.4150 c3        1 889      0.158100
      8 C16         1.5890   -0.4630    3.7080 c3        1 889      0.172300
      9 C15         0.9810   -0.5330    2.3090 c3        1 889     -0.075400
     10 N24         2.0550   -0.0760   -1.2280 n         1 889     -0.510800
     11 C1          3.5030   -0.2770   -1.1980 c3        1 889      0.190300
     12 C21         1.4900    0.0150   -2.6050 c3        1 889      0.222700
     13 C22         0.8320    1.3670   -2.8960 c3        1 889     -0.112600
     14 C23         0.4940   -1.1060   -2.9150 c3        1 889     -0.112600
     15 C3          2.7390   -0.1450   -3.4470 cc        1 889     -0.088600
     16 N4          3.1400   -0.1810   -4.7630 na        1 889      0.088400
     17 N5          4.4490   -0.3520   -4.8780 nc        1 889     -0.480800
     18 C6          4.9620   -0.4430   -3.5800 cd        1 889      0.362200
     19 C2          3.9020   -0.3100   -2.6350 cd        1 889     -0.258600
     20 N7          6.3670   -0.6260   -3.3000 n4        1 889     -0.627500
     21 C8          7.2570    0.4950   -3.8540 c         1 889      0.553100
     22 O13         6.7400    1.5840   -4.0050 o         1 889     -0.372100
     23 C9          8.6750    0.0840   -4.1240 c3        1 889     -0.157400
     24 C10         8.8600   -0.3790   -5.5670 c3        1 889     -0.066700
     25 C12        10.3450   -0.5430   -5.8330 c3        1 889     -0.111100
     26 C11         8.1240   -1.6710   -5.8470 c3        1 889     -0.111100
     27 H14         2.8610   -0.6150    1.2500 hc        1 889      0.050700
     28 H201        1.4470    2.1210    1.6230 hc        1 889      0.063950
     29 H202        3.1180    1.8500    0.9670 hc        1 889      0.063950
     30 H151        0.0170    0.0400    2.2750 hc        1 889      0.063950
     31 H152        0.7510   -1.6030    2.0690 hc        1 889      0.063950
     32 H191        3.9290    0.9470    3.0680 h1        1 889      0.034450
     33 H192        3.1010    2.5370    3.3900 h1        1 889      0.034450
     34 H181        2.7910    2.0070    5.6650 h1        1 889      0.038033
     35 H182        3.5060    0.3330    5.5480 h1        1 889      0.038033
     36 H183        1.7910    0.5550    6.1290 h1        1 889      0.038033
     37 H161        0.8020   -0.7720    4.4530 h1        1 889      0.034450
     38 H162        2.4340   -1.2120    3.7710 h1        1 889      0.034450
     39 H11C        4.0060    0.5680   -0.6470 h1        1 889      0.062700
     40 H12C        3.7530   -1.2480   -0.6830 h1        1 889      0.062700
     41 H221        1.5410    2.2110   -2.7280 hc        1 889      0.065033
     42 H222       -0.0550    1.5010   -2.2260 hc        1 889      0.065033
     43 H223        0.4890    1.3860   -3.9580 hc        1 889      0.065033
     44 H231       -0.3930   -1.0110   -2.2390 hc        1 889      0.065033
     45 H232        0.1540   -1.0120   -3.9740 hc        1 889      0.065033
     46 H233        0.9530   -2.1120   -2.7670 hc        1 889      0.065033
     47 H4          2.5770   -0.0860   -5.5860 hn        1 889      0.363700
     48 H7          6.4790   -0.6690   -2.2810 hn        1 889      0.468300
     49 H91C        9.3130    0.9970   -3.9430 hc        1 889      0.105200
     50 H92C        9.0170   -0.7180   -3.4170 hc        1 889      0.105200
     51 H10         8.4610    0.4230   -6.2530 hc        1 889      0.082700
     52 H121       10.7780   -1.3400   -5.1830 hc        1 889      0.054200
     53 H122       10.5060   -0.8300   -6.9010 hc        1 889      0.054200
     54 H123       10.8880    0.4140   -5.6410 hc        1 889      0.054200
     55 H111        8.3500   -2.4410   -5.0700 hc        1 889      0.054200
     56 H112        8.4480   -2.0810   -6.8370 hc        1 889      0.054200
     57 H113        7.0210   -1.5040   -5.8990 hc        1 889      0.054200
     58 H72         6.6810   -1.5180   -3.7130 hn        1 889      0.468300
@<TRIPOS>BOND
     1    1    2 2   
     2    2    3 1   
     3    2   10 1   
     4    3    4 1   
     5    3    9 1   
     6    3   27 1   
     7    4    5 1   
     8    4   28 1   
     9    4   29 1   
    10    5    6 1   
    11    5   32 1   
    12    5   33 1   
    13    6    7 1   
    14    6    8 1   
    15    7   34 1   
    16    7   35 1   
    17    7   36 1   
    18    8    9 1   
    19    8   37 1   
    20    8   38 1   
    21    9   30 1   
    22    9   31 1   
    23   10   11 1   
    24   10   12 1   
    25   11   19 1   
    26   11   39 1   
    27   11   40 1   
    28   12   13 1   
    29   12   14 1   
    30   12   15 1   
    31   13   41 1   
    32   13   42 1   
    33   13   43 1   
    34   14   44 1   
    35   14   45 1   
    36   14   46 1   
    37   15   16 1   
    38   15   19 2   
    39   16   17 1   
    40   16   47 1   
    41   17   18 2   
    42   18   19 1   
    43   18   20 1   
    44   20   21 1   
    45   20   48 1   
    46   20   58 1   
    47   21   22 2   
    48   21   23 1   
    49   23   24 1   
    50   23   49 1   
    51   23   50 1   
    52   24   25 1   
    53   24   26 1   
    54   24   51 1   
    55   25   52 1   
    56   25   53 1   
    57   25   54 1   
    58   26   55 1   
    59   26   56 1   
    60   26   57 1   
@<TRIPOS>SUBSTRUCTURE
     1 889         1 TEMP              0 ****  ****    0 ROOT
