@<TRIPOS>MOLECULE
889
   57    59     1     0     0
SMALL
bcc


@<TRIPOS>ATOM
      1 O26         0.0970   -0.0790   -0.1100 o         1 889     -0.613100
      2 C25         1.3380   -0.0490   -0.2390 c         1 889      0.675100
      3 C14         2.2560   -0.1710    0.9750 c3        1 889     -0.126700
      4 C20         2.5330    1.2150    1.5380 c3        1 889     -0.073900
      5 C19         3.3670    1.1190    2.8140 c3        1 889      0.171300
      6 N17         2.7810    0.2450    3.8210 n3        1 889     -0.732600
      7 C18         3.5810    0.1770    5.0220 c3        1 889      0.159100
      8 C16         2.4420   -1.0740    3.3050 c3        1 889      0.171300
      9 C15         1.5910   -1.0310    2.0390 c3        1 889     -0.073900
     10 N24         1.9070    0.1100   -1.4860 n         1 889     -0.490800
     11 C1          3.3550    0.1340   -1.7310 c3        1 889      0.202300
     12 C21         1.0980    0.2900   -2.7280 c3        1 889      0.220700
     13 C22         0.2110    1.5380   -2.6810 c3        1 889     -0.106600
     14 C23         0.2270   -0.9280   -3.0470 c3        1 889     -0.106600
     15 C3          2.1800    0.4530   -3.7680 cc        1 889     -0.114600
     16 N4          2.3380    0.6690   -5.1130 na        1 889      0.032400
     17 N5          3.6320    0.7280   -5.4600 nc        1 889     -0.516800
     18 C6          4.3820    0.5430   -4.3020 cd        1 889      0.478200
     19 C2          3.4770    0.3660   -3.1920 cd        1 889     -0.348600
     20 N7          5.7690    0.5560   -4.1980 ns        1 889     -0.541400
     21 C8          6.6780    0.4340   -5.2480 c         1 889      0.665100
     22 O13         6.3270    0.2740   -6.4260 o         1 889     -0.551100
     23 C9          8.1490    0.5250   -4.8710 c3        1 889     -0.152400
     24 C10         8.7520   -0.8540   -4.6460 c3        1 889     -0.065700
     25 C12        10.2640   -0.7550   -4.6690 c3        1 889     -0.095600
     26 C11         8.2860   -1.4620   -3.3400 c3        1 889     -0.095600
     27 H14         3.2310   -0.6540    0.6860 hc        1 889      0.057700
     28 H201        3.0940    1.8340    0.7920 hc        1 889      0.062700
     29 H202        1.5600    1.7290    1.7550 hc        1 889      0.062700
     30 H151        1.4590   -2.0760    1.6590 hc        1 889      0.062700
     31 H152        0.5720   -0.6190    2.2660 hc        1 889      0.062700
     32 H191        4.4110    0.7860    2.5350 h1        1 889      0.030450
     33 H192        3.4480    2.1470    3.2670 h1        1 889      0.030450
     34 H181        3.7240    1.2160    5.4210 h1        1 889      0.032033
     35 H182        4.5940   -0.2850    4.8600 h1        1 889      0.032033
     36 H183        3.0310   -0.4300    5.7880 h1        1 889      0.032033
     37 H161        1.8600   -1.6090    4.1090 h1        1 889      0.030450
     38 H162        3.3700   -1.6850    3.0940 h1        1 889      0.030450
     39 H11C        3.8340    0.9570   -1.1300 h1        1 889      0.045200
     40 H12C        3.8140   -0.8490   -1.4280 h1        1 889      0.045200
     41 H221       -0.3180    1.6440   -3.6580 hc        1 889      0.054200
     42 H222        0.8180    2.4560   -2.4990 hc        1 889      0.054200
     43 H223       -0.5450    1.4330   -1.8640 hc        1 889      0.054200
     44 H231       -0.5250   -1.0770   -2.2330 hc        1 889      0.054200
     45 H232       -0.3070   -0.7510   -4.0100 hc        1 889      0.054200
     46 H233        0.8450   -1.8510   -3.1420 hc        1 889      0.054200
     47 H4          1.6360    0.7560   -5.8110 hn        1 889      0.331700
     48 H7          6.1200    0.5560   -3.2670 hn        1 889      0.323500
     49 H91C        8.3080    1.1670   -3.9660 hc        1 889      0.069700
     50 H92C        8.6680    1.0220   -5.7350 hc        1 889      0.069700
     51 H10         8.4240   -1.5240   -5.4920 hc        1 889      0.069700
     52 H121       10.7170   -1.7650   -4.5190 hc        1 889      0.037700
     53 H122       10.6260   -0.0810   -3.8570 hc        1 889      0.037700
     54 H123       10.6140   -0.3520   -5.6490 hc        1 889      0.037700
     55 H111        7.1900   -1.6730   -3.3700 hc        1 889      0.037700
     56 H112        8.8210   -2.4250   -3.1540 hc        1 889      0.037700
     57 H113        8.4960   -0.7740   -2.4860 hc        1 889      0.037700
@<TRIPOS>BOND
     1    1    2 2   
     2    2    3 1   
     3    2   10 1   
     4    3    4 1   
     5    3    9 1   
     6    3   27 1   
     7    4    5 1   
     8    4   28 1   
     9    4   29 1   
    10    5    6 1   
    11    5   32 1   
    12    5   33 1   
    13    6    7 1   
    14    6    8 1   
    15    7   34 1   
    16    7   35 1   
    17    7   36 1   
    18    8    9 1   
    19    8   37 1   
    20    8   38 1   
    21    9   30 1   
    22    9   31 1   
    23   10   11 1   
    24   10   12 1   
    25   11   19 1   
    26   11   39 1   
    27   11   40 1   
    28   12   13 1   
    29   12   14 1   
    30   12   15 1   
    31   13   41 1   
    32   13   42 1   
    33   13   43 1   
    34   14   44 1   
    35   14   45 1   
    36   14   46 1   
    37   15   16 1   
    38   15   19 2   
    39   16   17 1   
    40   16   47 1   
    41   17   18 2   
    42   18   19 1   
    43   18   20 1   
    44   20   21 1   
    45   20   48 1   
    46   21   22 2   
    47   21   23 1   
    48   23   24 1   
    49   23   49 1   
    50   23   50 1   
    51   24   25 1   
    52   24   26 1   
    53   24   51 1   
    54   25   52 1   
    55   25   53 1   
    56   25   54 1   
    57   26   55 1   
    58   26   56 1   
    59   26   57 1   
@<TRIPOS>SUBSTRUCTURE
     1 889         1 TEMP              0 ****  ****    0 ROOT
