@<TRIPOS>MOLECULE
889
   57    56     1     0     0
SMALL
bcc


@<TRIPOS>ATOM
      1 O26        -2.2130   -0.0990    2.3090 o         1 889     -0.373000
      2 C25        -0.9920   -0.0860    2.2830 c1        1 889      0.312000
      3 C14        -0.1800   -0.0830    3.6290 c2        1 889     -0.113000
      4 C20        -0.5920    1.0570    4.5200 c3        1 889     -0.154000
      5 C19         0.0870    1.0220    5.8860 c3        1 889     -0.065000
      6 N17        -0.0630   -0.2510    6.5600 n3        1 889     -0.257000
      7 C18         0.7330   -0.2450    7.8100 c3        1 889     -0.117000
      8 C16         0.3210   -1.3790    5.7530 c3        1 889     -0.065000
      9 C15        -0.3550   -1.3900    4.3890 c3        1 889     -0.154000
     10 N24        -0.2910    0.0570    1.0040 n3        1 889     -0.343000
     11 C1         -0.9060    0.1910   -0.2800 c3        1 889      0.068000
     12 C21         1.1280    0.0900    0.8220 c3        1 889      0.176000
     13 C22         1.7490   -1.2190    1.3390 c3        1 889     -0.224500
     14 C23         1.7020    1.2540    1.5690 c3        1 889     -0.224500
     15 C3          1.4120    0.2410   -0.6630 c2        1 889     -0.103000
     16 N4          2.4030    0.4300   -1.5800 n2        1 889     -0.117000
     17 N5          1.8130    0.6000   -2.8160 n2        1 889     -0.081000
     18 C6          0.4670    0.5150   -2.6570 c1        1 889      0.068000
     19 C2          0.2100    0.2920   -1.3220 c2        1 889     -0.255000
     20 N7         -0.5270    0.6150   -3.7150 n2        1 889     -0.307000
     21 C8         -0.1190    0.5470   -5.0930 c2        1 889      0.309000
     22 O13         1.0500    0.4070   -5.3690 o         1 889     -0.315000
     23 C9         -1.1390    0.8020   -6.2020 c3        1 889     -0.181000
     24 C10        -1.0600   -0.3420   -7.2470 c3        1 889     -0.105000
     25 C12        -2.2530   -1.2360   -7.1000 c3        1 889     -0.214000
     26 C11        -1.0350    0.2680   -8.6940 c3        1 889     -0.214000
     27 H14         0.7280    0.0250    3.3060 ha        1 889      0.097000
     28 H201       -0.3620    1.9000    4.0770 hc        1 889      0.102750
     29 H202       -1.5660    1.0220    4.6500 hc        1 889      0.102750
     30 H151        0.0260   -2.1210    3.8520 hc        1 889      0.102750
     31 H152       -1.3200   -1.5560    4.5140 hc        1 889      0.102750
     32 H191       -0.2970    1.7130    6.4400 h1        1 889      0.069250
     33 H192        1.0540    1.2070    5.7670 h1        1 889      0.069250
     34 H181        1.6750   -0.0720    7.5970 h1        1 889      0.071333
     35 H182        0.6520   -1.1260    8.2580 h1        1 889      0.071333
     36 H183        0.3960    0.4660    8.4140 h1        1 889      0.071333
     37 H161        1.2870   -1.3580    5.6230 h1        1 889      0.069250
     38 H162        0.0830   -2.2070    6.2320 h1        1 889      0.069250
     39 H11C       -1.4220   -0.6070   -0.4580 h1        1 889      0.104000
     40 H12C       -1.4200    1.0220   -0.2940 h1        1 889      0.104000
     41 H221        2.3150   -1.0290    2.1120 hc        1 889      0.089167
     42 H222        1.0370   -1.8360    1.6010 hc        1 889      0.089167
     43 H223        2.2930   -1.6280    0.6280 hc        1 889      0.089167
     44 H231        2.0180    0.9560    2.4390 hc        1 889      0.089167
     45 H232        1.0050    1.9400    1.6900 hc        1 889      0.089167
     46 H233        2.4510    1.6330    1.0610 hc        1 889      0.089167
     47 H4          3.3020    0.4420   -1.4070 DU        1 889      0.279000
     48 H7         -1.4220    0.6550   -3.5020 hn        1 889      0.241000
     49 H91C       -0.9430    1.6520   -6.6340 hc        1 889      0.109500
     50 H92C       -2.0510    0.8320   -5.8130 hc        1 889      0.109500
     51 H10        -0.2330   -0.8680   -7.0980 hc        1 889      0.107000
     52 H121       -3.0740   -0.7260   -7.3010 hc        1 889      0.077333
     53 H122       -2.2950   -1.5760   -6.1770 hc        1 889      0.077333
     54 H123       -2.1750   -1.9870   -7.7220 hc        1 889      0.077333
     55 H111       -0.6530    1.1650   -8.6630 hc        1 889      0.077333
     56 H112       -1.9520    0.3150   -9.0460 hc        1 889      0.077333
     57 H113       -0.4860   -0.3040   -9.2820 hc        1 889      0.077333
@<TRIPOS>BOND
     1    1    2 1   
     2    2   10 1   
     3    3    4 1   
     4    3    9 1   
     5    3   27 1   
     6    4    5 1   
     7    4   28 1   
     8    4   29 1   
     9    5    6 1   
    10    5   32 1   
    11    5   33 1   
    12    6    7 1   
    13    6    8 1   
    14    7   34 1   
    15    7   35 1   
    16    7   36 1   
    17    8    9 1   
    18    8   37 1   
    19    8   38 1   
    20    9   30 1   
    21    9   31 1   
    22   10   11 1   
    23   10   12 1   
    24   11   19 1   
    25   11   39 1   
    26   11   40 1   
    27   12   13 1   
    28   12   14 1   
    29   12   15 1   
    30   13   41 1   
    31   13   42 1   
    32   13   43 1   
    33   14   44 1   
    34   14   45 1   
    35   14   46 1   
    36   15   16 1   
    37   15   19 1   
    38   16   17 1   
    39   17   18 1   
    40   18   19 1   
    41   20   21 1   
    42   20   48 1   
    43   21   22 1   
    44   21   23 1   
    45   23   24 1   
    46   23   49 1   
    47   23   50 1   
    48   24   25 1   
    49   24   26 1   
    50   24   51 1   
    51   25   52 1   
    52   25   53 1   
    53   25   54 1   
    54   26   55 1   
    55   26   56 1   
    56   26   57 1   
@<TRIPOS>SUBSTRUCTURE
     1 889         1 TEMP              0 ****  ****    0 ROOT
