@<TRIPOS>MOLECULE
889
   57    59     1     0     0
SMALL
bcc


@<TRIPOS>ATOM
      1 O26         0.0920   -0.0300   -0.1300 o         1 889     -0.613100
      2 C25         1.3350   -0.0210   -0.2460 c         1 889      0.675100
      3 C14         2.2380   -0.1530    0.9780 c3        1 889     -0.126700
      4 C20         2.5320    1.2300    1.5380 c3        1 889     -0.073900
      5 C19         3.3510    1.1250    2.8230 c3        1 889      0.171300
      6 N17         2.7410    0.2660    3.8270 n3        1 889     -0.732600
      7 C18         3.5270    0.1900    5.0370 c3        1 889      0.159100
      8 C16         2.3850   -1.0500    3.3130 c3        1 889      0.171300
      9 C15         1.5480   -0.9980    2.0380 c3        1 889     -0.073900
     10 N24         1.9190    0.1220   -1.4880 n         1 889     -0.490800
     11 C1          3.3690    0.1220   -1.7180 c3        1 889      0.202300
     12 C21         1.1260    0.3110   -2.7390 c3        1 889      0.220700
     13 C22         0.2600    1.5730   -2.7060 c3        1 889     -0.106600
     14 C23         0.2380   -0.8940   -3.0610 c3        1 889     -0.106600
     15 C3          2.2210    0.4510   -3.7680 cc        1 889     -0.114600
     16 N4          2.3960    0.6570   -5.1130 na        1 889      0.032400
     17 N5          3.6950    0.6940   -5.4470 nc        1 889     -0.516800
     18 C6          4.4300    0.5020   -4.2800 cd        1 889      0.478200
     19 C2          3.5110    0.3450   -3.1790 cd        1 889     -0.348600
     20 N7          5.8160    0.4920   -4.1620 n         1 889     -0.541400
     21 C8          6.7330    0.3520   -5.2020 c         1 889      0.665100
     22 O13         6.3920    0.1940   -6.3830 o         1 889     -0.551100
     23 C9          8.2010    0.4190   -4.8100 c3        1 889     -0.152400
     24 C10         8.7790   -0.9700   -4.5780 c3        1 889     -0.065700
     25 C12        10.2930   -0.8970   -4.5900 c3        1 889     -0.095600
     26 C11         8.2930   -1.5670   -3.2740 c3        1 889     -0.095600
     27 H14         3.2080   -0.6530    0.7010 hc        1 889      0.057700
     28 H201        3.1110    1.8360    0.7960 hc        1 889      0.062700
     29 H202        1.5650    1.7610    1.7420 hc        1 889      0.062700
     30 H151        0.5340   -0.5680    2.2530 hc        1 889      0.062700
     31 H152        1.4020   -2.0420    1.6610 hc        1 889      0.062700
     32 H191        4.3920    0.7750    2.5560 h1        1 889      0.030450
     33 H192        3.4440    2.1540    3.2730 h1        1 889      0.030450
     34 H181        3.6830    1.2270    5.4330 h1        1 889      0.032033
     35 H182        2.9590   -0.4060    5.8000 h1        1 889      0.032033
     36 H183        4.5330   -0.2900    4.8870 h1        1 889      0.032033
     37 H161        3.3040   -1.6770    3.1140 h1        1 889      0.030450
     38 H162        1.7860   -1.5710    4.1130 h1        1 889      0.030450
     39 H11C        3.8100   -0.8670   -1.4060 h1        1 889      0.045700
     40 H12C        3.8560    0.9390   -1.1160 h1        1 889      0.045700
     41 H221        0.8790    2.4820   -2.5220 hc        1 889      0.054367
     42 H222       -0.5060    1.4850   -1.8970 hc        1 889      0.054367
     43 H223       -0.2580    1.6830   -3.6890 hc        1 889      0.054367
     44 H231        0.8420   -1.8280   -3.1460 hc        1 889      0.054367
     45 H232       -0.2830   -0.7130   -4.0310 hc        1 889      0.054367
     46 H233       -0.5250   -1.0260   -2.2550 hc        1 889      0.054367
     47 H4          1.7040    0.7530   -5.8180 hn        1 889      0.331700
     48 H7          6.1570    0.4890   -3.2270 hn        1 889      0.323500
     49 H91C        8.3620    1.0580   -3.9040 hc        1 889      0.069700
     50 H92C        8.7380    0.9060   -5.6690 hc        1 889      0.069700
     51 H10         8.4460   -1.6350   -5.4250 hc        1 889      0.069700
     52 H121       10.7270   -1.9140   -4.4350 hc        1 889      0.037700
     53 H122       10.6610   -0.2270   -3.7770 hc        1 889      0.037700
     54 H123       10.6570   -0.5030   -5.5690 hc        1 889      0.037700
     55 H111        8.5120   -0.8820   -2.4190 hc        1 889      0.037700
     56 H112        8.8080   -2.5400   -3.0840 hc        1 889      0.037700
     57 H113        7.1940   -1.7560   -3.3100 hc        1 889      0.037700
@<TRIPOS>BOND
     1    1    2 2   
     2    2    3 1   
     3    2   10 1   
     4    3    4 1   
     5    3    9 1   
     6    3   27 1   
     7    4    5 1   
     8    4   28 1   
     9    4   29 1   
    10    5    6 1   
    11    5   32 1   
    12    5   33 1   
    13    6    7 1   
    14    6    8 1   
    15    7   34 1   
    16    7   35 1   
    17    7   36 1   
    18    8    9 1   
    19    8   37 1   
    20    8   38 1   
    21    9   30 1   
    22    9   31 1   
    23   10   11 1   
    24   10   12 1   
    25   11   19 1   
    26   11   39 1   
    27   11   40 1   
    28   12   13 1   
    29   12   14 1   
    30   12   15 1   
    31   13   41 1   
    32   13   42 1   
    33   13   43 1   
    34   14   44 1   
    35   14   45 1   
    36   14   46 1   
    37   15   16 1   
    38   15   19 2   
    39   16   17 1   
    40   16   47 1   
    41   17   18 2   
    42   18   19 1   
    43   18   20 1   
    44   20   21 1   
    45   20   48 1   
    46   21   22 2   
    47   21   23 1   
    48   23   24 1   
    49   23   49 1   
    50   23   50 1   
    51   24   25 1   
    52   24   26 1   
    53   24   51 1   
    54   25   52 1   
    55   25   53 1   
    56   25   54 1   
    57   26   55 1   
    58   26   56 1   
    59   26   57 1   
@<TRIPOS>SUBSTRUCTURE
     1 889         1 TEMP              0 ****  ****    0 ROOT
