@<TRIPOS>MOLECULE
88A
   55    59     1     0     0
SMALL
bcc


@<TRIPOS>ATOM
      1 O2          8.5030   -0.9710   -0.1420 o         1 88A     -0.658800
      2 S           7.3330   -1.6880   -0.4340 sy        1 88A      1.398300
      3 O1          7.2970   -2.4020   -1.6410 o         1 88A     -0.658800
      4 C1          7.0110   -2.7540    0.8420 c3        1 88A     -0.357300
      5 C21         5.9980   -0.6850   -0.3150 ca        1 88A     -0.385500
      6 C20         6.0460    0.4830    0.4580 ca        1 88A     -0.021000
      7 C19         4.9450    1.3270    0.5500 ca        1 88A     -0.135000
      8 C22         4.8160   -0.9760   -1.0060 ca        1 88A     -0.021000
      9 C23         3.7060   -0.1410   -0.9220 ca        1 88A     -0.135000
     10 C18         3.7590    1.0180   -0.1360 ca        1 88A      0.038000
     11 C2          2.6160    1.9200   -0.0370 cc        1 88A     -0.052000
     12 C6          1.2980    1.3900    0.1770 cc        1 88A      0.016700
     13 N3          0.8370    0.1190    0.3230 nd        1 88A     -0.423300
     14 C7         -0.5660    0.2920    0.5290 cd        1 88A      0.714200
     15 N2         -0.9630    1.6310    0.4970 nc        1 88A     -0.614100
     16 N1          0.1840    2.3040    0.2830 na        1 88A      0.173000
     17 C5          0.3750    3.6660    0.1740 cc        1 88A     -0.016300
     18 C4          1.6470    4.1580   -0.0340 cd        1 88A     -0.200000
     19 C3          2.7610    3.2880   -0.1340 cd        1 88A     -0.068000
     20 N4         -1.4050   -0.7930    0.8290 nh        1 88A     -0.629600
     21 C8         -2.7910   -0.7070    0.5330 ca        1 88A      0.082600
     22 C13        -3.3950   -1.6530   -0.3220 ca        1 88A     -0.112500
     23 C12        -4.7630   -1.6390   -0.5470 ca        1 88A     -0.155000
     24 C11        -5.5940   -0.6720    0.0660 ca        1 88A      0.128600
     25 C10        -4.9820    0.2670    0.9230 ca        1 88A     -0.155000
     26 C9         -3.6110    0.2530    1.1520 ca        1 88A     -0.112500
     27 N5         -6.9730   -0.6290   -0.2620 nh        1 88A     -0.629000
     28 C17        -7.7140    0.5250    0.2220 c3        1 88A      0.148300
     29 C16        -9.1520    0.5470   -0.3130 c3        1 88A      0.123900
     30 O3         -9.8310   -0.6750   -0.0470 os        1 88A     -0.413600
     31 C15        -9.1390   -1.7970   -0.5800 c3        1 88A      0.123900
     32 C14        -7.6990   -1.8780   -0.0580 c3        1 88A      0.148300
     33 H11C        7.0020   -2.2520    1.8390 h1        1 88A      0.114367
     34 H12C        6.0300   -3.2780    0.7390 h1        1 88A      0.114367
     35 H13C        7.7900   -3.5570    0.9020 h1        1 88A      0.114367
     36 H20         6.9800    0.7390    0.9900 ha        1 88A      0.156000
     37 H22         4.7720   -1.8790   -1.6410 ha        1 88A      0.156000
     38 H19         5.0000    2.2360    1.1680 ha        1 88A      0.150000
     39 H23         2.7880   -0.3940   -1.4740 ha        1 88A      0.150000
     40 H3          3.7590    3.7250   -0.2990 ha        1 88A      0.152000
     41 H4         -0.9990   -1.6760    0.5790 hn        1 88A      0.428800
     42 H5         -0.5190    4.3090    0.2600 h4        1 88A      0.183000
     43 HB          1.7960    5.2430   -0.1240 ha        1 88A      0.160000
     44 H13        -2.7840   -2.4210   -0.8230 ha        1 88A      0.143500
     45 H9         -3.1790    1.0020    1.8350 ha        1 88A      0.143500
     46 H12        -5.1910   -2.3870   -1.2330 ha        1 88A      0.138000
     47 H10        -5.5810    1.0370    1.4340 ha        1 88A      0.138000
     48 H171       -7.7570    0.5480    1.3500 h1        1 88A      0.047950
     49 H172       -7.1880    1.4550   -0.1330 h1        1 88A      0.047950
     50 H141       -7.1670   -2.7000   -0.6110 h1        1 88A      0.047950
     51 H142       -7.7300   -2.1540    1.0360 h1        1 88A      0.047950
     52 H161       -9.7510    1.3240    0.2300 h1        1 88A      0.056450
     53 H162       -9.1630    0.7510   -1.4160 h1        1 88A      0.056450
     54 H151       -9.7260   -2.6840   -0.2230 h1        1 88A      0.056450
     55 H152       -9.1530   -1.7500   -1.7010 h1        1 88A      0.056450
@<TRIPOS>BOND
     1    1    2 2   
     2    2    3 2   
     3    2    4 1   
     4    2    5 1   
     5    4   33 1   
     6    4   34 1   
     7    4   35 1   
     8    5    6 ar  
     9    5    8 ar  
    10    6    7 ar  
    11    6   36 1   
    12    7   10 ar  
    13    7   38 1   
    14    8    9 ar  
    15    8   37 1   
    16    9   10 ar  
    17    9   39 1   
    18   10   11 1   
    19   11   12 1   
    20   11   19 2   
    21   12   13 2   
    22   12   16 1   
    23   13   14 1   
    24   14   15 2   
    25   14   20 1   
    26   15   16 1   
    27   16   17 1   
    28   17   18 2   
    29   17   42 1   
    30   18   19 1   
    31   18   43 1   
    32   19   40 1   
    33   20   21 1   
    34   20   41 1   
    35   21   22 ar  
    36   21   26 ar  
    37   22   23 ar  
    38   22   44 1   
    39   23   24 ar  
    40   23   46 1   
    41   24   25 ar  
    42   24   27 1   
    43   25   26 ar  
    44   25   47 1   
    45   26   45 1   
    46   27   28 1   
    47   27   32 1   
    48   28   29 1   
    49   28   48 1   
    50   28   49 1   
    51   29   30 1   
    52   29   52 1   
    53   29   53 1   
    54   30   31 1   
    55   31   32 1   
    56   31   54 1   
    57   31   55 1   
    58   32   50 1   
    59   32   51 1   
@<TRIPOS>SUBSTRUCTURE
     1 88A         1 TEMP              0 ****  ****    0 ROOT
