@<TRIPOS>MOLECULE
88A
   55    59     1     0     0
SMALL
bcc


@<TRIPOS>ATOM
      1 O2          0.6950    0.0640    1.1070 o         1 88A     -0.658800
      2 S           1.9130   -0.0010    0.4130 sy        1 88A      1.398300
      3 O1          3.0580   -0.3410    1.1490 o         1 88A     -0.658800
      4 C1          1.7510   -1.0830   -0.8790 c3        1 88A     -0.357300
      5 C21         2.1700    1.4210   -0.4330 ca        1 88A     -0.385500
      6 C20         1.0970    2.2520   -0.7810 ca        1 88A     -0.021000
      7 C19         1.3050    3.4400   -1.4710 ca        1 88A     -0.135000
      8 C22         3.4640    1.8240   -0.7860 ca        1 88A     -0.021000
      9 C23         3.6870    3.0100   -1.4790 ca        1 88A     -0.135000
     10 C18         2.6060    3.8280   -1.8340 ca        1 88A      0.038000
     11 C2          2.8090    5.0840   -2.5490 cc        1 88A     -0.052000
     12 C6          3.6940    5.1320   -3.6800 cc        1 88A      0.016700
     13 N3          4.4530    4.1820   -4.2870 nd        1 88A     -0.423300
     14 C7          5.0730    4.8850   -5.3660 cd        1 88A      0.714200
     15 N2          4.7180    6.2350   -5.4140 nc        1 88A     -0.614100
     16 N1          3.8690    6.3850   -4.3800 na        1 88A      0.173000
     17 C5          3.2050    7.5220   -3.9690 cc        1 88A     -0.016300
     18 C4          2.3600    7.4580   -2.8800 cd        1 88A     -0.200000
     19 C3          2.1600    6.2430   -2.1780 cd        1 88A     -0.068000
     20 N4          5.8700    4.2240   -6.3130 nh        1 88A     -0.628600
     21 C8          6.8520    4.9550   -7.0320 ca        1 88A      0.082600
     22 C13         8.2090    4.5740   -6.9710 ca        1 88A     -0.112500
     23 C12         9.1660    5.2190   -7.7400 ca        1 88A     -0.155000
     24 C11         8.8130    6.2840   -8.6020 ca        1 88A      0.128600
     25 C10         7.4540    6.6560   -8.6590 ca        1 88A     -0.155000
     26 C9          6.4920    6.0090   -7.8930 ca        1 88A     -0.112500
     27 N5          9.8320    6.9820   -9.3000 nh        1 88A     -0.629000
     28 C17         9.4250    8.2020   -9.9800 c3        1 88A      0.148300
     29 C16        10.6250    8.9540  -10.5730 c3        1 88A      0.123900
     30 O3         11.4120    8.1120  -11.4070 os        1 88A     -0.413600
     31 C15        11.8660    6.9520  -10.7200 c3        1 88A      0.123900
     32 C14        10.7000    6.1510  -10.1260 c3        1 88A      0.148300
     33 H11C        0.8660   -0.8630   -1.5250 h1        1 88A      0.114367
     34 H12C        1.6170   -2.1320   -0.5100 h1        1 88A      0.114367
     35 H13C        2.6410   -1.1000   -1.5530 h1        1 88A      0.114367
     36 H20         0.0730    1.9600   -0.4880 ha        1 88A      0.156000
     37 H22         4.3220    1.1920   -0.4940 ha        1 88A      0.156000
     38 H19         0.4490    4.0770   -1.7420 ha        1 88A      0.150000
     39 H23         4.7140    3.3020   -1.7460 ha        1 88A      0.150000
     40 H3          1.4760    6.2380   -1.3150 ha        1 88A      0.152000
     41 H4          6.1980    3.3330   -5.9880 hn        1 88A      0.428800
     42 H5          3.3860    8.4480   -4.5440 h4        1 88A      0.183000
     43 HB          1.8350    8.3660   -2.5530 ha        1 88A      0.160000
     44 H13         8.5270    3.7520   -6.3100 ha        1 88A      0.143500
     45 H9          5.4410    6.3290   -7.9760 ha        1 88A      0.143500
     46 H12        10.2160    4.8990   -7.6510 ha        1 88A      0.138000
     47 H10         7.1200    7.4720   -9.3200 ha        1 88A      0.138000
     48 H171        8.6960    7.9890  -10.8150 h1        1 88A      0.047950
     49 H172        8.9210    8.8720   -9.2290 h1        1 88A      0.047950
     50 H141       11.1250    5.3270   -9.4890 h1        1 88A      0.047950
     51 H142       10.1230    5.6780  -10.9720 h1        1 88A      0.047950
     52 H161       11.2670    9.3830   -9.7590 h1        1 88A      0.056450
     53 H162       10.2670    9.7690  -11.2550 h1        1 88A      0.056450
     54 H151       12.3850    6.3450  -11.5080 h1        1 88A      0.056450
     55 H152       12.5930    7.2500   -9.9190 h1        1 88A      0.056450
@<TRIPOS>BOND
     1    1    2 2   
     2    2    3 2   
     3    2    4 1   
     4    2    5 1   
     5    4   33 1   
     6    4   34 1   
     7    4   35 1   
     8    5    6 ar  
     9    5    8 ar  
    10    6    7 ar  
    11    6   36 1   
    12    7   10 ar  
    13    7   38 1   
    14    8    9 ar  
    15    8   37 1   
    16    9   10 ar  
    17    9   39 1   
    18   10   11 1   
    19   11   12 1   
    20   11   19 2   
    21   12   13 2   
    22   12   16 1   
    23   13   14 1   
    24   14   15 2   
    25   14   20 1   
    26   15   16 1   
    27   16   17 1   
    28   17   18 2   
    29   17   42 1   
    30   18   19 1   
    31   18   43 1   
    32   19   40 1   
    33   20   21 1   
    34   20   41 1   
    35   21   22 ar  
    36   21   26 ar  
    37   22   23 ar  
    38   22   44 1   
    39   23   24 ar  
    40   23   46 1   
    41   24   25 ar  
    42   24   27 1   
    43   25   26 ar  
    44   25   47 1   
    45   26   45 1   
    46   27   28 1   
    47   27   32 1   
    48   28   29 1   
    49   28   48 1   
    50   28   49 1   
    51   29   30 1   
    52   29   52 1   
    53   29   53 1   
    54   30   31 1   
    55   31   32 1   
    56   31   54 1   
    57   31   55 1   
    58   32   50 1   
    59   32   51 1   
@<TRIPOS>SUBSTRUCTURE
     1 88A         1 TEMP              0 ****  ****    0 ROOT
