@<TRIPOS>MOLECULE
88A
   55    59     1     0     0
SMALL
bcc


@<TRIPOS>ATOM
      1 O2          0.6900    0.0650    1.1040 o         1 88A     -0.658800
      2 S           1.9060   -0.0030    0.4080 sy        1 88A      1.398300
      3 O1          3.0510   -0.3490    1.1400 o         1 88A     -0.658800
      4 C1          1.7380   -1.0810   -0.8870 c3        1 88A     -0.357300
      5 C21         2.1670    1.4210   -0.4350 ca        1 88A     -0.385500
      6 C20         1.0960    2.2560   -0.7790 ca        1 88A     -0.021000
      7 C19         1.3080    3.4450   -1.4670 ca        1 88A     -0.135000
      8 C22         3.4610    1.8200   -0.7890 ca        1 88A     -0.021000
      9 C23         3.6870    3.0070   -1.4790 ca        1 88A     -0.135000
     10 C18         2.6080    3.8300   -1.8300 ca        1 88A      0.038000
     11 C2          2.8150    5.0860   -2.5430 cc        1 88A     -0.052000
     12 C6          3.6990    5.1350   -3.6740 cc        1 88A      0.016700
     13 N3          4.4540    4.1830   -4.2860 nd        1 88A     -0.423300
     14 C7          5.0740    4.8870   -5.3630 cd        1 88A      0.714200
     15 N2          4.7240    6.2390   -5.4070 nc        1 88A     -0.614100
     16 N1          3.8770    6.3890   -4.3710 na        1 88A      0.173000
     17 C5          3.2170    7.5270   -3.9570 cc        1 88A     -0.016300
     18 C4          2.3740    7.4630   -2.8670 cd        1 88A     -0.200000
     19 C3          2.1710    6.2470   -2.1680 cd        1 88A     -0.068000
     20 N4          5.8680    4.2260   -6.3130 nu        1 88A     -0.629600
     21 C8          6.8500    4.9550   -7.0330 ca        1 88A      0.082600
     22 C13         8.2070    4.5700   -6.9760 ca        1 88A     -0.112500
     23 C12         9.1640    5.2140   -7.7450 ca        1 88A     -0.155000
     24 C11         8.8120    6.2820   -8.6040 ca        1 88A      0.127600
     25 C10         7.4540    6.6580   -8.6580 ca        1 88A     -0.155000
     26 C9          6.4920    6.0120   -7.8900 ca        1 88A     -0.112500
     27 N5          9.8320    6.9790   -9.3030 nh        1 88A     -0.629000
     28 C17         9.4270    8.2020   -9.9790 c3        1 88A      0.148300
     29 C16        10.6280    8.9510  -10.5730 c3        1 88A      0.123900
     30 O3         11.4110    8.1080  -11.4110 os        1 88A     -0.413600
     31 C15        11.8620    6.9450  -10.7270 c3        1 88A      0.123900
     32 C14        10.6950    6.1470  -10.1320 c3        1 88A      0.148300
     33 H11C        2.6280   -1.1010   -1.5610 h1        1 88A      0.114367
     34 H12C        1.5980   -2.1300   -0.5210 h1        1 88A      0.114367
     35 H13C        0.8540   -0.8540   -1.5320 h1        1 88A      0.114367
     36 H20         0.0710    1.9670   -0.4860 ha        1 88A      0.156000
     37 H22         4.3180    1.1850   -0.5000 ha        1 88A      0.156000
     38 H19         0.4530    4.0850   -1.7350 ha        1 88A      0.150000
     39 H23         4.7150    3.2970   -1.7470 ha        1 88A      0.150000
     40 H3          1.4870    6.2420   -1.3040 ha        1 88A      0.152000
     41 H4          6.1940    3.3330   -5.9910 hn        1 88A      0.428800
     42 H5          3.4010    8.4530   -4.5300 h4        1 88A      0.183000
     43 HB          1.8520    8.3720   -2.5370 ha        1 88A      0.160000
     44 H13         8.5240    3.7470   -6.3160 ha        1 88A      0.143500
     45 H9          5.4420    6.3360   -7.9710 ha        1 88A      0.143500
     46 H12        10.2130    4.8910   -7.6590 ha        1 88A      0.138000
     47 H10         7.1210    7.4760   -9.3160 ha        1 88A      0.138000
     48 H171        8.9270    8.8710   -9.2260 h1        1 88A      0.047950
     49 H172        8.6950    7.9920  -10.8130 h1        1 88A      0.047950
     50 H141       10.1140    5.6780  -10.9790 h1        1 88A      0.047950
     51 H142       11.1190    5.3200   -9.4990 h1        1 88A      0.047950
     52 H161       11.2730    9.3760   -9.7590 h1        1 88A      0.056450
     53 H162       10.2710    9.7680  -11.2520 h1        1 88A      0.056450
     54 H151       12.5920    7.2390   -9.9270 h1        1 88A      0.056450
     55 H152       12.3770    6.3380  -11.5180 h1        1 88A      0.056450
@<TRIPOS>BOND
     1    1    2 2   
     2    2    3 2   
     3    2    4 1   
     4    2    5 1   
     5    4   33 1   
     6    4   34 1   
     7    4   35 1   
     8    5    6 ar  
     9    5    8 ar  
    10    6    7 ar  
    11    6   36 1   
    12    7   10 ar  
    13    7   38 1   
    14    8    9 ar  
    15    8   37 1   
    16    9   10 ar  
    17    9   39 1   
    18   10   11 1   
    19   11   12 1   
    20   11   19 2   
    21   12   13 2   
    22   12   16 1   
    23   13   14 1   
    24   14   15 2   
    25   14   20 1   
    26   15   16 1   
    27   16   17 1   
    28   17   18 2   
    29   17   42 1   
    30   18   19 1   
    31   18   43 1   
    32   19   40 1   
    33   20   21 1   
    34   20   41 1   
    35   21   22 ar  
    36   21   26 ar  
    37   22   23 ar  
    38   22   44 1   
    39   23   24 ar  
    40   23   46 1   
    41   24   25 ar  
    42   24   27 1   
    43   25   26 ar  
    44   25   47 1   
    45   26   45 1   
    46   27   28 1   
    47   27   32 1   
    48   28   29 1   
    49   28   48 1   
    50   28   49 1   
    51   29   30 1   
    52   29   52 1   
    53   29   53 1   
    54   30   31 1   
    55   31   32 1   
    56   31   54 1   
    57   31   55 1   
    58   32   50 1   
    59   32   51 1   
@<TRIPOS>SUBSTRUCTURE
     1 88A         1 TEMP              0 ****  ****    0 ROOT
