@<TRIPOS>MOLECULE
88A
   55    49     1     0     0
SMALL
bcc


@<TRIPOS>ATOM
      1 O2         -7.0950   -4.6810    4.1190 o         1 88A     -0.938000
      2 S          -5.6630   -4.4690    4.4870 ss        1 88A      2.862000
      3 O1         -5.7560   -4.3010    5.9420 o         1 88A     -0.938000
      4 C1         -4.6910   -5.8850    4.0740 c2        1 88A     -0.936000
      5 C21        -5.0130   -3.0120    3.7150 c1        1 88A     -0.830000
      6 C20        -4.1780   -2.1660    4.4250 c2        1 88A     -0.020000
      7 C19        -3.6750   -1.0210    3.8210 c1        1 88A     -0.122000
      8 C22        -5.3470   -2.7130    2.3960 c1        1 88A     -0.021000
      9 C23        -4.8460   -1.5750    1.8000 c1        1 88A     -0.148000
     10 C18        -4.0090   -0.7270    2.5110 c1        1 88A      0.037000
     11 C2         -3.4460    0.4980    1.8500 c2        1 88A     -0.052000
     12 C6         -2.2760    0.5180    1.0700 c1        1 88A      0.041000
     13 N3         -1.3460   -0.4430    0.7910 n1        1 88A     -0.204000
     14 C7         -0.3980    0.1070   -0.0270 c1        1 88A      0.055000
     15 N2         -0.7390    1.4050   -0.2540 n2        1 88A     -0.148000
     16 N1         -1.9050    1.6620    0.4260 n2        1 88A     -0.055000
     17 C5         -2.6840    2.8110    0.5420 c1        1 88A     -0.096000
     18 C4         -3.8300    2.7930    1.3060 c1        1 88A     -0.096000
     19 C3         -4.2100    1.6250    1.9640 c1        1 88A     -0.068000
     20 N4          0.7730   -0.6110   -0.4510 n2        1 88A     -0.191000
     21 C8          1.7390    0.0290   -1.2400 c2        1 88A      0.001000
     22 C13         2.8700    0.5720   -0.6440 c2        1 88A     -0.137000
     23 C12         3.8850    1.0920   -1.4290 c1        1 88A     -0.165000
     24 C11         3.7750    1.0690   -2.8000 c1        1 88A      0.047000
     25 C10         2.6420    0.5240   -3.3950 c1        1 88A     -0.146000
     26 C9          1.6280    0.0060   -2.6080 c1        1 88A     -0.088000
     27 N5          4.8360    1.7130   -3.6510 n3        1 88A     -0.231000
     28 C17         6.0700    0.9710   -3.5320 c3        1 88A     -0.088500
     29 C16         7.2180    1.6510   -4.2370 c3        1 88A     -0.026500
     30 O3          7.3540    3.0390   -3.8510 os        1 88A     -0.270000
     31 C15         6.1250    3.7710   -3.9720 c3        1 88A     -0.026500
     32 C14         4.9780    3.0880   -3.2640 c3        1 88A     -0.088500
     33 H11C       -5.0110   -6.6580    4.5900 ha        1 88A      0.153667
     34 H12C       -4.7820   -6.0790    3.0900 ha        1 88A      0.153667
     35 H13C       -3.7400   -5.7140    4.2930 ha        1 88A      0.153667
     36 H20        -3.9540   -2.3640    5.3180 ha        1 88A      0.156000
     37 H22        -5.9700   -3.3390    1.8670 ha        1 88A      0.156000
     38 H19        -3.0950   -0.4320    4.3130 ha        1 88A      0.158000
     39 H23        -5.0830   -1.3630    0.8660 ha        1 88A      0.142000
     40 H3         -5.0700    1.6110    2.5390 ha        1 88A      0.152000
     41 H4          0.8750   -1.4400   -0.2290 hn        1 88A      0.225000
     42 H5         -2.4110    3.6530    0.0680 ha        1 88A      0.171000
     43 HB         -4.3610    3.5760    1.3840 ha        1 88A      0.171000
     44 H13         2.9470    0.5880    0.3320 ha        1 88A      0.132000
     45 H9          0.8590   -0.3650   -3.0120 ha        1 88A      0.155000
     46 H12         4.6660    1.4680   -1.0150 ha        1 88A      0.136000
     47 H10         2.5650    0.5080   -4.3330 ha        1 88A      0.140000
     48 H171        5.9450    0.1030   -3.9160 h1        1 88A      0.087250
     49 H172        6.2860    0.8720   -2.6100 h1        1 88A      0.087250
     50 H141        4.1040    3.5880   -3.4750 h1        1 88A      0.087250
     51 H142        5.1420    3.1280   -2.2710 h1        1 88A      0.087250
     52 H161        8.0670    1.1690   -4.0040 h1        1 88A      0.096250
     53 H162        7.0820    1.6010   -5.1690 h1        1 88A      0.096250
     54 H151        6.2500    4.6840   -3.5790 h1        1 88A      0.096250
     55 H152        5.9000    3.8610   -4.9310 h1        1 88A      0.096250
@<TRIPOS>BOND
     1    1    2 1   
     2    2    3 1   
     3    4   33 1   
     4    4   34 1   
     5    4   35 1   
     6    5    6 1   
     7    5    8 1   
     8    6    7 1   
     9    6   36 1   
    10    7   38 1   
    11    8   37 1   
    12    9   10 1   
    13    9   39 1   
    14   10   11 1   
    15   11   12 1   
    16   11   19 1   
    17   12   16 1   
    18   13   14 1   
    19   14   15 1   
    20   15   16 1   
    21   17   18 1   
    22   17   42 1   
    23   18   43 1   
    24   19   40 1   
    25   20   21 1   
    26   20   41 1   
    27   21   22 1   
    28   21   26 1   
    29   22   23 1   
    30   22   44 1   
    31   23   46 1   
    32   24   25 1   
    33   24   27 1   
    34   25   47 1   
    35   26   45 1   
    36   27   28 1   
    37   27   32 1   
    38   28   29 1   
    39   28   48 1   
    40   28   49 1   
    41   29   30 1   
    42   29   52 1   
    43   29   53 1   
    44   30   31 1   
    45   31   32 1   
    46   31   54 1   
    47   31   55 1   
    48   32   50 1   
    49   32   51 1   
@<TRIPOS>SUBSTRUCTURE
     1 88A         1 TEMP              0 ****  ****    0 ROOT
