@<TRIPOS>MOLECULE
88A
   56    60     1     0     0
SMALL
bcc


@<TRIPOS>ATOM
      1 O2         -0.7340    0.7830   -2.0860 o         1 88A     -0.644800
      2 S           0.5800    0.4150   -2.3900 sy        1 88A      1.394300
      3 O1          1.1610   -0.6460   -1.6880 o         1 88A     -0.644800
      4 C1          0.7090    0.1260   -4.0500 c3        1 88A     -0.365300
      5 C21         1.5810    1.7740   -2.2640 ca        1 88A     -0.349500
      6 C20         1.0760    3.0590   -2.4910 ca        1 88A     -0.021000
      7 C19         1.8840    4.1820   -2.3440 ca        1 88A     -0.127500
      8 C22         2.9180    1.6390   -1.8760 ca        1 88A     -0.021000
      9 C23         3.7390    2.7540   -1.7250 ca        1 88A     -0.127500
     10 C18         3.2250    4.0360   -1.9600 ca        1 88A     -0.007000
     11 C2          4.0510    5.2260   -1.7730 cc        1 88A     -0.005000
     12 C6          5.3720    5.2840   -2.3330 cc        1 88A      0.012700
     13 N3          6.0900    4.3880   -3.0820 nd        1 88A     -0.349300
     14 C7          7.2990    5.0690   -3.3050 cd        1 88A      0.527200
     15 N2          7.3620    6.3420   -2.7400 nc        1 88A     -0.525100
     16 N1          6.1760    6.4700   -2.1410 na        1 88A      0.197000
     17 C5          5.6830    7.5500   -1.4140 cc        1 88A     -0.046300
     18 C4          4.4150    7.4730   -0.8880 cd        1 88A     -0.132000
     19 C3          3.6010    6.3220   -1.0680 cd        1 88A     -0.069000
     20 N4          8.3910    4.4880   -4.0920 n4        1 88A     -0.512400
     21 C8          8.4240    4.9910   -5.4650 ca        1 88A     -0.154400
     22 C13         9.2120    6.1120   -5.7870 ca        1 88A     -0.034500
     23 C12         9.2640    6.5690   -7.0890 ca        1 88A     -0.203000
     24 C11         8.5060    5.9500   -8.1300 ca        1 88A      0.252600
     25 C10         7.7240    4.8100   -7.7690 ca        1 88A     -0.203000
     26 C9          7.6710    4.3520   -6.4680 ca        1 88A     -0.034500
     27 N5          8.4890    6.4610   -9.4120 nh        1 88A     -0.633000
     28 C17         7.8930    5.6680  -10.4720 c3        1 88A      0.163800
     29 C16         7.8140    6.3690  -11.8330 c3        1 88A      0.116400
     30 O3          9.0150    7.0580  -12.1440 os        1 88A     -0.388600
     31 C15         9.2940    8.0600  -11.1790 c3        1 88A      0.116400
     32 C14         9.4700    7.4680   -9.7750 c3        1 88A      0.163800
     33 H11C        1.7390   -0.1640   -4.3690 h1        1 88A      0.118367
     34 H12C        0.4120    1.0010   -4.6780 h1        1 88A      0.118367
     35 H13C        0.0400   -0.7180   -4.3640 h1        1 88A      0.118367
     36 H20         0.0130    3.1810   -2.7710 ha        1 88A      0.166500
     37 H22         3.3210    0.6310   -1.6640 ha        1 88A      0.166500
     38 H19         1.4680    5.1850   -2.5270 ha        1 88A      0.146500
     39 H23         4.7840    2.6230   -1.4060 ha        1 88A      0.146500
     40 H3          2.5910    6.3130   -0.6220 ha        1 88A      0.178000
     41 H4          8.2640    3.4640   -4.1130 hn        1 88A      0.473300
     42 H5          6.3500    8.4250   -1.2990 h4        1 88A      0.203000
     43 HB          4.0220    8.3270   -0.3110 ha        1 88A      0.185000
     44 H13         9.7980    6.6350   -5.0120 ha        1 88A      0.153500
     45 H9          7.0370    3.4800   -6.2320 ha        1 88A      0.153500
     46 H12         9.9130    7.4330   -7.3030 ha        1 88A      0.162000
     47 H10         7.1400    4.2660   -8.5280 ha        1 88A      0.162000
     48 H171        6.8370    5.4080  -10.1730 h1        1 88A      0.060200
     49 H172        8.4780    4.7090  -10.5920 h1        1 88A      0.060200
     50 H141        9.3900    8.3250   -9.0440 h1        1 88A      0.060200
     51 H142       10.5050    7.0250   -9.6960 h1        1 88A      0.060200
     52 H161        6.9470    7.0820  -11.8580 h1        1 88A      0.072200
     53 H162        7.7070    5.6020  -12.6460 h1        1 88A      0.072200
     54 H151       10.2610    8.5200  -11.5170 h1        1 88A      0.072200
     55 H152        8.4790    8.8310  -11.1810 h1        1 88A      0.072200
     56 H42         9.2820    4.7130   -3.6270 hn        1 88A      0.473300
@<TRIPOS>BOND
     1    1    2 2   
     2    2    3 2   
     3    2    4 1   
     4    2    5 1   
     5    4   33 1   
     6    4   34 1   
     7    4   35 1   
     8    5    6 ar  
     9    5    8 ar  
    10    6    7 ar  
    11    6   36 1   
    12    7   10 ar  
    13    7   38 1   
    14    8    9 ar  
    15    8   37 1   
    16    9   10 ar  
    17    9   39 1   
    18   10   11 1   
    19   11   12 1   
    20   11   19 2   
    21   12   13 2   
    22   12   16 1   
    23   13   14 1   
    24   14   15 2   
    25   14   20 1   
    26   15   16 1   
    27   16   17 1   
    28   17   18 2   
    29   17   42 1   
    30   18   19 1   
    31   18   43 1   
    32   19   40 1   
    33   20   21 1   
    34   20   41 1   
    35   20   56 1   
    36   21   22 ar  
    37   21   26 ar  
    38   22   23 ar  
    39   22   44 1   
    40   23   24 ar  
    41   23   46 1   
    42   24   25 ar  
    43   24   27 1   
    44   25   26 ar  
    45   25   47 1   
    46   26   45 1   
    47   27   28 1   
    48   27   32 1   
    49   28   29 1   
    50   28   48 1   
    51   28   49 1   
    52   29   30 1   
    53   29   52 1   
    54   29   53 1   
    55   30   31 1   
    56   31   32 1   
    57   31   54 1   
    58   31   55 1   
    59   32   50 1   
    60   32   51 1   
@<TRIPOS>SUBSTRUCTURE
     1 88A         1 TEMP              0 ****  ****    0 ROOT
