@<TRIPOS>MOLECULE
88N
   60    49     1     0     0
SMALL
bcc


@<TRIPOS>ATOM
      1 C23         4.2380    3.7690    0.5360 c1        1 88N     -0.143000
      2 C27         4.2030    3.2730    2.8960 c1        1 88N     -0.154000
      3 C24         5.6350    3.7410    0.5470 c1        1 88N     -0.125000
      4 C26         5.5970    3.2460    2.9030 c1        1 88N     -0.154000
      5 C5         -5.2510   -5.7600   -1.8610 c1        1 88N     -0.105500
      6 C6         -4.8330   -4.4400   -1.5160 c1        1 88N     -0.159000
      7 C8         -6.5920   -3.5290   -2.9510 c1        1 88N     -0.105500
      8 C22         3.5240    3.5330    1.7160 c1        1 88N     -0.151000
      9 C25         6.3090    3.4840    1.7130 c1        1 88N      0.001000
     10 C4         -6.3160   -5.9450   -2.7320 c1        1 88N     -0.184500
     11 C7         -5.4950   -3.3390   -2.0530 c1        1 88N      0.105000
     12 C9         -6.9970   -4.8060   -3.2860 c1        1 88N     -0.184500
     13 C2         -8.0720   -6.8720   -4.1890 c1        1 88N     -0.235000
     14 C12        -4.6960   -1.5050   -0.5520 c1        1 88N      0.310000
     15 C17        -0.9100    1.1190    1.2540 c1        1 88N      0.312000
     16 C30         9.4970    2.0210    2.0050 c1        1 88N      0.348500
     17 C33         9.7560    4.1890    0.8320 c1        1 88N      0.348500
     18 C1         -8.8790   -8.1450   -4.6310 c2        1 88N     -0.155000
     19 C21         1.9660    3.7050    1.7300 c3        1 88N     -0.094000
     20 C28         7.7400    3.7590    2.2330 c3        1 88N     -0.129000
     21 C14        -4.0250   -0.0890   -0.3830 c2        1 88N     -0.213000
     22 C19        -0.2090    2.5070    1.5990 c2        1 88N     -0.177000
     23 C20         1.2990    2.3420    1.5340 c3        1 88N     -0.170000
     24 C15        -3.0030   -0.1530    0.6970 c3        1 88N     -0.022000
     25 C29         8.7620    3.1290    1.2850 c1        1 88N     -0.202000
     26 N3         -6.9960   -7.2600   -3.3030 n1        1 88N     -0.095000
     27 N11        -4.9260   -2.0540   -1.8990 n3        1 88N     -0.322000
     28 N16        -2.2560    1.1010    0.7390 n3        1 88N     -0.380000
     29 O13        -5.0010   -2.1750    0.4560 o         1 88N     -0.368000
     30 O18        -0.3320    0.0720    1.4810 o         1 88N     -0.437000
     31 O31        10.0880    2.2570    3.0690 o         1 88N     -0.614750
     32 O34         9.6060    4.7550   -0.2920 o         1 88N     -0.614750
     33 O32         9.4400    0.8420    1.5650 o         1 88N     -0.614750
     34 O35        10.6620    4.6190    1.6560 o         1 88N     -0.614750
     35 S10        -8.1260   -5.3340   -4.2230 s         1 88N      0.377000
     36 H23         3.7460    3.9580   -0.3230 ha        1 88N      0.104000
     37 H24         6.1260    3.9030   -0.2690 ha        1 88N      0.226000
     38 H27         3.6870    3.1020    3.7550 ha        1 88N      0.107000
     39 H26         6.0820    3.0140    3.7280 ha        1 88N      0.107000
     40 H5         -4.7990   -6.5160   -1.4930 ha        1 88N      0.154000
     41 H6         -4.1480   -4.3080   -0.8190 ha        1 88N      0.174000
     42 H8         -7.1030   -2.7710   -3.2500 ha        1 88N      0.154000
     43 H211        1.6830    4.0850    2.5930 hc        1 88N      0.068000
     44 H212        1.7070    4.2930    1.0230 hc        1 88N      0.068000
     45 H281        7.8370    3.3830    3.0950 hc        1 88N      0.107500
     46 H282        7.8950    4.7470    2.2820 hc        1 88N      0.107500
     47 H11        -4.7240   -1.5430   -2.6470 hn        1 88N      0.268000
     48 H11C       -8.5000   -8.5020   -5.4710 ha        1 88N      0.094333
     49 H12C       -8.8220   -8.8190   -3.9400 ha        1 88N      0.094333
     50 H13C       -9.7890   -7.9090   -4.7700 ha        1 88N      0.094333
     51 H141       -4.7000    0.5620   -0.1500 ha        1 88N      0.126000
     52 H142       -3.6040    0.1680   -1.2100 ha        1 88N      0.126000
     53 H191       -0.4750    2.7970    2.5210 ha        1 88N      0.113500
     54 H192       -0.4930    3.1840    0.9510 ha        1 88N      0.113500
     55 H16        -2.6070    1.8410    0.3830 hn        1 88N      0.248000
     56 H29         8.2910    2.7520    0.4870 ha        1 88N      0.070000
     57 H201        1.5600    1.9610    0.6270 hc        1 88N      0.093500
     58 H202        1.5940    1.7240    2.2500 hc        1 88N      0.093500
     59 H151       -2.4080   -0.8690    0.5260 h1        1 88N      0.104500
     60 H152       -3.4410   -0.2940    1.5450 h1        1 88N      0.104500
@<TRIPOS>BOND
     1    1    8 1   
     2    1   36 1   
     3    2    4 1   
     4    2   38 1   
     5    3    9 1   
     6    3   37 1   
     7    4   39 1   
     8    5   10 1   
     9    5   40 1   
    10    6   11 1   
    11    6   41 1   
    12    7   12 1   
    13    7   42 1   
    14    8   19 1   
    15    9   20 1   
    16   11   27 1   
    17   13   26 1   
    18   13   35 1   
    19   14   27 1   
    20   14   29 1   
    21   15   28 1   
    22   15   30 1   
    23   16   31 1   
    24   16   33 1   
    25   17   32 1   
    26   17   34 1   
    27   18   48 1   
    28   18   49 1   
    29   18   50 1   
    30   19   23 1   
    31   19   43 1   
    32   19   44 1   
    33   20   25 1   
    34   20   45 1   
    35   20   46 1   
    36   21   24 1   
    37   21   51 1   
    38   21   52 1   
    39   22   23 1   
    40   22   53 1   
    41   22   54 1   
    42   23   57 1   
    43   23   58 1   
    44   24   28 1   
    45   24   59 1   
    46   24   60 1   
    47   25   56 1   
    48   27   47 1   
    49   28   55 1   
@<TRIPOS>SUBSTRUCTURE
     1 88N         1 TEMP              0 ****  ****    0 ROOT
