@<TRIPOS>MOLECULE
88N
   61    62     1     0     0
SMALL
bcc


@<TRIPOS>ATOM
      1 C23         0.0000    0.0000    0.0000 ca        1 88N     -0.120500
      2 C27        -0.0000    0.0000    2.3950 ca        1 88N     -0.120500
      3 C24         1.3820    0.0000    0.0000 ca        1 88N     -0.054000
      4 C26         1.3830    0.0010    2.3950 ca        1 88N     -0.054000
      5 C5        -11.0530   -9.8080    3.4480 c2        1 88N     -0.033000
      6 C6        -10.6990   -8.5080    3.2580 c2        1 88N     -0.113000
      7 C8         -9.7500   -9.0450    1.1160 c2        1 88N     -0.043000
      8 C22        -0.6910    0.0010    1.1970 ca        1 88N     -0.136000
      9 C25         2.0740    0.0000    1.1970 ca        1 88N     -0.029000
     10 C4        -10.7640  -10.7790    2.4700 c2        1 88N     -0.078000
     11 C7        -10.0460   -8.1110    2.0930 c1        1 88N      0.046000
     12 C9        -10.1070  -10.3780    1.3000 c2        1 88N     -0.242000
     13 C2        -10.6600  -12.7810    1.4480 c2        1 88N     -0.213000
     14 C12        -8.5890   -5.9070    1.1990 c2        1 88N      0.253000
     15 C17        -4.7420   -2.8610    1.1980 c2        1 88N     -0.083000
     16 C30         3.6940    2.1150    2.4830 c2        1 88N      0.414000
     17 C33         5.5940    1.4410    1.0720 c2        1 88N      0.414000
     18 C1        -10.8820  -14.2640    1.2940 c3        1 88N     -0.028000
     19 C21        -2.1980    0.0010    1.1980 c3        1 88N     -0.037000
     20 C28         3.5800   -0.0010    1.1980 c3        1 88N     -0.042000
     21 C14        -8.0860   -4.4860    1.1990 c3        1 88N     -0.160000
     22 C19        -4.2390   -1.4400    1.1980 c3        1 88N     -0.094000
     23 C20        -2.7090   -1.4410    1.1980 c3        1 88N     -0.098000
     24 C15        -6.5560   -4.4880    1.1980 c3        1 88N     -0.240000
     25 C29         4.0920    1.4410    1.1960 c3        1 88N     -0.148000
     26 N3        -11.0270  -12.1010    2.4660 n2        1 88N     -0.025000
     27 N11        -9.9140   -6.1530    1.1990 n2        1 88N     -0.137000
     28 N16        -6.0680   -3.1060    1.1980 ny        1 88N      0.752000
     29 O13        -7.8020   -6.8300    1.1980 o         1 88N     -0.389000
     30 O18        -3.9540   -3.7830    1.1980 o         1 88N     -0.252000
     31 O31         2.3960    2.2320    2.8080 o         1 88N     -0.548000
     32 O34         6.2650    2.6030    1.0500 o         1 88N     -0.548000
     33 O32         4.5430    2.5520    3.2240 o         1 88N     -0.548000
     34 O35         6.1940    0.3950    0.9930 o         1 88N     -0.548000
     35 S10        -9.8900  -11.7990    0.2830 ss        1 88N      0.264000
     36 H23        -0.5420    0.0000   -0.9380 ha        1 88N      0.082500
     37 H24         1.9240   -0.0300   -0.9380 ha        1 88N      0.114500
     38 H27        -0.5420    0.0010    3.3330 ha        1 88N      0.082500
     39 H26         1.9240    0.0000    3.3330 ha        1 88N      0.114500
     40 H211       -2.5590    0.5130    2.0820 hc        1 88N      0.046000
     41 H212       -2.5590    0.5120    0.3130 hc        1 88N      0.046000
     42 H281        3.9400   -0.5110    2.0830 hc        1 88N      0.060500
     43 H282        3.9410   -0.5140    0.3140 hc        1 88N      0.060500
     44 H11       -10.6980   -5.5320    1.2380 hn        1 88N      0.101000
     45 H11C      -11.9420  -14.4800    1.3580 hc        1 88N      0.058667
     46 H12C      -10.3580  -14.7920    2.0810 hc        1 88N      0.058667
     47 H13C      -10.5060  -14.5870    0.3300 hc        1 88N      0.058667
     48 H141       -8.4470   -3.9760    0.3140 hc        1 88N      0.072000
     49 H142       -8.4470   -3.9750    2.0830 hc        1 88N      0.072000
     50 H191       -4.6000   -0.9290    2.0820 hc        1 88N      0.068500
     51 H192       -4.6000   -0.9290    0.3130 hc        1 88N      0.068500
     52 H16        -6.4460   -2.6640    0.3830 hn        1 88N     -0.003000
     53 H29         3.6600    1.9760    0.3590 hc        1 88N      0.070000
     54 H201       -2.3490   -1.9520    2.0830 hc        1 88N      0.077000
     55 H202       -2.3480   -1.9530    0.3140 hc        1 88N      0.077000
     56 H151       -6.1950   -4.9990    0.3140 hx        1 88N      0.134000
     57 H152       -6.1950   -4.9980    2.0830 hx        1 88N      0.134000
     58 H5        -11.5600  -10.0980    4.3600 ha        1 88N      0.117000
     59 H6        -10.9290   -7.7730    4.0200 ha        1 88N      0.111000
     60 H162       -6.4740   -2.5100    1.8910 hn        1 88N     -0.003000
     61 H8         -9.2420   -8.7390    0.2100 ha        1 88N      0.140000
@<TRIPOS>BOND
     1    1    3 1   
     2    1    8 1   
     3    1   36 1   
     4    2    4 1   
     5    2    8 1   
     6    2   38 1   
     7    3    9 1   
     8    3   37 1   
     9    4    9 1   
    10    4   39 1   
    11    5    6 1   
    12    5   10 1   
    13    5   58 1   
    14    6   11 1   
    15    6   59 1   
    16    7   11 1   
    17    7   12 1   
    18    7   61 1   
    19    8   19 1   
    20    9   20 1   
    21   10   12 1   
    22   10   26 1   
    23   12   35 1   
    24   13   18 1   
    25   13   26 1   
    26   13   35 1   
    27   14   21 1   
    28   14   27 1   
    29   14   29 1   
    30   15   22 1   
    31   15   28 1   
    32   15   30 1   
    33   16   25 1   
    34   16   31 1   
    35   16   33 1   
    36   17   25 1   
    37   17   32 1   
    38   17   34 1   
    39   18   45 1   
    40   18   46 1   
    41   18   47 1   
    42   19   23 1   
    43   19   40 1   
    44   19   41 1   
    45   20   25 1   
    46   20   42 1   
    47   20   43 1   
    48   21   24 1   
    49   21   48 1   
    50   21   49 1   
    51   22   23 1   
    52   22   50 1   
    53   22   51 1   
    54   23   54 1   
    55   23   55 1   
    56   24   28 1   
    57   24   56 1   
    58   24   57 1   
    59   25   53 1   
    60   27   44 1   
    61   28   52 1   
    62   28   60 1   
@<TRIPOS>SUBSTRUCTURE
     1 88N         1 TEMP              0 ****  ****    0 ROOT
