@<TRIPOS>MOLECULE
88Q
   40    41     1     0     0
SMALL
bcc


@<TRIPOS>ATOM
      1 O5          0.1340   -0.5760   -0.0790 oh        1 88Q     -0.603800
      2 C11         1.4860   -0.1600   -0.0970 c3        1 88Q      0.097400
      3 C10         2.0390   -0.0540    1.3340 c3        1 88Q      0.088800
      4 C9          3.5600    0.1090    1.3170 c3        1 88Q     -0.073400
      5 C8          3.9570    1.4840    0.8280 c3        1 88Q     -0.108400
      6 O4          1.7670   -1.2430    2.0660 oh        1 88Q     -0.594800
      7 C12         1.4060    1.1320    2.0840 c3        1 88Q      0.102400
      8 O6          1.8010    2.3800    1.5350 os        1 88Q     -0.408600
      9 C7          3.2180    2.5790    1.5870 c3        1 88Q      0.145100
     10 C5          3.5070    3.9650    0.9920 c3        1 88Q      0.145100
     11 O3          3.1080    3.9310   -0.3820 os        1 88Q     -0.408600
     12 C6          3.3520    5.1600   -1.0510 c3        1 88Q      0.102400
     13 C4          2.7710    5.0610    1.7520 c3        1 88Q     -0.108400
     14 C3          2.9370    6.4060    1.0820 c3        1 88Q     -0.073400
     15 C2          2.5860    6.3290   -0.4060 c3        1 88Q      0.088800
     16 O2          3.0420    7.5420   -0.9930 oh        1 88Q     -0.594800
     17 C1          1.0690    6.1690   -0.6010 c3        1 88Q      0.097400
     18 O1          0.7180    6.3660   -1.9570 oh        1 88Q     -0.603800
     19 H5         -0.4000    0.1890    0.1690 ho        1 88Q      0.403000
     20 H111        1.6050    0.8230   -0.6210 h1        1 88Q      0.068700
     21 H112        2.0240   -0.9720   -0.6560 h1        1 88Q      0.068700
     22 H91C        4.0110   -0.6790    0.6620 hc        1 88Q      0.059200
     23 H92C        3.9430   -0.0600    2.3580 hc        1 88Q      0.059200
     24 H4          0.8890   -1.5480    1.7960 ho        1 88Q      0.418000
     25 H121        0.2890    1.1260    1.9800 h1        1 88Q      0.054700
     26 H122        1.6850    1.0760    3.1690 h1        1 88Q      0.054700
     27 H81C        3.7260    1.5840   -0.2660 hc        1 88Q      0.061700
     28 H82C        5.0600    1.6270    0.9600 hc        1 88Q      0.061700
     29 H7          3.5390    2.5860    2.6680 h1        1 88Q      0.044700
     30 HA          4.6200    4.1420    1.0370 h1        1 88Q      0.044700
     31 H41C        1.6830    4.7910    1.8110 hc        1 88Q      0.061700
     32 H42C        3.1670    5.1100    2.7990 hc        1 88Q      0.061700
     33 H61C        3.0000    4.9770   -2.1000 h1        1 88Q      0.054700
     34 H62C        4.4490    5.3930   -1.0550 h1        1 88Q      0.054700
     35 H31C        3.9970    6.7610    1.1750 hc        1 88Q      0.059200
     36 H32C        2.2830    7.1680    1.5790 hc        1 88Q      0.059200
     37 H2          2.5380    7.6690   -1.8080 ho        1 88Q      0.418000
     38 H11C        0.5240    6.9800   -0.0470 h1        1 88Q      0.068700
     39 H12C        0.7470    5.1600   -0.2370 h1        1 88Q      0.068700
     40 H1          0.9570    5.5640   -2.4360 ho        1 88Q      0.403000
@<TRIPOS>BOND
     1    1    2 1   
     2    1   19 1   
     3    2    3 1   
     4    2   20 1   
     5    2   21 1   
     6    3    4 1   
     7    3    6 1   
     8    3    7 1   
     9    4    5 1   
    10    4   22 1   
    11    4   23 1   
    12    5    9 1   
    13    5   27 1   
    14    5   28 1   
    15    6   24 1   
    16    7    8 1   
    17    7   25 1   
    18    7   26 1   
    19    8    9 1   
    20    9   10 1   
    21    9   29 1   
    22   10   11 1   
    23   10   13 1   
    24   10   30 1   
    25   11   12 1   
    26   12   15 1   
    27   12   33 1   
    28   12   34 1   
    29   13   14 1   
    30   13   31 1   
    31   13   32 1   
    32   14   15 1   
    33   14   35 1   
    34   14   36 1   
    35   15   16 1   
    36   15   17 1   
    37   16   37 1   
    38   17   18 1   
    39   17   38 1   
    40   17   39 1   
    41   18   40 1   
@<TRIPOS>SUBSTRUCTURE
     1 88Q         1 TEMP              0 ****  ****    0 ROOT
