@<TRIPOS>MOLECULE
88Q
   40    41     1     0     0
SMALL
bcc


@<TRIPOS>ATOM
      1 O5         -4.5520   -0.1840   -2.5320 oh        1 88Q     -0.612300
      2 C11        -3.2940   -0.8050   -2.4700 c3        1 88Q      0.100900
      3 C10        -2.7840   -0.7780   -1.0290 c3        1 88Q      0.126300
      4 C9         -1.7690   -1.8400   -0.8600 c3        1 88Q     -0.071900
      5 C8         -1.1030   -1.7680    0.4380 c3        1 88Q     -0.102400
      6 O4         -3.8800   -1.0390   -0.1420 oh        1 88Q     -0.591300
      7 C12        -2.2310    0.5970   -0.7310 c3        1 88Q      0.101900
      8 O6         -1.5650    0.6600    0.5570 os        1 88Q     -0.398100
      9 C7         -0.5570   -0.3900    0.7290 c3        1 88Q      0.110600
     10 C5          0.5800   -0.1200   -0.1890 c3        1 88Q      0.110600
     11 O3          0.7930    1.3270   -0.2660 os        1 88Q     -0.398100
     12 C6          1.3050    1.8930    0.9840 c3        1 88Q      0.101900
     13 C4          1.8060   -0.8630    0.3150 c3        1 88Q     -0.102400
     14 C3          2.3240   -0.3010    1.5770 c3        1 88Q     -0.071900
     15 C2          2.5370    1.1560    1.4950 c3        1 88Q      0.126300
     16 O2          2.8700    1.6560    2.8080 oh        1 88Q     -0.591300
     17 C1          3.7330    1.4380    0.5260 c3        1 88Q      0.100900
     18 O1          4.2680    2.7410    0.7950 oh        1 88Q     -0.612300
     19 H5         -4.9850   -0.4630   -3.2590 ho        1 88Q      0.408500
     20 H111       -3.3720   -1.7380   -2.7730 h1        1 88Q      0.037450
     21 H112       -2.6660   -0.3260   -3.0470 h1        1 88Q      0.037450
     22 H91C       -1.0930   -1.7510   -1.5720 hc        1 88Q      0.055950
     23 H92C       -2.2080   -2.7150   -0.9440 hc        1 88Q      0.055950
     24 H4         -4.4500   -1.5950   -0.5320 ho        1 88Q      0.419500
     25 H121       -1.5850    0.8410   -1.4370 h1        1 88Q      0.068950
     26 H122       -2.9690    1.2440   -0.7380 h1        1 88Q      0.068950
     27 H81C       -1.7440   -2.0100    1.1370 hc        1 88Q      0.055200
     28 H82C       -0.3590   -2.4140    0.4500 hc        1 88Q      0.055200
     29 H7         -0.2300   -0.3670    1.6530 h1        1 88Q      0.074700
     30 HA          0.3540   -0.4520   -1.0750 h1        1 88Q      0.074700
     31 H41C        1.5690   -1.8070    0.4600 hc        1 88Q      0.055200
     32 H42C        2.5000   -0.8140   -0.3580 hc        1 88Q      0.055200
     33 H61C        0.5980    1.8460    1.6700 h1        1 88Q      0.068950
     34 H62C        1.5350    2.8210    0.8350 h1        1 88Q      0.068950
     35 H31C        1.6790   -0.4880    2.2980 hc        1 88Q      0.055950
     36 H32C        3.1710   -0.7330    1.7910 hc        1 88Q      0.055950
     37 H2          2.8730    2.5510    2.7940 ho        1 88Q      0.419500
     38 H11C        3.4130    1.3990   -0.4170 h1        1 88Q      0.037450
     39 H12C        4.4240    0.7700    0.6620 h1        1 88Q      0.037450
     40 H1          5.0650    2.8230    0.4000 ho        1 88Q      0.408500
@<TRIPOS>BOND
     1    1    2 1   
     2    1   19 1   
     3    2    3 1   
     4    2   20 1   
     5    2   21 1   
     6    3    4 1   
     7    3    6 1   
     8    3    7 1   
     9    4    5 1   
    10    4   22 1   
    11    4   23 1   
    12    5    9 1   
    13    5   27 1   
    14    5   28 1   
    15    6   24 1   
    16    7    8 1   
    17    7   25 1   
    18    7   26 1   
    19    8    9 1   
    20    9   10 1   
    21    9   29 1   
    22   10   11 1   
    23   10   13 1   
    24   10   30 1   
    25   11   12 1   
    26   12   15 1   
    27   12   33 1   
    28   12   34 1   
    29   13   14 1   
    30   13   31 1   
    31   13   32 1   
    32   14   15 1   
    33   14   35 1   
    34   14   36 1   
    35   15   16 1   
    36   15   17 1   
    37   16   37 1   
    38   17   18 1   
    39   17   38 1   
    40   17   39 1   
    41   18   40 1   
@<TRIPOS>SUBSTRUCTURE
     1 88Q         1 TEMP              0 ****  ****    0 ROOT
