@<TRIPOS>MOLECULE
88Q
   40    41     1     0     0
SMALL
bcc


@<TRIPOS>ATOM
      1 O5          0.1000   -0.6000    0.1600 oh        1 88Q     -0.618800
      2 C11         1.4540   -0.2030   -0.0070 c3        1 88Q      0.099400
      3 C10         2.0490   -0.0560    1.4020 c3        1 88Q      0.127800
      4 C9          3.5690    0.1130    1.3340 c3        1 88Q     -0.075400
      5 C8          3.9450    1.4830    0.8170 c3        1 88Q     -0.107400
      6 O4          1.8170   -1.2330    2.1660 oh        1 88Q     -0.595800
      7 C12         1.4130    1.1450    2.1230 c3        1 88Q      0.102400
      8 O6          1.8110    2.3880    1.5630 os        1 88Q     -0.404600
      9 C7          3.2280    2.5800    1.5920 c3        1 88Q      0.144100
     10 C5          3.5160    3.9670    0.9970 c3        1 88Q      0.144100
     11 O3          3.1360    3.9280   -0.3820 os        1 88Q     -0.404600
     12 C6          3.3880    5.1520   -1.0570 c3        1 88Q      0.102400
     13 C4          2.7600    5.0600    1.7420 c3        1 88Q     -0.107400
     14 C3          2.9550    6.4060    1.0830 c3        1 88Q     -0.075400
     15 C2          2.6490    6.3390   -0.4160 c3        1 88Q      0.127800
     16 O2          3.1450    7.5510   -0.9730 oh        1 88Q     -0.595800
     17 C1          1.1370    6.2160   -0.6580 c3        1 88Q      0.099400
     18 O1          0.9280    6.4110   -2.0490 oh        1 88Q     -0.618800
     19 H5         -0.2820   -0.6550   -0.7230 ho        1 88Q      0.411000
     20 H111        1.5110    0.7810   -0.5430 h1        1 88Q      0.045700
     21 H112        2.0100   -0.9910   -0.5810 h1        1 88Q      0.045700
     22 H91C        3.9830   -0.0410    2.3650 hc        1 88Q      0.059200
     23 H92C        4.0040   -0.6820    0.6750 hc        1 88Q      0.059200
     24 H4          0.8740   -1.4320    2.0950 ho        1 88Q      0.420000
     25 H121        1.6800    1.1070    3.2120 h1        1 88Q      0.061200
     26 H122        0.2980    1.1310    1.9930 h1        1 88Q      0.061200
     27 H81C        5.0520    1.6310    0.9080 hc        1 88Q      0.061700
     28 H82C        3.6750    1.5730   -0.2690 hc        1 88Q      0.061700
     29 H7          3.5690    2.5830    2.6670 h1        1 88Q      0.041700
     30 HA          4.6270    4.1520    1.0590 h1        1 88Q      0.041700
     31 H41C        1.6690    4.7940    1.7620 hc        1 88Q      0.061700
     32 H42C        3.1220    5.1010    2.8010 hc        1 88Q      0.061700
     33 H61C        4.4890    5.3660   -1.0740 h1        1 88Q      0.061200
     34 H62C        3.0080    4.9730   -2.0980 h1        1 88Q      0.061200
     35 H31C        2.2950    7.1720    1.5650 hc        1 88Q      0.059200
     36 H32C        4.0160    6.7500    1.2060 hc        1 88Q      0.059200
     37 H2          2.8310    7.5880   -1.8870 ho        1 88Q      0.420000
     38 H11C        0.5870    7.0040   -0.0790 h1        1 88Q      0.045700
     39 H12C        0.7900    5.1940   -0.3490 h1        1 88Q      0.045700
     40 H1         -0.0160    6.2950   -2.2050 ho        1 88Q      0.411000
@<TRIPOS>BOND
     1    1    2 1   
     2    1   19 1   
     3    2    3 1   
     4    2   20 1   
     5    2   21 1   
     6    3    4 1   
     7    3    6 1   
     8    3    7 1   
     9    4    5 1   
    10    4   22 1   
    11    4   23 1   
    12    5    9 1   
    13    5   27 1   
    14    5   28 1   
    15    6   24 1   
    16    7    8 1   
    17    7   25 1   
    18    7   26 1   
    19    8    9 1   
    20    9   10 1   
    21    9   29 1   
    22   10   11 1   
    23   10   13 1   
    24   10   30 1   
    25   11   12 1   
    26   12   15 1   
    27   12   33 1   
    28   12   34 1   
    29   13   14 1   
    30   13   31 1   
    31   13   32 1   
    32   14   15 1   
    33   14   35 1   
    34   14   36 1   
    35   15   16 1   
    36   15   17 1   
    37   16   37 1   
    38   17   18 1   
    39   17   38 1   
    40   17   39 1   
    41   18   40 1   
@<TRIPOS>SUBSTRUCTURE
     1 88Q         1 TEMP              0 ****  ****    0 ROOT
