@<TRIPOS>MOLECULE
88Q
   40    41     1     0     0
SMALL
bcc


@<TRIPOS>ATOM
      1 O5         -3.6970    2.3140    0.1260 oh        1 88Q     -0.618800
      2 C11        -3.1480    1.3170   -0.7230 c3        1 88Q      0.099400
      3 C10        -3.3370   -0.0290   -0.0060 c3        1 88Q      0.127800
      4 C9         -3.0180   -1.1940   -0.9460 c3        1 88Q     -0.075400
      5 C8         -1.5310   -1.3100   -1.1910 c3        1 88Q     -0.107400
      6 O4         -4.6950   -0.1980    0.3840 oh        1 88Q     -0.595800
      7 C12        -2.4430   -0.0950    1.2440 c3        1 88Q      0.102400
      8 O6         -1.0640   -0.1880    0.9200 os        1 88Q     -0.404600
      9 C7         -0.7580   -1.3350    0.1220 c3        1 88Q      0.144100
     10 C5          0.7590   -1.3340   -0.1220 c3        1 88Q      0.144100
     11 O3          1.0650   -0.1870   -0.9200 os        1 88Q     -0.404600
     12 C6          2.4430   -0.0930   -1.2440 c3        1 88Q      0.102400
     13 C4          1.5320   -1.3090    1.1900 c3        1 88Q     -0.107400
     14 C3          3.0200   -1.1930    0.9460 c3        1 88Q     -0.075400
     15 C2          3.3380   -0.0280    0.0060 c3        1 88Q      0.127800
     16 O2          4.6950   -0.1960   -0.3850 oh        1 88Q     -0.595800
     17 C1          3.1480    1.3180    0.7240 c3        1 88Q      0.099400
     18 O1          3.6970    2.3160   -0.1250 oh        1 88Q     -0.618800
     19 H5         -3.5430    3.1610   -0.3070 ho        1 88Q      0.411000
     20 H111       -3.6940    1.3130   -1.7030 h1        1 88Q      0.045700
     21 H112       -2.0540    1.5020   -0.8890 h1        1 88Q      0.045700
     22 H91C       -3.4110   -2.1360   -0.4790 hc        1 88Q      0.059200
     23 H92C       -3.5600   -1.0500   -1.9160 hc        1 88Q      0.059200
     24 H4         -4.9530    0.6040    0.8580 ho        1 88Q      0.420000
     25 H121       -2.5230    0.8590    1.8300 h1        1 88Q      0.061200
     26 H122       -2.7530   -0.9690    1.8760 h1        1 88Q      0.061200
     27 H81C       -1.3140   -2.2470   -1.7640 hc        1 88Q      0.061700
     28 H82C       -1.1730   -0.4410   -1.8040 hc        1 88Q      0.061700
     29 H7         -1.0190   -2.2620    0.7090 h1        1 88Q      0.041700
     30 HA          1.0200   -2.2610   -0.7090 h1        1 88Q      0.041700
     31 H41C        1.1730   -0.4410    1.8040 hc        1 88Q      0.061700
     32 H42C        1.3150   -2.2470    1.7630 hc        1 88Q      0.061700
     33 H61C        2.7540   -0.9670   -1.8760 h1        1 88Q      0.061200
     34 H62C        2.5230    0.8620   -1.8300 h1        1 88Q      0.061200
     35 H31C        3.5610   -1.0490    1.9160 hc        1 88Q      0.059200
     36 H32C        3.4120   -2.1340    0.4780 hc        1 88Q      0.059200
     37 H2          4.9530    0.6070   -0.8580 ho        1 88Q      0.420000
     38 H11C        2.0540    1.5030    0.8900 h1        1 88Q      0.045700
     39 H12C        3.6940    1.3140    1.7040 h1        1 88Q      0.045700
     40 H1          3.5420    3.1630    0.3080 ho        1 88Q      0.411000
@<TRIPOS>BOND
     1    1    2 1   
     2    1   19 1   
     3    2    3 1   
     4    2   20 1   
     5    2   21 1   
     6    3    4 1   
     7    3    6 1   
     8    3    7 1   
     9    4    5 1   
    10    4   22 1   
    11    4   23 1   
    12    5    9 1   
    13    5   27 1   
    14    5   28 1   
    15    6   24 1   
    16    7    8 1   
    17    7   25 1   
    18    7   26 1   
    19    8    9 1   
    20    9   10 1   
    21    9   29 1   
    22   10   11 1   
    23   10   13 1   
    24   10   30 1   
    25   11   12 1   
    26   12   15 1   
    27   12   33 1   
    28   12   34 1   
    29   13   14 1   
    30   13   31 1   
    31   13   32 1   
    32   14   15 1   
    33   14   35 1   
    34   14   36 1   
    35   15   16 1   
    36   15   17 1   
    37   16   37 1   
    38   17   18 1   
    39   17   38 1   
    40   17   39 1   
    41   18   40 1   
@<TRIPOS>SUBSTRUCTURE
     1 88Q         1 TEMP              0 ****  ****    0 ROOT
