@<TRIPOS>MOLECULE
88R
   30    28     1     0     0
SMALL
bcc


@<TRIPOS>ATOM
      1 C1         -2.5720    1.1320   -3.4190 c3        1 88R     -0.067000
      2 O2         -1.7780   -0.0330   -3.0030 os        1 88R     -0.225000
      3 C3         -1.1820    0.1100   -1.6950 c2        1 88R     -0.032000
      4 C4         -1.9890    0.0440   -0.5520 c2        1 88R     -0.132000
      5 C5         -1.4120    0.0200    0.6970 c1        1 88R     -0.135000
      6 C6         -0.0200    0.0620    0.8240 c1        1 88R      0.020000
      7 C7          0.7860    0.1270   -0.3210 c1        1 88R     -0.205000
      8 C8          0.2140    0.1510   -1.5650 c1        1 88R      0.021000
      9 O9          1.0430    0.0310   -2.7190 os        1 88R     -0.238000
     10 C10         1.6580    1.2150   -3.0930 c3        1 88R     -0.067000
     11 C11         0.6180    0.1520    2.1940 c3        1 88R     -0.119000
     12 C12         1.0080   -1.3250    2.6970 c3        1 88R     -0.197000
     13 C13         2.3240   -1.2740    3.4340 c2        1 88R      0.347000
     14 O14         2.4510   -0.5250    4.4520 o         1 88R     -0.614750
     15 O15         3.2900   -1.9840    3.0500 o         1 88R     -0.614750
     16 C16        -0.0490   -1.8350    3.6170 c2        1 88R      0.347000
     17 O17        -0.2610   -1.2580    4.7060 o         1 88R     -0.614750
     18 O18        -0.7460   -2.8760    3.2900 o         1 88R     -0.614750
     19 H11C       -3.3380    1.2270   -2.8300 h1        1 88R      0.061667
     20 H12C       -2.8720    1.0120   -4.3110 h1        1 88R      0.061667
     21 H13C       -2.0280    1.9210   -3.3670 h1        1 88R      0.061667
     22 H4         -2.9390   -0.0260   -0.6420 ha        1 88R      0.122000
     23 H5         -1.9790    0.0040    1.5000 ha        1 88R      0.220000
     24 H7          1.8390    0.1140   -0.2280 ha        1 88R      0.133000
     25 H111        0.0030    0.5470    2.8070 hc        1 88R      0.098500
     26 H112        1.4260    0.7040    2.1410 hc        1 88R      0.098500
     27 H101        2.0910    1.6190   -2.3160 h1        1 88R      0.070000
     28 H102        2.3540    1.0230   -3.8070 h1        1 88R      0.070000
     29 H103        0.9720    1.8470   -3.4560 h1        1 88R      0.070000
     30 H12         1.0880   -1.9250    1.9180 hc        1 88R      0.074000
@<TRIPOS>BOND
     1    1    2 1   
     2    1   19 1   
     3    1   20 1   
     4    1   21 1   
     5    2    3 1   
     6    3    4 1   
     7    3    8 1   
     8    4    5 1   
     9    4   22 1   
    10    5   23 1   
    11    6    7 1   
    12    6   11 1   
    13    7   24 1   
    14    8    9 1   
    15    9   10 1   
    16   10   27 1   
    17   10   28 1   
    18   10   29 1   
    19   11   12 1   
    20   11   25 1   
    21   11   26 1   
    22   12   13 1   
    23   12   16 1   
    24   12   30 1   
    25   13   14 1   
    26   13   15 1   
    27   16   17 1   
    28   16   18 1   
@<TRIPOS>SUBSTRUCTURE
     1 88R         1 TEMP              0 ****  ****    0 ROOT
