@<TRIPOS>MOLECULE
88R
   30    30     1     0     0
SMALL
bcc


@<TRIPOS>ATOM
      1 C1          0.9340   -0.3330   -0.5700 c3        1 88R      0.121700
      2 O2          1.0290    0.7500    0.3480 os        1 88R     -0.344900
      3 C3          1.7900    0.4450    1.4750 ca        1 88R      0.009100
      4 C4          1.1390    0.3470    2.7150 ca        1 88R     -0.128000
      5 C5          1.8720    0.1430    3.8730 ca        1 88R     -0.139000
      6 C6          3.2750    0.0310    3.8250 ca        1 88R      0.014700
      7 C7          3.9260    0.1210    2.5900 ca        1 88R     -0.211000
      8 C8          3.1900    0.3220    1.4160 ca        1 88R      0.071100
      9 O9          3.7650    0.4200    0.1510 os        1 88R     -0.348900
     10 C10         5.1110   -0.0240    0.0650 c3        1 88R      0.118700
     11 C11         4.0480   -0.1640    5.0810 c3        1 88R     -0.033100
     12 C12         3.8970   -1.5600    5.6790 c3        1 88R     -0.257700
     13 C13         5.1990   -1.8770    6.4470 c         1 88R      0.927600
     14 O14         5.6680   -1.0460    7.2830 o         1 88R     -0.879800
     15 O15         5.8290   -2.9360    6.1390 o         1 88R     -0.879800
     16 C16         2.6040   -1.6810    6.5030 c         1 88R      0.927600
     17 O17         1.9490   -0.6310    6.8160 o         1 88R     -0.879800
     18 O18         2.1520   -2.8300    6.7830 o         1 88R     -0.879800
     19 H11C        1.9480   -0.6200   -0.9420 h1        1 88R      0.024033
     20 H12C        0.4370   -1.2110   -0.0910 h1        1 88R      0.024033
     21 H13C        0.3060    0.0670   -1.4040 h1        1 88R      0.024033
     22 H4          0.0440    0.4360    2.7480 ha        1 88R      0.121000
     23 H5          1.3880    0.0280    4.8690 ha        1 88R      0.218000
     24 H7          5.0200    0.0170    2.5550 ha        1 88R      0.134000
     25 H111        5.1340    0.0420    4.8880 hc        1 88R      0.058700
     26 H112        3.6870    0.5680    5.8570 hc        1 88R      0.058700
     27 H101        5.2310   -1.0450    0.5020 h1        1 88R      0.031367
     28 H102        5.3200   -0.0360   -1.0340 h1        1 88R      0.031367
     29 H103        5.7920    0.6980    0.5810 h1        1 88R      0.031367
     30 H12         3.8180   -2.3190    4.8540 hc        1 88R      0.033700
@<TRIPOS>BOND
     1    1    2 1   
     2    1   19 1   
     3    1   20 1   
     4    1   21 1   
     5    2    3 1   
     6    3    4 ar  
     7    3    8 ar  
     8    4    5 ar  
     9    4   22 1   
    10    5    6 ar  
    11    5   23 1   
    12    6    7 ar  
    13    6   11 1   
    14    7    8 ar  
    15    7   24 1   
    16    8    9 1   
    17    9   10 1   
    18   10   27 1   
    19   10   28 1   
    20   10   29 1   
    21   11   12 1   
    22   11   25 1   
    23   11   26 1   
    24   12   13 1   
    25   12   16 1   
    26   12   30 1   
    27   13   14 1   
    28   13   15 1   
    29   16   17 1   
    30   16   18 1   
@<TRIPOS>SUBSTRUCTURE
     1 88R         1 TEMP              0 ****  ****    0 ROOT
