@<TRIPOS>MOLECULE
88R
   30    30     1     0     0
SMALL
bcc


@<TRIPOS>ATOM
      1 C1         -4.6500    1.0830    0.5730 c3        1 88R      0.121700
      2 O2         -4.0570    0.9940   -0.7180 os        1 88R     -0.344900
      3 C3         -2.7150    0.6230   -0.6760 ca        1 88R      0.009100
      4 C4         -1.7480    1.5710   -1.0510 ca        1 88R     -0.128000
      5 C5         -0.4100    1.2120   -1.1180 ca        1 88R     -0.139000
      6 C6         -0.0030   -0.1000   -0.8140 ca        1 88R      0.014700
      7 C7         -0.9620   -1.0450   -0.4340 ca        1 88R     -0.211000
      8 C8         -2.3140   -0.6870   -0.3590 ca        1 88R      0.071100
      9 O9         -3.3260   -1.5680    0.0120 os        1 88R     -0.348900
     10 C10        -2.8850   -2.7670    0.6330 c3        1 88R      0.118700
     11 C11         1.4340   -0.4730   -0.9140 c3        1 88R     -0.033100
     12 C12         2.2970    0.1170    0.1980 c3        1 88R     -0.257700
     13 C13         3.4770   -0.8520    0.4310 c         1 88R      0.927600
     14 O14         4.1720   -1.2620   -0.5470 o         1 88R     -0.879800
     15 O15         3.6560   -1.2990    1.6070 o         1 88R     -0.879800
     16 C16         2.6940    1.5700   -0.1110 c         1 88R      0.927600
     17 O17         2.5130    2.0430   -1.2820 o         1 88R     -0.879800
     18 O18         3.1090    2.3120    0.8280 o         1 88R     -0.879800
     19 H11C       -5.7090    1.3820    0.3690 h1        1 88R      0.024033
     20 H12C       -4.6110    0.0940    1.0900 h1        1 88R      0.024033
     21 H13C       -4.1350    1.8600    1.1880 h1        1 88R      0.024033
     22 H4         -2.0710    2.5940   -1.2880 ha        1 88R      0.121000
     23 H5          0.3870    1.9440   -1.3790 ha        1 88R      0.218000
     24 H7         -0.6370   -2.0630   -0.1820 ha        1 88R      0.134000
     25 H111        1.5330   -1.5910   -0.9070 hc        1 88R      0.058700
     26 H112        1.8490   -0.0930   -1.8900 hc        1 88R      0.058700
     27 H101       -3.8270   -3.2380    1.0090 h1        1 88R      0.031367
     28 H102       -2.3910   -3.4340   -0.1160 h1        1 88R      0.031367
     29 H103       -2.1850   -2.5530    1.4770 h1        1 88R      0.031367
     30 H12         1.7110    0.1460    1.1560 hc        1 88R      0.033700
@<TRIPOS>BOND
     1    1    2 1   
     2    1   19 1   
     3    1   20 1   
     4    1   21 1   
     5    2    3 1   
     6    3    4 ar  
     7    3    8 ar  
     8    4    5 ar  
     9    4   22 1   
    10    5    6 ar  
    11    5   23 1   
    12    6    7 ar  
    13    6   11 1   
    14    7    8 ar  
    15    7   24 1   
    16    8    9 1   
    17    9   10 1   
    18   10   27 1   
    19   10   28 1   
    20   10   29 1   
    21   11   12 1   
    22   11   25 1   
    23   11   26 1   
    24   12   13 1   
    25   12   16 1   
    26   12   30 1   
    27   13   14 1   
    28   13   15 1   
    29   16   17 1   
    30   16   18 1   
@<TRIPOS>SUBSTRUCTURE
     1 88R         1 TEMP              0 ****  ****    0 ROOT
