@<TRIPOS>MOLECULE
88R
   30    30     1     0     0
SMALL
bcc


@<TRIPOS>ATOM
      1 C1          0.9690   -0.3950   -0.5940 c3        1 88R      0.121700
      2 O2          1.0490    0.7010    0.3110 os        1 88R     -0.344900
      3 C3          1.8000    0.4150    1.4490 ca        1 88R      0.009100
      4 C4          1.1370    0.3320    2.6830 ca        1 88R     -0.128000
      5 C5          1.8610    0.1480    3.8520 ca        1 88R     -0.139000
      6 C6          3.2640    0.0430    3.8180 ca        1 88R      0.014700
      7 C7          3.9270    0.1190    2.5890 ca        1 88R     -0.211000
      8 C8          3.2010    0.3000    1.4050 ca        1 88R      0.071100
      9 O9          3.7880    0.3840    0.1450 os        1 88R     -0.348900
     10 C10         5.1380   -0.0530    0.0790 c3        1 88R      0.118700
     11 C11         4.0260   -0.1310    5.0850 c3        1 88R     -0.033100
     12 C12         3.8760   -1.5190    5.7010 c3        1 88R     -0.257700
     13 C13         5.1720   -1.8180    6.4860 c         1 88R      0.927600
     14 O14         5.6290   -0.9740    7.3140 o         1 88R     -0.879800
     15 O15         5.8100   -2.8780    6.1990 o         1 88R     -0.879800
     16 C16         2.5760   -1.6350    6.5140 c         1 88R      0.927600
     17 O17         1.9130   -0.5840    6.8060 o         1 88R     -0.879800
     18 O18         2.1270   -2.7830    6.8050 o         1 88R     -0.879800
     19 H11C        1.9880   -0.6810   -0.9510 h1        1 88R      0.024033
     20 H12C        0.4720   -1.2690   -0.1070 h1        1 88R      0.024033
     21 H13C        0.3470   -0.0090   -1.4390 h1        1 88R      0.024033
     22 H4          0.0420    0.4150    2.7050 ha        1 88R      0.121000
     23 H5          1.3670    0.0440    4.8450 ha        1 88R      0.218000
     24 H7          5.0210    0.0210    2.5670 ha        1 88R      0.134000
     25 H111        5.1130    0.0780    4.9000 hc        1 88R      0.058700
     26 H112        3.6530    0.6100    5.8470 hc        1 88R      0.058700
     27 H101        5.2590   -1.0670    0.5300 h1        1 88R      0.031367
     28 H102        5.3580   -0.0790   -1.0180 h1        1 88R      0.031367
     29 H103        5.8090    0.6790    0.5910 h1        1 88R      0.031367
     30 H12         3.8090   -2.2900    4.8860 hc        1 88R      0.033700
@<TRIPOS>BOND
     1    1    2 1   
     2    1   19 1   
     3    1   20 1   
     4    1   21 1   
     5    2    3 1   
     6    3    4 ar  
     7    3    8 ar  
     8    4    5 ar  
     9    4   22 1   
    10    5    6 ar  
    11    5   23 1   
    12    6    7 ar  
    13    6   11 1   
    14    7    8 ar  
    15    7   24 1   
    16    8    9 1   
    17    9   10 1   
    18   10   27 1   
    19   10   28 1   
    20   10   29 1   
    21   11   12 1   
    22   11   25 1   
    23   11   26 1   
    24   12   13 1   
    25   12   16 1   
    26   12   30 1   
    27   13   14 1   
    28   13   15 1   
    29   16   17 1   
    30   16   18 1   
@<TRIPOS>SUBSTRUCTURE
     1 88R         1 TEMP              0 ****  ****    0 ROOT
