@<TRIPOS>MOLECULE
88S
   33    34     1     0     0
SMALL
bcc


@<TRIPOS>ATOM
      1 C5          1.9360    1.1470    1.5240 ca        1 88S     -0.052000
      2 C6          0.6260    1.0750    1.1010 ca        1 88S     -0.176000
      3 C8          1.2760   -0.1370   -0.9200 ca        1 88S     -0.132000
      4 C4          2.9540    0.5760    0.7350 ca        1 88S      0.052400
      5 C7          0.2690    0.4340   -0.1260 ca        1 88S      0.081600
      6 C9          2.6010   -0.0680   -0.4960 ca        1 88S     -0.057100
      7 C2          4.9830   -0.0540    0.0690 cc        1 88S      0.362200
      8 C12        -1.6710   -0.2220   -1.5580 c         1 88S      0.663100
      9 C17        -4.7170    0.9190    0.9710 c         1 88S      0.754100
     10 C1          6.4460   -0.2630    0.0240 c3        1 88S     -0.117400
     11 C14        -3.1790   -0.0620   -1.6910 c3        1 88S     -0.168400
     12 C15        -3.9230   -0.8070   -0.5770 c3        1 88S      0.104000
     13 N3          4.3250    0.5690    1.0320 nd        1 88S     -0.521100
     14 N19        -5.7500    1.4720    1.7320 n         1 88S     -0.649000
     15 N11        -1.0880    0.4210   -0.4790 n         1 88S     -0.467100
     16 N16        -5.0080   -0.0510    0.0000 n         1 88S     -0.569900
     17 O13        -1.0340   -0.8800   -2.4020 o         1 88S     -0.599100
     18 O18        -3.5320    1.2950    1.1720 o         1 88S     -0.670100
     19 S10         4.0000   -0.6610   -1.2380 ss        1 88S     -0.055100
     20 H5          2.1920    1.6440    2.4720 ha        1 88S      0.150000
     21 H6         -0.1620    1.5240    1.7280 ha        1 88S      0.144000
     22 H8          1.0360   -0.6390   -1.8720 ha        1 88S      0.179000
     23 H11        -1.7070    0.8880    0.1570 hn        1 88S      0.353500
     24 H11C        6.7840   -0.8550    0.9130 hc        1 88S      0.060033
     25 H12C        6.7270   -0.8190   -0.9040 hc        1 88S      0.060033
     26 H13C        6.9830    0.7190    0.0320 hc        1 88S      0.060033
     27 H141       -3.4300    1.0320   -1.6950 hc        1 88S      0.082700
     28 H142       -3.4750   -0.4820   -2.6880 hc        1 88S      0.082700
     29 H191       -6.6830    1.4260    1.4070 hn        1 88S      0.308500
     30 H192       -5.4970    2.2750    2.2600 hn        1 88S      0.308500
     31 H16        -5.8980   -0.4880    0.0090 hn        1 88S      0.309500
     32 H151       -4.3570   -1.7540   -1.0070 h1        1 88S      0.058700
     33 H152       -3.1970   -1.1010    0.2360 h1        1 88S      0.058700
@<TRIPOS>BOND
     1    1    2 ar  
     2    1    4 ar  
     3    1   20 1   
     4    2    5 ar  
     5    2   21 1   
     6    3    5 ar  
     7    3    6 ar  
     8    3   22 1   
     9    4    6 ar  
    10    4   13 1   
    11    5   15 1   
    12    6   19 1   
    13    7   10 1   
    14    7   13 2   
    15    7   19 1   
    16    8   11 1   
    17    8   15 1   
    18    8   17 2   
    19    9   14 1   
    20    9   16 1   
    21    9   18 2   
    22   10   24 1   
    23   10   25 1   
    24   10   26 1   
    25   11   12 1   
    26   11   27 1   
    27   11   28 1   
    28   12   16 1   
    29   12   32 1   
    30   12   33 1   
    31   14   29 1   
    32   14   30 1   
    33   15   23 1   
    34   16   31 1   
@<TRIPOS>SUBSTRUCTURE
     1 88S         1 TEMP              0 ****  ****    0 ROOT
