@<TRIPOS>MOLECULE
88S
   33    26     1     0     0
SMALL
bcc


@<TRIPOS>ATOM
      1 C5         -3.2830    1.1750   -0.4470 c1        1 88S     -0.102500
      2 C6         -1.8880    1.2930   -0.3640 c1        1 88S     -0.159000
      3 C8         -1.8270   -0.5180    1.2640 c1        1 88S     -0.102500
      4 C4         -3.9480    0.2210    0.3160 c1        1 88S     -0.182000
      5 C7         -1.1590    0.4460    0.4920 c1        1 88S      0.094000
      6 C9         -3.2100   -0.6370    1.1840 c1        1 88S     -0.182000
      7 C2         -5.6100   -1.2840    1.2920 c1        1 88S     -0.218000
      8 C12         1.2260    0.5710   -0.2480 c1        1 88S      0.312000
      9 C17         5.8690    0.1030   -1.9520 c1        1 88S      0.365000
     10 C1         -6.9310   -1.8160    1.8050 c2        1 88S     -0.160000
     11 C14         2.7270    0.5540    0.0850 c2        1 88S     -0.221000
     12 C15         3.5230    0.1220   -1.1550 c3        1 88S     -0.035000
     13 N3         -5.4800   -0.1930    0.3860 n1        1 88S     -0.092000
     14 N19         7.2270    0.4780   -1.7650 n2        1 88S     -0.402000
     15 N11         0.2540    0.4660    0.8080 n3        1 88S     -0.323000
     16 N16         4.9340    0.2750   -0.8990 n3        1 88S     -0.348000
     17 O13         0.8620    0.6430   -1.4020 o         1 88S     -0.355000
     18 O18         5.5150   -0.3910   -3.0000 o         1 88S     -0.425000
     19 S10        -4.2060   -1.6190    1.8360 s         1 88S      0.376000
     20 H5         -3.7880    1.7630   -1.0420 ha        1 88S      0.151000
     21 H6         -1.4240    1.9610   -0.9000 ha        1 88S      0.176000
     22 H8         -1.3210   -1.1050    1.8580 ha        1 88S      0.151000
     23 H11         0.5250    0.4340    1.6710 hn        1 88S      0.264000
     24 H11C       -7.4520   -1.0840    2.1780 ha        1 88S      0.100000
     25 H12C       -7.4290   -2.2280    1.0630 ha        1 88S      0.100000
     26 H13C       -6.7650   -2.4860    2.4990 ha        1 88S      0.100000
     27 H141        2.8920   -0.0740    0.8100 ha        1 88S      0.118500
     28 H142        3.0100    1.4480    0.3580 ha        1 88S      0.118500
     29 H191        7.8360    0.3370   -2.4340 hn        1 88S      0.221500
     30 H192        7.4970    0.8430   -0.9680 hn        1 88S      0.221500
     31 H16         5.2270    0.4440   -0.0550 hn        1 88S      0.210000
     32 H151        3.2690    0.6790   -1.9170 h1        1 88S      0.115000
     33 H152        3.3270   -0.8230   -1.3590 h1        1 88S      0.115000
@<TRIPOS>BOND
     1    1    4 1   
     2    1   20 1   
     3    2    5 1   
     4    2   21 1   
     5    3    6 1   
     6    3   22 1   
     7    5   15 1   
     8    7   13 1   
     9    7   19 1   
    10    8   15 1   
    11    8   17 1   
    12    9   16 1   
    13    9   18 1   
    14   10   24 1   
    15   10   25 1   
    16   10   26 1   
    17   11   12 1   
    18   11   27 1   
    19   11   28 1   
    20   12   16 1   
    21   12   32 1   
    22   12   33 1   
    23   14   29 1   
    24   14   30 1   
    25   15   23 1   
    26   16   31 1   
@<TRIPOS>SUBSTRUCTURE
     1 88S         1 TEMP              0 ****  ****    0 ROOT
