@<TRIPOS>MOLECULE
88S
   35    36     1     0     0
SMALL
bcc


@<TRIPOS>ATOM
      1 C5          0.0000    0.0000    0.0000 ca        1 88S      0.026000
      2 C6          1.3620    0.0000    0.0000 ca        1 88S     -0.119000
      3 C8          1.3940    0.0010    2.4030 ca        1 88S      0.018000
      4 C4         -0.7160   -0.0000    1.2140 ca        1 88S      0.097400
      5 C7          2.0720    0.0000    1.1980 ca        1 88S     -0.135400
      6 C9          0.0010   -0.0000    2.4160 ca        1 88S     -0.057100
      7 C2         -2.4590   -0.0010    2.6370 cc        1 88S      0.422200
      8 C12         4.1580    0.6710    2.1290 c         1 88S      0.544100
      9 C17         8.3300    2.3230    4.1140 c         1 88S     -0.028900
     10 C1         -3.9120   -0.0030    3.0390 c3        1 88S      0.005600
     11 C14         5.6600    0.7570    2.0540 c3        1 88S     -0.109400
     12 C15         6.1840    1.5680    3.2400 c3        1 88S     -0.001200
     13 N3         -2.0470   -0.0010    1.4260 nd        1 88S     -0.428100
     14 N19         9.6740    2.4010    4.0470 nz        1 88S      0.251600
     15 N11         3.4720    0.0000    1.1830 ns        1 88S      0.061900
     16 N16         7.6450    1.6530    3.1680 ny        1 88S      0.204200
     17 O13         3.5650    1.2050    3.0430 o         1 88S     -0.613100
     18 O18         7.7350    2.8600    5.0290 o         1 88S     -0.314100
     19 S10        -1.1580    0.0000    3.7420 ss        1 88S     -0.096100
     20 H5         -0.5370    0.0000   -0.9410 ha        1 88S      0.135000
     21 H6          1.8980   -0.0000   -0.9410 ha        1 88S      0.119000
     22 H8          1.9450    0.0000    3.3360 ha        1 88S      0.143000
     23 H11         3.9650   -0.5100    0.4760 hn        1 88S      0.172500
     24 H11C       -4.4010   -0.8730    2.6190 hc        1 88S      0.035367
     25 H12C       -3.9870   -0.0320    4.1190 hc        1 88S      0.035367
     26 H13C       -4.3900    0.8950    2.6670 hc        1 88S      0.035367
     27 H141        6.0810   -0.2400    2.0840 hc        1 88S      0.046700
     28 H142        5.9480    1.2430    1.1300 hc        1 88S      0.046700
     29 H191       10.0170    2.9310    4.8240 hn        1 88S      0.258800
     30 H192        9.9400    2.8500    3.1930 hn        1 88S      0.258800
     31 H16         7.9910    0.7140    3.1690 hn        1 88S      0.245800
     32 H151        5.7630    2.5660    3.2100 hx        1 88S      0.117700
     33 H152        5.8960    1.0830    4.1650 hx        1 88S      0.117700
     34 H193       10.0630    1.4790    4.0700 hn        1 88S      0.258800
     35 H162        7.8660    2.0810    2.2900 hn        1 88S      0.245800
@<TRIPOS>BOND
     1    1    2 ar  
     2    1    4 ar  
     3    1   20 1   
     4    2    5 ar  
     5    2   21 1   
     6    3    5 ar  
     7    3    6 ar  
     8    3   22 1   
     9    4    6 ar  
    10    4   13 1   
    11    5   15 1   
    12    6   19 1   
    13    7   10 1   
    14    7   13 2   
    15    7   19 1   
    16    8   11 1   
    17    8   15 1   
    18    8   17 2   
    19    9   14 1   
    20    9   16 1   
    21    9   18 2   
    22   10   24 1   
    23   10   25 1   
    24   10   26 1   
    25   11   12 1   
    26   11   27 1   
    27   11   28 1   
    28   12   16 1   
    29   12   32 1   
    30   12   33 1   
    31   14   29 1   
    32   14   30 1   
    33   14   34 1   
    34   15   23 1   
    35   16   31 1   
    36   16   35 1   
@<TRIPOS>SUBSTRUCTURE
     1 88S         1 TEMP              0 ****  ****    0 ROOT
