@<TRIPOS>MOLECULE
88S
   36    37     1     0     0
SMALL
bcc


@<TRIPOS>ATOM
      1 C5          1.0610    0.6430    0.4620 ca        1 88S     -0.032000
      2 C6          2.2270   -0.0450    0.7020 ca        1 88S     -0.164000
      3 C8          1.2700   -1.0700    2.7320 ca        1 88S      0.005000
      4 C4         -0.0330    0.5020    1.3540 ca        1 88S      0.153400
      5 C7          2.3340   -0.8960    1.8390 ca        1 88S     -0.142400
      6 C9          0.0850   -0.3780    2.5000 ca        1 88S     -0.168100
      7 C2         -2.0720    0.7230    2.2170 cc        1 88S      0.433200
      8 C12         4.5990   -0.9500    2.7960 c         1 88S      0.534100
      9 C17         7.6990    2.7720    3.7610 c         1 88S      0.490100
     10 C1         -3.4720    1.1580    2.3900 c3        1 88S     -0.155400
     11 C14         5.2320    0.2720    2.1590 c3        1 88S     -0.191400
     12 C15         6.0810    0.9690    3.2270 c3        1 88S      0.111800
     13 N3         -1.2640    1.1210    1.2260 nd        1 88S     -0.517100
     14 N19         8.7910    3.7220    3.3950 n4        1 88S     -0.728400
     15 N11         3.5580   -1.6850    2.0120 n4        1 88S     -0.499200
     16 N16         6.9300    2.0960    2.6610 n4        1 88S     -0.647800
     17 O13         4.8840   -1.3700    3.9090 o         1 88S     -0.387100
     18 O18         7.4440    2.5630    4.9320 o         1 88S     -0.228100
     19 S10        -1.3700   -0.3930    3.3370 ss        1 88S      0.155900
     20 H5          0.9510    1.2870   -0.4300 ha        1 88S      0.198000
     21 H6          3.0510    0.0250   -0.0250 ha        1 88S      0.134000
     22 H8          1.3410   -1.7510    3.6000 ha        1 88S      0.170000
     23 H11         3.9270   -1.9330    1.0830 hn        1 88S      0.490300
     24 H11C       -3.5330    2.2770    2.4590 hc        1 88S      0.101367
     25 H12C       -3.9120    0.7130    3.3180 hc        1 88S      0.101367
     26 H13C       -4.0900    0.8390    1.5080 hc        1 88S      0.101367
     27 H141        4.4140    0.9490    1.7740 hc        1 88S      0.134200
     28 H142        5.8540   -0.0660    1.2840 hc        1 88S      0.134200
     29 H191        9.1810    4.1170    4.2870 hn        1 88S      0.532133
     30 H192        9.5680    3.2490    2.8960 hn        1 88S      0.532133
     31 H16         7.5690    1.7070    1.9480 hn        1 88S      0.501300
     32 H151        6.7810    0.2250    3.7210 hx        1 88S      0.161200
     33 H152        5.4090    1.4080    4.0280 hx        1 88S      0.161200
     34 H193        8.4490    4.5150    2.8230 hn        1 88S      0.532133
     35 H112        3.3240   -2.5600    2.5200 hn        1 88S      0.490300
     36 H162        6.3060    2.7880    2.2060 hn        1 88S      0.501300
@<TRIPOS>BOND
     1    1    2 ar  
     2    1    4 ar  
     3    1   20 1   
     4    2    5 ar  
     5    2   21 1   
     6    3    5 ar  
     7    3    6 ar  
     8    3   22 1   
     9    4    6 ar  
    10    4   13 1   
    11    5   15 1   
    12    6   19 1   
    13    7   10 1   
    14    7   13 2   
    15    7   19 1   
    16    8   11 1   
    17    8   15 1   
    18    8   17 2   
    19    9   14 1   
    20    9   16 1   
    21    9   18 2   
    22   10   24 1   
    23   10   25 1   
    24   10   26 1   
    25   11   12 1   
    26   11   27 1   
    27   11   28 1   
    28   12   16 1   
    29   12   32 1   
    30   12   33 1   
    31   14   29 1   
    32   14   30 1   
    33   14   34 1   
    34   15   23 1   
    35   15   35 1   
    36   16   31 1   
    37   16   36 1   
@<TRIPOS>SUBSTRUCTURE
     1 88S         1 TEMP              0 ****  ****    0 ROOT
