@<TRIPOS>MOLECULE
88V
   61    62     1     0     0
SMALL
bcc


@<TRIPOS>ATOM
      1 C23         0.0000    0.0000    0.0000 ca        1 88V     -0.094000
      2 C27        -0.0000    0.0010    2.3940 ca        1 88V     -0.094000
      3 C24         1.3830    0.0000    0.0000 ca        1 88V     -0.056000
      4 C26         1.3820    0.0010    2.3940 ca        1 88V     -0.056000
      5 C5        -12.3270   -8.0560    3.7010 c2        1 88V     -0.029000
      6 C6        -11.7300   -6.8520    3.4860 c2        1 88V     -0.098000
      7 C8        -11.0070   -7.5650    1.3070 c2        1 88V     -0.034000
      8 C22        -0.6920    0.0000    1.1970 ca        1 88V     -0.119000
      9 C25         2.0730    0.0000    1.1970 ca        1 88V     -0.071000
     10 C4        -12.2830   -9.0650    2.7180 c2        1 88V     -0.063000
     11 C7        -11.0640   -6.5930    2.2890 c1        1 88V      0.035000
     12 C9        -11.6130   -8.8000    1.5170 c2        1 88V     -0.251000
     13 C2        -12.6280  -11.0440    1.7070 c2        1 88V     -0.201000
     14 C12        -9.1860   -4.9020    1.1960 c2        1 88V      0.247000
     15 C30         5.5930    1.4430    1.3200 c2        1 88V      0.386500
     16 C33         3.6930    2.1150   -0.0910 c2        1 88V      0.386500
     17 C17        -4.8480   -2.6080    1.1970 c2        1 88V     -0.590000
     18 C1        -13.1490  -12.4530    1.5740 c3        1 88V     -0.030000
     19 C21        -2.1990    0.0000    1.1970 c3        1 88V     -0.050000
     20 C28         3.5800   -0.0000    1.1970 c3        1 88V     -0.060000
     21 C14        -8.4330   -3.5980    1.1970 c3        1 88V     -0.161000
     22 C20        -2.7090   -1.4420    1.1970 c3        1 88V     -0.249000
     23 C15        -6.9280   -3.8770    1.1970 c3        1 88V     -0.237000
     24 C29         4.0910    1.4420    1.1970 c3        1 88V     -0.064000
     25 N3        -12.8040  -10.3070    2.7360 n2        1 88V     -0.028000
     26 N11       -10.5340   -4.9020    1.1960 n2        1 88V     -0.095000
     27 N19        -4.1740   -1.4420    1.1970 ny        1 88V      0.936000
     28 N16        -6.1960   -2.6080    1.1970 ny        1 88V      0.928000
     29 O13        -8.5800   -5.9530    1.1970 o         1 88V     -0.358000
     30 O31         6.2640    2.6060    1.3410 o         1 88V     -0.356750
     31 O34         2.3950    2.2310   -0.4150 o         1 88V     -0.356750
     32 O18        -4.2400   -3.6620    1.1960 o         1 88V     -0.462000
     33 O32         6.1930    0.3970    1.4010 o         1 88V     -0.356750
     34 O35         4.5420    2.5520   -0.8330 o         1 88V     -0.356750
     35 S10       -11.7300  -10.2350    0.5020 ss        1 88V      0.278000
     36 H23        -0.5410   -0.0000   -0.9380 ha        1 88V      0.098000
     37 H24         1.9240   -0.0000   -0.9380 ha        1 88V      0.117500
     38 H27        -0.5420    0.0300    3.3320 ha        1 88V      0.098000
     39 H26         1.9240    0.0010    3.3320 ha        1 88V      0.117500
     40 H211       -2.5600    0.5110    2.0820 hc        1 88V      0.059500
     41 H212       -2.5600    0.5110    0.3130 hc        1 88V      0.059500
     42 H281        3.9410   -0.5110    0.3120 hc        1 88V      0.083000
     43 H282        3.9410   -0.5110    2.0810 hc        1 88V      0.083000
     44 H11       -11.1500   -4.1140    1.1660 hn        1 88V      0.102000
     45 H11C      -14.2230  -12.4560    1.7140 hc        1 88V      0.061667
     46 H12C      -12.6850  -13.0810    2.3240 hc        1 88V      0.061667
     47 H13C      -12.9120  -12.8330    0.5870 hc        1 88V      0.061667
     48 H141       -8.6940   -3.0290    0.3130 hc        1 88V      0.073000
     49 H142       -8.6950   -3.0300    2.0810 hc        1 88V      0.073000
     50 H29         3.6600    1.9780    2.0330 hc        1 88V      0.095000
     51 H19        -4.4650   -0.9380    2.0110 hn        1 88V     -0.103500
     52 H16        -6.4880   -2.1040    2.0100 hn        1 88V     -0.080000
     53 H201       -2.3470   -1.9530    0.3130 hx        1 88V      0.125000
     54 H202       -2.3480   -1.9530    2.0820 hx        1 88V      0.125000
     55 H151       -6.6660   -4.4450    2.0820 hx        1 88V      0.137000
     56 H152       -6.6660   -4.4450    0.3120 hx        1 88V      0.137000
     57 H5        -12.8410   -8.2400    4.6370 ha        1 88V      0.122000
     58 H6        -11.7720   -6.0880    4.2520 ha        1 88V      0.112000
     59 H192       -4.7050   -0.7990    0.6430 hn        1 88V     -0.103500
     60 H162       -6.4870   -1.9830    0.4710 hn        1 88V     -0.080000
     61 H8        -10.5500   -7.3420    0.3510 ha        1 88V      0.143000
@<TRIPOS>BOND
     1    1    3 1   
     2    1    8 1   
     3    1   36 1   
     4    2    4 1   
     5    2    8 1   
     6    2   38 1   
     7    3    9 1   
     8    3   37 1   
     9    4    9 1   
    10    4   39 1   
    11    5    6 1   
    12    5   10 1   
    13    5   57 1   
    14    6   11 1   
    15    6   58 1   
    16    7   11 1   
    17    7   12 1   
    18    7   61 1   
    19    8   19 1   
    20    9   20 1   
    21   10   12 1   
    22   10   25 1   
    23   12   35 1   
    24   13   18 1   
    25   13   25 1   
    26   13   35 1   
    27   14   21 1   
    28   14   26 1   
    29   14   29 1   
    30   15   24 1   
    31   15   30 1   
    32   15   33 1   
    33   16   24 1   
    34   16   31 1   
    35   16   34 1   
    36   17   27 1   
    37   17   28 1   
    38   17   32 1   
    39   18   45 1   
    40   18   46 1   
    41   18   47 1   
    42   19   22 1   
    43   19   40 1   
    44   19   41 1   
    45   20   24 1   
    46   20   42 1   
    47   20   43 1   
    48   21   23 1   
    49   21   48 1   
    50   21   49 1   
    51   22   27 1   
    52   22   53 1   
    53   22   54 1   
    54   23   28 1   
    55   23   55 1   
    56   23   56 1   
    57   24   50 1   
    58   26   44 1   
    59   27   51 1   
    60   27   59 1   
    61   28   52 1   
    62   28   60 1   
@<TRIPOS>SUBSTRUCTURE
     1 88V         1 TEMP              0 ****  ****    0 ROOT
