@<TRIPOS>MOLECULE
88V
   59    61     1     0     0
SMALL
bcc


@<TRIPOS>ATOM
      1 C23        -3.8550    1.8470    1.2100 ca        1 88V     -0.136500
      2 C27        -3.5480    0.4660    3.1660 ca        1 88V     -0.136500
      3 C24        -4.6740    0.8750    0.6490 ca        1 88V     -0.125000
      4 C26        -4.3820   -0.5030    2.6110 ca        1 88V     -0.125000
      5 C5          5.3490    0.6550    0.7420 ca        1 88V     -0.057000
      6 C6          4.0530    0.5630    0.2830 ca        1 88V     -0.180000
      7 C8          4.6600   -1.2380   -1.2580 ca        1 88V     -0.160000
      8 C22        -3.2080    1.6050    2.4290 ca        1 88V     -0.139300
      9 C25        -4.8670   -0.3510    1.3060 ca        1 88V     -0.033300
     10 C4          6.3400   -0.1960    0.2120 ca        1 88V      0.018400
     11 C7          3.6740   -0.3840   -0.7240 ca        1 88V      0.129600
     12 C9          5.9670   -1.1420   -0.7980 ca        1 88V     -0.029100
     13 C2          8.3260   -1.1440   -0.1280 cc        1 88V      0.329200
     14 C12         1.7860   -1.0500   -2.2260 c         1 88V      0.680100
     15 C30        -4.9600   -3.3340   -1.0890 c         1 88V      0.926600
     16 C33        -3.2710   -1.4010   -0.7380 c         1 88V      0.926600
     17 C17        -0.3010    1.3360   -0.1080 c         1 88V      0.735100
     18 C1          9.7650   -1.4670   -0.0240 c3        1 88V     -0.103400
     19 C21        -2.0100    2.4080    2.7820 c3        1 88V     -0.049100
     20 C28        -5.4330   -1.4970    0.5460 c3        1 88V     -0.021100
     21 C14         0.3060   -0.8460   -2.4590 c3        1 88V     -0.214400
     22 C20        -0.7280    1.6880    2.2990 c3        1 88V      0.105000
     23 C15        -0.1260    0.6280   -2.4400 c3        1 88V      0.089000
     24 C29        -4.3220   -2.3150   -0.1180 c3        1 88V     -0.244700
     25 N3          7.6940   -0.2190    0.5740 nd        1 88V     -0.520100
     26 N11         2.3400   -0.4170   -1.1110 n         1 88V     -0.465100
     27 N19        -0.8550    0.9110    1.1020 n         1 88V     -0.546900
     28 N16        -0.9440    1.0170   -1.3210 n         1 88V     -0.516900
     29 O13         2.4780   -1.7550   -2.9880 o         1 88V     -0.632100
     30 O31        -6.1670   -3.1780   -1.4470 o         1 88V     -0.880800
     31 O34        -3.5410   -0.5370   -1.6310 o         1 88V     -0.880800
     32 O18         0.7790    2.0060   -0.1000 o         1 88V     -0.745100
     33 O32        -4.2820   -4.3470   -1.4300 o         1 88V     -0.880800
     34 O35        -2.0720   -1.4280   -0.2810 o         1 88V     -0.880800
     35 S10         7.3380   -2.0320   -1.2580 ss        1 88V     -0.103100
     36 H23        -3.6430    2.7720    0.6540 ha        1 88V      0.108500
     37 H24        -5.0690    0.9990   -0.3740 ha        1 88V      0.143000
     38 H27        -3.0960    0.3010    4.1540 ha        1 88V      0.108500
     39 H26        -4.5900   -1.4310    3.1610 ha        1 88V      0.143000
     40 H8          4.4000   -1.9760   -2.0350 ha        1 88V      0.182000
     41 H211       -2.0670    3.4220    2.3080 hc        1 88V      0.027200
     42 H212       -1.9300    2.5540    3.8900 hc        1 88V      0.027200
     43 H281       -6.0220   -2.1680    1.2230 hc        1 88V      0.050700
     44 H282       -6.1230   -1.1370   -0.2640 hc        1 88V      0.050700
     45 H11         1.7250    0.1770   -0.5810 hn        1 88V      0.360500
     46 H11C       10.0180   -1.8030    1.0130 hc        1 88V      0.046367
     47 H12C       10.0260   -2.2860   -0.7390 hc        1 88V      0.046367
     48 H13C       10.3890   -0.5690   -0.2640 hc        1 88V      0.046367
     49 H141        0.0690   -1.2890   -3.4620 hc        1 88V      0.126200
     50 H142       -0.2910   -1.4400   -1.6950 hc        1 88V      0.126200
     51 H29        -3.7960   -2.9170    0.6740 hc        1 88V      0.038700
     52 H19        -1.6330    0.2680    1.0500 hn        1 88V      0.367500
     53 H16        -1.7850    0.4330   -1.2460 hn        1 88V      0.384500
     54 H201        0.0860    2.4550    2.1640 h1        1 88V      0.039700
     55 H202       -0.4130    0.9780    3.1190 h1        1 88V      0.039700
     56 H151        0.7690    1.3080   -2.5050 h1        1 88V      0.051200
     57 H152       -0.7630    0.8020   -3.3560 h1        1 88V      0.051200
     58 H5          5.6150    1.3890    1.5170 ha        1 88V      0.136000
     59 H6          3.2810    1.2410    0.6930 ha        1 88V      0.168000
@<TRIPOS>BOND
     1    1    3 ar  
     2    1    8 ar  
     3    1   36 1   
     4    2    4 ar  
     5    2    8 ar  
     6    2   38 1   
     7    3    9 ar  
     8    3   37 1   
     9    4    9 ar  
    10    4   39 1   
    11    5    6 ar  
    12    5   10 ar  
    13    5   58 1   
    14    6   11 ar  
    15    6   59 1   
    16    7   11 ar  
    17    7   12 ar  
    18    7   40 1   
    19    8   19 1   
    20    9   20 1   
    21   10   12 ar  
    22   10   25 1   
    23   11   26 1   
    24   12   35 1   
    25   13   18 1   
    26   13   25 2   
    27   13   35 1   
    28   14   21 1   
    29   14   26 1   
    30   14   29 2   
    31   15   24 1   
    32   15   30 1   
    33   15   33 1   
    34   16   24 1   
    35   16   31 1   
    36   16   34 1   
    37   17   27 1   
    38   17   28 1   
    39   17   32 2   
    40   18   46 1   
    41   18   47 1   
    42   18   48 1   
    43   19   22 1   
    44   19   41 1   
    45   19   42 1   
    46   20   24 1   
    47   20   43 1   
    48   20   44 1   
    49   21   23 1   
    50   21   49 1   
    51   21   50 1   
    52   22   27 1   
    53   22   54 1   
    54   22   55 1   
    55   23   28 1   
    56   23   56 1   
    57   23   57 1   
    58   24   51 1   
    59   26   45 1   
    60   27   52 1   
    61   28   53 1   
@<TRIPOS>SUBSTRUCTURE
     1 88V         1 TEMP              0 ****  ****    0 ROOT
