@<TRIPOS>MOLECULE
88V
   59    48     1     0     0
SMALL
bcc


@<TRIPOS>ATOM
      1 C23         4.7410    3.0070    0.1050 c1        1 88V     -0.148000
      2 C27         4.6660    2.6830    2.4920 c1        1 88V     -0.146500
      3 C24         6.1380    3.0620    0.1610 c1        1 88V     -0.077000
      4 C26         6.0590    2.7390    2.5460 c1        1 88V     -0.146500
      5 C5         -7.6260   -5.0500   -1.0240 c1        1 88V     -0.113000
      6 C6         -6.9230   -3.9900   -0.4260 c1        1 88V     -0.172000
      7 C8         -6.6790   -2.9150   -2.5890 c1        1 88V     -0.113000
      8 C22         4.0080    2.8170    1.2670 c1        1 88V     -0.122000
      9 C25         6.7920    2.9280    1.3850 c1        1 88V     -0.029000
     10 C4         -7.8530   -5.0440   -2.3870 c1        1 88V     -0.188000
     11 C7         -6.4510   -2.9230   -1.2140 c1        1 88V      0.135000
     12 C9         -7.3730   -3.9600   -3.1850 c1        1 88V     -0.188000
     13 C2         -8.5490   -5.5710   -4.6760 c1        1 88V     -0.256000
     14 C12        -4.9880   -1.5660    0.3110 c1        1 88V      0.321000
     15 C30         9.9130    3.4770    3.1370 c1        1 88V      0.351500
     16 C33         9.9500    4.6330    0.9750 c1        1 88V      0.351500
     17 C17        -0.3710    0.4050    0.9420 c1        1 88V      0.375000
     18 C1         -9.1030   -6.4550   -5.7630 c2        1 88V     -0.147000
     19 C21         2.4870    2.9230    1.2310 c3        1 88V     -0.137000
     20 C28         8.3650    2.7220    1.3330 c3        1 88V     -0.093000
     21 C14        -4.1330   -0.2890    0.5660 c2        1 88V     -0.237000
     22 C20         1.8730    1.5080    1.2600 c3        1 88V     -0.016000
     23 C15        -2.6160   -0.6960    0.7630 c3        1 88V     -0.005000
     24 C29         9.0730    3.9470    1.9920 c1        1 88V     -0.188000
     25 N3         -8.6020   -6.0710   -3.3370 n1        1 88V     -0.095000
     26 N11        -5.6770   -1.7400   -0.9720 n3        1 88V     -0.319000
     27 N19         0.4360    1.6050    1.1990 n2        1 88V     -0.337000
     28 N16        -1.8170    0.4970    0.9200 n3        1 88V     -0.357000
     29 O13        -5.0730   -2.4280    1.1720 o         1 88V     -0.403000
     30 O31        10.8250    2.6350    2.9420 o         1 88V     -0.617250
     31 O34        11.0510    4.1170    0.6420 o         1 88V     -0.617250
     32 O18         0.1740   -0.6860    0.8370 o         1 88V     -0.535000
     33 O32         9.6820    3.8890    4.2940 o         1 88V     -0.617250
     34 O35         9.6020    5.7310    0.4910 o         1 88V     -0.617250
     35 S10        -7.7820   -4.2350   -4.6510 s         1 88V      0.354000
     36 H23         4.2810    3.1010   -0.7550 ha        1 88V      0.109000
     37 H24         6.6570    3.1140   -0.6660 ha        1 88V      0.211000
     38 H27         4.1480    2.6230    3.3200 ha        1 88V      0.107000
     39 H26         6.5120    2.6460    3.3910 ha        1 88V      0.107000
     40 H5         -8.0390   -5.7370   -0.4650 ha        1 88V      0.155000
     41 H6         -6.7610   -3.9930    0.5460 ha        1 88V      0.175000
     42 H8         -6.3510   -2.1720   -3.1340 ha        1 88V      0.155000
     43 H211        2.2130    3.3780    0.4200 hc        1 88V      0.066000
     44 H212        2.1760    3.4310    2.0120 hc        1 88V      0.066000
     45 H281        8.6060    1.9030    1.8240 hc        1 88V      0.067500
     46 H282        8.6560    2.6390    0.3910 hc        1 88V      0.067500
     47 H11        -5.6870   -1.0650   -1.5740 hn        1 88V      0.281000
     48 H11C      -10.0540   -6.6150   -5.6010 ha        1 88V      0.086333
     49 H12C       -8.6250   -7.3070   -5.7660 ha        1 88V      0.086333
     50 H13C       -8.9890   -6.0110   -6.6370 ha        1 88V      0.086333
     51 H141       -4.2120    0.3160   -0.2030 ha        1 88V      0.161500
     52 H142       -4.4580    0.1700    1.3810 ha        1 88V      0.161500
     53 H29         8.4020    4.5740    2.3160 ha        1 88V      0.082000
     54 H19         0.0250    2.4030    1.3640 hn        1 88V      0.282000
     55 H16        -2.2150    1.2970    0.9710 hn        1 88V      0.319000
     56 H201        2.1970    0.9960    0.4930 h1        1 88V      0.078000
     57 H202        2.1350    1.0560    2.0870 h1        1 88V      0.078000
     58 H151       -2.3080   -1.1950   -0.0210 h1        1 88V      0.084000
     59 H152       -2.5280   -1.2580    1.5650 h1        1 88V      0.084000
@<TRIPOS>BOND
     1    1    8 1   
     2    1   36 1   
     3    2    4 1   
     4    2   38 1   
     5    3    9 1   
     6    3   37 1   
     7    4   39 1   
     8    5   10 1   
     9    5   40 1   
    10    6   11 1   
    11    6   41 1   
    12    7   12 1   
    13    7   42 1   
    14    8   19 1   
    15    9   20 1   
    16   11   26 1   
    17   13   25 1   
    18   13   35 1   
    19   14   26 1   
    20   14   29 1   
    21   15   30 1   
    22   15   33 1   
    23   16   31 1   
    24   16   34 1   
    25   17   28 1   
    26   17   32 1   
    27   18   48 1   
    28   18   49 1   
    29   18   50 1   
    30   19   22 1   
    31   19   43 1   
    32   19   44 1   
    33   20   24 1   
    34   20   45 1   
    35   20   46 1   
    36   21   23 1   
    37   21   51 1   
    38   21   52 1   
    39   22   27 1   
    40   22   56 1   
    41   22   57 1   
    42   23   28 1   
    43   23   58 1   
    44   23   59 1   
    45   24   53 1   
    46   26   47 1   
    47   27   54 1   
    48   28   55 1   
@<TRIPOS>SUBSTRUCTURE
     1 88V         1 TEMP              0 ****  ****    0 ROOT
