@<TRIPOS>MOLECULE
88W
   39    40     1     0     0
SMALL
bcc


@<TRIPOS>ATOM
      1 C1          2.9200   -1.8300    2.0500 c3        1 88W     -0.134100
      2 C14        -0.8210    0.0770    1.7660 ca        1 88W     -0.058000
      3 C13         0.1690    0.6050    0.9630 ca        1 88W     -0.177000
      4 C2          4.2310   -1.0880    1.8430 c3        1 88W      0.072000
      5 C17        -1.1070    0.0930   -1.0600 ca        1 88W     -0.120000
      6 C15        -1.9800   -0.4630    1.1740 ca        1 88W      0.056400
      7 C12         0.0420    0.6280   -0.4600 ca        1 88W      0.072600
      8 C16        -2.1060   -0.4490   -0.2540 ca        1 88W     -0.062100
      9 C19        -3.9720   -1.4390    0.9830 cc        1 88W      0.363200
     10 C9          1.3800    0.9780   -2.5270 c         1 88W      0.667100
     11 C4          4.0450    0.3320   -0.1440 c         1 88W      0.756100
     12 C21        -5.2560   -2.0910    1.3190 c3        1 88W     -0.117400
     13 C8          2.6140    1.6530   -3.1000 c3        1 88W     -0.178400
     14 C7          3.8290    1.7130   -2.1740 c3        1 88W      0.098000
     15 N20        -3.0630   -1.0370    1.8560 nd        1 88W     -0.523100
     16 N3          4.5890   -0.8160    0.4700 n         1 88W     -0.525900
     17 N11         1.0780    1.2260   -1.1980 n         1 88W     -0.465100
     18 N6          4.1450    0.4700   -1.5320 n         1 88W     -0.585900
     19 O10         0.6670    0.2720   -3.2670 o         1 88W     -0.601100
     20 O5          3.5200    1.2510    0.5400 o         1 88W     -0.668100
     21 S18        -3.5780   -1.1550   -0.6920 ss        1 88W     -0.053100
     22 H11C        2.0550   -1.2140    1.7000 hc        1 88W      0.047033
     23 H12C        2.9100   -2.8030    1.5030 hc        1 88W      0.047033
     24 H13C        2.7890   -2.0360    3.1400 hc        1 88W      0.047033
     25 H21         4.1900   -0.1070    2.3980 h1        1 88W      0.068700
     26 H22         5.0760   -1.7010    2.2700 h1        1 88W      0.068700
     27 H6          4.6010   -0.2220   -2.0760 hn        1 88W      0.315500
     28 H71C        4.7130    2.0330   -2.8010 h1        1 88W      0.065200
     29 H72C        3.6670    2.5080   -1.3890 h1        1 88W      0.065200
     30 H81         2.8760    1.1020   -4.0430 hc        1 88W      0.081700
     31 H82         2.3360    2.7040   -3.3820 hc        1 88W      0.081700
     32 H11         1.7620    1.7090   -0.6490 hn        1 88W      0.343500
     33 H17        -1.2250    0.0870   -2.1560 ha        1 88W      0.176000
     34 H14        -0.7110    0.0710    2.8610 ha        1 88W      0.150000
     35 H3          4.6720   -1.6290   -0.1010 hn        1 88W      0.289500
     36 H211       -5.8800   -1.4190    1.9610 hc        1 88W      0.060367
     37 H212       -5.8250   -2.3240    0.3850 hc        1 88W      0.060367
     38 H213       -5.0770   -3.0440    1.8780 hc        1 88W      0.060367
     39 H13         1.0810    1.0180    1.4310 ha        1 88W      0.155000
@<TRIPOS>BOND
     1    1    4 1   
     2    1   22 1   
     3    1   23 1   
     4    1   24 1   
     5    2    3 ar  
     6    2    6 ar  
     7    2   34 1   
     8    3    7 ar  
     9    3   39 1   
    10    4   16 1   
    11    4   25 1   
    12    4   26 1   
    13    5    7 ar  
    14    5    8 ar  
    15    5   33 1   
    16    6    8 ar  
    17    6   15 1   
    18    7   17 1   
    19    8   21 1   
    20    9   12 1   
    21    9   15 2   
    22    9   21 1   
    23   10   13 1   
    24   10   17 1   
    25   10   19 2   
    26   11   16 1   
    27   11   18 1   
    28   11   20 2   
    29   12   36 1   
    30   12   37 1   
    31   12   38 1   
    32   13   14 1   
    33   13   30 1   
    34   13   31 1   
    35   14   18 1   
    36   14   28 1   
    37   14   29 1   
    38   16   35 1   
    39   17   32 1   
    40   18   27 1   
@<TRIPOS>SUBSTRUCTURE
     1 88W         1 TEMP              0 ****  ****    0 ROOT
