@<TRIPOS>MOLECULE
88W
   41    42     1     0     0
SMALL
bcc


@<TRIPOS>ATOM
      1 C1          1.0650   -0.3690   -0.5540 c3        1 88W     -0.146100
      2 C14        10.4890    1.9250    7.4440 ca        1 88W     -0.042000
      3 C13         9.1360    1.8190    7.2180 ca        1 88W     -0.126000
      4 C2          2.0950    0.1780    0.4090 c3        1 88W      0.116800
      5 C17         9.4960    0.0880    5.5060 ca        1 88W     -0.015000
      6 C15        11.3850    1.1140    6.7070 ca        1 88W      0.148400
      7 C12         8.6260    0.9020    6.2450 ca        1 88W     -0.129200
      8 C16        10.8660    0.1880    5.7310 ca        1 88W     -0.141100
      9 C19        13.2940    0.2220    5.9910 cc        1 88W      0.425200
     10 C9          6.4830    0.3470    5.1210 c2        1 88W      0.467600
     11 C4          3.5590   -0.3230    2.3810 c         1 88W      0.644100
     12 C21        14.7360   -0.0630    5.8430 c3        1 88W     -0.143400
     13 C8          4.9740    0.3600    5.1140 c3        1 88W     -0.206700
     14 C7          4.4520    1.2670    3.9860 c3        1 88W      0.091000
     15 N20        12.7710    1.1120    6.8320 nd        1 88W     -0.518100
     16 N3          2.4410   -0.8140    1.4860 ny        1 88W     -0.656800
     17 N11         7.2120    0.8560    6.1030 nu        1 88W     -0.119200
     18 N6          3.3380    0.7190    3.2400 ns        1 88W     -0.526900
     19 O10         7.1350   -0.2300    4.0820 oh        1 88W     -0.531600
     20 O5          4.6350   -0.9340    2.2700 o         1 88W     -0.534100
     21 S18        12.1450   -0.6450    5.0190 ss        1 88W      0.057900
     22 H11C        1.4330   -1.2800   -1.0890 hc        1 88W      0.096033
     23 H12C        0.0980   -0.6080   -0.0460 hc        1 88W      0.096033
     24 H13C        0.8630    0.4230   -1.3250 hc        1 88W      0.096033
     25 H21         3.0500    0.4250   -0.1400 hx        1 88W      0.110700
     26 H22         1.7040    1.1090    0.9110 hx        1 88W      0.110700
     27 H6          2.4460    1.1570    3.3280 hn        1 88W      0.368500
     28 H71C        4.0980    2.2440    4.4290 h1        1 88W      0.105700
     29 H72C        5.2920    1.4900    3.2610 h1        1 88W      0.105700
     30 H81         4.5580    0.7120    6.0980 hc        1 88W      0.118700
     31 H82         4.6390   -0.7090    4.9850 hc        1 88W      0.118700
     32 H11         6.7100    1.3010    6.8610 hn        1 88W      0.336700
     33 H14        10.8840    2.6330    8.1940 ha        1 88W      0.192000
     34 H3          1.6010   -1.0370    2.0340 hn        1 88W      0.480300
     35 H211       15.2900    0.8660    5.5440 hc        1 88W      0.088367
     36 H212       14.9020   -0.8490    5.0640 hc        1 88W      0.088367
     37 H213       15.1650   -0.4210    6.8160 hc        1 88W      0.088367
     38 H13         8.4500    2.4550    7.8020 ha        1 88W      0.151000
     39 H32         2.7760   -1.6870    1.0410 hn        1 88W      0.480300
     40 H62         6.4860   -0.6040    3.4490 ho        1 88W      0.491000
     41 H17         9.1310   -0.6380    4.7610 ha        1 88W      0.162000
@<TRIPOS>BOND
     1    1    4 1   
     2    1   22 1   
     3    1   23 1   
     4    1   24 1   
     5    2    3 ar  
     6    2    6 ar  
     7    2   33 1   
     8    3    7 ar  
     9    3   38 1   
    10    4   16 1   
    11    4   25 1   
    12    4   26 1   
    13    5    7 ar  
    14    5    8 ar  
    15    5   41 1   
    16    6    8 ar  
    17    6   15 1   
    18    7   17 1   
    19    8   21 1   
    20    9   12 1   
    21    9   15 2   
    22    9   21 1   
    23   10   13 1   
    24   10   17 2   
    25   10   19 1   
    26   11   16 1   
    27   11   18 1   
    28   11   20 2   
    29   12   35 1   
    30   12   36 1   
    31   12   37 1   
    32   13   14 1   
    33   13   30 1   
    34   13   31 1   
    35   14   18 1   
    36   14   28 1   
    37   14   29 1   
    38   16   34 1   
    39   16   39 1   
    40   17   32 1   
    41   18   27 1   
    42   19   40 1   
@<TRIPOS>SUBSTRUCTURE
     1 88W         1 TEMP              0 ****  ****    0 ROOT
