@<TRIPOS>MOLECULE
88W
   39    31     1     0     0
SMALL
bcc


@<TRIPOS>ATOM
      1 C1         -3.0420   -2.6420   -7.2780 c3        1 88W     -0.225000
      2 C14         1.7610    2.9090    3.2390 c1        1 88W     -0.121333
      3 C13         1.4060    2.2170    2.0780 c1        1 88W     -0.121333
      4 C2         -2.4860   -1.4910   -6.4250 c3        1 88W     -0.033000
      5 C17         1.9720    0.1110    3.1450 c1        1 88W     -0.121333
      6 C15         2.2250    2.2060    4.3610 c1        1 88W     -0.089667
      7 C12         1.5130    0.8100    2.0340 c1        1 88W     -0.089667
      8 C16         2.3320    0.8050    4.3150 c1        1 88W     -0.089667
      9 C19         3.0730    1.5790    6.5450 c1        1 88W     -0.218000
     10 C9         -0.0700    0.0910    0.1800 c1        1 88W      0.312000
     11 C4         -2.1930   -0.8740   -4.0170 c1        1 88W      0.366000
     12 C21         3.3070    1.8080    7.9850 c2        1 88W     -0.160000
     13 C8         -0.4490   -0.8580   -0.8940 c2        1 88W     -0.221000
     14 C7         -1.6690   -0.3370   -1.6360 c3        1 88W     -0.035000
     15 N20         2.7010    2.6980    5.7970 n1        1 88W     -0.092000
     16 N3         -2.5880   -1.8360   -5.0350 n2        1 88W     -0.353000
     17 N11         1.1080   -0.1640    0.9920 n2        1 88W     -0.323000
     18 N6         -2.0470   -1.2940   -2.6580 n3        1 88W     -0.348000
     19 O10        -0.7330    1.1180    0.3610 o         1 88W     -0.356000
     20 O5         -2.1130    0.3150   -4.3000 o         1 88W     -0.422000
     21 S18         2.8640    0.3320    5.6670 s         1 88W      0.375000
     22 H11C       -4.0010   -2.7360   -7.1120 hc        1 88W      0.084667
     23 H12C       -2.8910   -2.4460   -8.2350 hc        1 88W      0.084667
     24 H13C       -2.5910   -3.4690   -7.0410 hc        1 88W      0.084667
     25 H21        -1.5300   -1.3360   -6.6590 h1        1 88W      0.094000
     26 H22        -3.0060   -0.6650   -6.6020 h1        1 88W      0.094000
     27 H6         -2.1410   -2.1380   -2.4480 hn        1 88W      0.208000
     28 H71C       -1.4620    0.5040   -2.0430 h1        1 88W      0.114000
     29 H72C       -2.4070   -0.2230   -1.0110 h1        1 88W      0.114000
     30 H81        -0.6620   -1.7490   -0.4910 ha        1 88W      0.118000
     31 H82         0.2870   -0.9530   -1.5120 ha        1 88W      0.118000
     32 H11         1.5700   -0.9480    0.8930 hn        1 88W      0.264000
     33 H13         1.0870    2.7060    1.2970 ha        1 88W      0.158667
     34 H17         2.0420   -0.8350    3.1140 ha        1 88W      0.158667
     35 H14         1.6840    3.8620    3.2680 ha        1 88W      0.158667
     36 H3         -2.9230   -2.6610   -4.7870 hn        1 88W      0.212000
     37 H211        4.2710    1.7750    8.1690 ha        1 88W      0.100000
     38 H212        2.8520    1.1140    8.5020 ha        1 88W      0.100000
     39 H213        2.9500    2.6960    8.2400 ha        1 88W      0.100000
@<TRIPOS>BOND
     1    1    4 1   
     2    1   22 1   
     3    1   23 1   
     4    1   24 1   
     5    2    6 1   
     6    2   35 1   
     7    3    7 1   
     8    3   33 1   
     9    4   16 1   
    10    4   25 1   
    11    4   26 1   
    12    5    8 1   
    13    5   34 1   
    14    9   15 1   
    15    9   21 1   
    16   10   17 1   
    17   10   19 1   
    18   11   18 1   
    19   11   20 1   
    20   12   37 1   
    21   12   38 1   
    22   12   39 1   
    23   13   14 1   
    24   13   30 1   
    25   13   31 1   
    26   14   18 1   
    27   14   28 1   
    28   14   29 1   
    29   16   36 1   
    30   17   32 1   
    31   18   27 1   
@<TRIPOS>SUBSTRUCTURE
     1 88W         1 TEMP              0 ****  ****    0 ROOT
