@<TRIPOS>MOLECULE
88W
   41    42     1     0     0
SMALL
bcc


@<TRIPOS>ATOM
      1 C1          1.0720   -0.7580   -0.4880 c3        1 88W     -0.146100
      2 C14        10.4470    1.5140    7.7880 ca        1 88W     -0.042000
      3 C13         9.1080    1.5750    7.4780 ca        1 88W     -0.126000
      4 C2          2.1480   -0.1300    0.3700 c3        1 88W      0.116800
      5 C17         9.5010    0.4910    5.3040 ca        1 88W     -0.016000
      6 C15        11.3520    0.9390    6.8650 ca        1 88W      0.148400
      7 C12         8.6200    1.0600    6.2340 ca        1 88W     -0.127200
      8 C16        10.8570    0.4270    5.6110 ca        1 88W     -0.141100
      9 C19        13.2650    0.2270    5.9750 cc        1 88W      0.426200
     10 C9          6.4590    0.5810    5.1090 c2        1 88W      0.466600
     11 C4          3.5210   -0.3410    2.4570 c         1 88W      0.644100
     12 C21        14.7000   -0.0750    5.8030 c3        1 88W     -0.143400
     13 C8          4.9630    0.7680    5.0320 c3        1 88W     -0.206700
     14 C7          4.5720    1.4540    3.7110 c3        1 88W      0.091000
     15 N20        12.7260    0.8110    7.0440 nd        1 88W     -0.518100
     16 N3          2.3630   -0.8900    1.6490 n4        1 88W     -0.656800
     17 N11         7.2220    1.1770    6.0130 nh        1 88W     -0.118200
     18 N6          3.4120    0.8850    3.0570 n         1 88W     -0.527900
     19 O10         7.0600   -0.2410    4.2120 oh        1 88W     -0.533600
     20 O5          4.5180   -1.0770    2.5240 o         1 88W     -0.534100
     21 S18        12.1430   -0.1910    4.7150 ss        1 88W      0.055900
     22 H11C        1.3380   -1.8000   -0.7970 hc        1 88W      0.096033
     23 H12C        0.9740   -0.1390   -1.4200 hc        1 88W      0.096033
     24 H13C        0.0790   -0.7690    0.0240 hc        1 88W      0.096033
     25 H21         1.8630    0.9270    0.6410 hx        1 88W      0.110700
     26 H22         3.1320   -0.1170   -0.1840 hx        1 88W      0.110700
     27 H6          6.3800   -0.7070    3.6820 ho        1 88W      0.491000
     28 H71C        5.4440    1.4130    2.9910 h1        1 88W      0.106200
     29 H72C        4.3320    2.5400    3.9140 h1        1 88W      0.106200
     30 H81         4.5760    1.3750    5.8950 hc        1 88W      0.118700
     31 H82         4.5040   -0.2580    5.1250 hc        1 88W      0.118700
     32 H11         6.7520    1.7840    6.6730 hn        1 88W      0.336700
     33 H14        10.8240    1.9090    8.7490 ha        1 88W      0.192000
     34 H3          1.4980   -0.8920    2.2020 hn        1 88W      0.480300
     35 H211       14.8810   -0.5660    4.8150 hc        1 88W      0.088700
     36 H212       15.0560   -0.7600    6.6180 hc        1 88W      0.088700
     37 H213       15.3070    0.8670    5.8560 hc        1 88W      0.088700
     38 H13         8.4150    2.0250    8.2080 ha        1 88W      0.152000
     39 H32         2.6010   -1.8710    1.4190 hn        1 88W      0.480300
     40 H62         2.5780    1.4290    3.0120 hn        1 88W      0.368500
     41 H17         9.1590    0.1000    4.3310 ha        1 88W      0.162000
@<TRIPOS>BOND
     1    1    4 1   
     2    1   22 1   
     3    1   23 1   
     4    1   24 1   
     5    2    3 ar  
     6    2    6 ar  
     7    2   33 1   
     8    3    7 ar  
     9    3   38 1   
    10    4   16 1   
    11    4   25 1   
    12    4   26 1   
    13    5    7 ar  
    14    5    8 ar  
    15    5   41 1   
    16    6    8 ar  
    17    6   15 1   
    18    7   17 1   
    19    8   21 1   
    20    9   12 1   
    21    9   15 2   
    22    9   21 1   
    23   10   13 1   
    24   10   17 2   
    25   10   19 1   
    26   11   16 1   
    27   11   18 1   
    28   11   20 2   
    29   12   35 1   
    30   12   36 1   
    31   12   37 1   
    32   13   14 1   
    33   13   30 1   
    34   13   31 1   
    35   14   18 1   
    36   14   28 1   
    37   14   29 1   
    38   16   34 1   
    39   16   39 1   
    40   17   32 1   
    41   18   40 1   
    42   19   27 1   
@<TRIPOS>SUBSTRUCTURE
     1 88W         1 TEMP              0 ****  ****    0 ROOT
