@<TRIPOS>MOLECULE
88W
   42    43     1     0     0
SMALL
bcc


@<TRIPOS>ATOM
      1 C1          0.9310    0.9950   -0.4300 c3        1 88W     -0.167100
      2 C14         9.4930    1.9370    6.7310 ca        1 88W     -0.033000
      3 C13         8.4470    1.0550    6.8800 ca        1 88W     -0.162000
      4 C2          2.1830    0.3030    0.0360 c3        1 88W      0.147800
      5 C17         9.8950   -0.8490    6.2760 ca        1 88W      0.003000
      6 C15        10.7680    1.4530    6.3440 ca        1 88W      0.152400
      7 C12         8.6470   -0.3350    6.6460 ca        1 88W     -0.138400
      8 C16        10.9600    0.0340    6.1220 ca        1 88W     -0.166100
      9 C19        12.9380    1.4340    5.8520 cc        1 88W      0.432200
     10 C9          6.6720   -1.4490    5.6920 c         1 88W      0.535100
     11 C4          3.6960   -0.0060    2.0080 c         1 88W      0.489100
     12 C21        14.3180    1.9020    5.6150 c3        1 88W     -0.154400
     13 C8          5.8500   -0.2690    5.2160 c3        1 88W     -0.189400
     14 C7          5.2220   -0.6450    3.8700 c3        1 88W      0.108800
     15 N20        11.9060    2.2240    6.1720 nd        1 88W     -0.518100
     16 N3          2.4750    0.6740    1.5080 n4        1 88W     -0.662800
     17 N11         7.5340   -1.2560    6.9000 n4        1 88W     -0.502200
     18 N6          4.2360    0.3870    3.3680 n4        1 88W     -0.659800
     19 O10         6.6790   -2.5480    5.1540 o         1 88W     -0.388100
     20 O5          4.2780   -0.8580    1.3620 o         1 88W     -0.255100
     21 S18        12.5680   -0.2530    5.7340 ss        1 88W      0.150900
     22 H11C        1.0160    2.1100   -0.4200 hc        1 88W      0.120700
     23 H12C        0.7750    0.6820   -1.5060 hc        1 88W      0.120700
     24 H13C        0.0190    0.6800    0.1380 hc        1 88W      0.120700
     25 H21         2.0770   -0.8210   -0.0030 hx        1 88W      0.136700
     26 H22         3.0840    0.6220   -0.5650 hx        1 88W      0.136700
     27 H6          3.4720    0.4820    4.0550 hn        1 88W      0.492300
     28 H71C        4.6750   -1.6340    3.9550 hx        1 88W      0.157700
     29 H72C        6.0360   -0.7610    3.0880 hx        1 88W      0.157700
     30 H81         5.0670   -0.0430    5.9920 hc        1 88W      0.131700
     31 H82         6.5250    0.6310    5.1200 hc        1 88W      0.131700
     32 H11         7.9190   -2.1790    7.1790 hn        1 88W      0.489300
     33 H14         9.3620    3.0160    6.9330 ha        1 88W      0.197000
     34 H3          2.5680    1.7020    1.5610 hn        1 88W      0.497800
     35 H211       14.9800    1.0490    5.3240 hc        1 88W      0.100367
     36 H212       14.3400    2.6740    4.8010 hc        1 88W      0.100367
     37 H213       14.7310    2.3790    6.5450 hc        1 88W      0.100367
     38 H13         7.4740    1.4310    7.2330 ha        1 88W      0.134000
     39 H32         1.6520    0.3890    2.0700 hn        1 88W      0.497800
     40 H112        6.9690   -0.8870    7.6800 hn        1 88W      0.489300
     41 H62         4.7190    1.2990    3.2850 hn        1 88W      0.492300
     42 H17        10.0590   -1.9310    6.1210 ha        1 88W      0.169000
@<TRIPOS>BOND
     1    1    4 1   
     2    1   22 1   
     3    1   23 1   
     4    1   24 1   
     5    2    3 ar  
     6    2    6 ar  
     7    2   33 1   
     8    3    7 ar  
     9    3   38 1   
    10    4   16 1   
    11    4   25 1   
    12    4   26 1   
    13    5    7 ar  
    14    5    8 ar  
    15    5   42 1   
    16    6    8 ar  
    17    6   15 1   
    18    7   17 1   
    19    8   21 1   
    20    9   12 1   
    21    9   15 2   
    22    9   21 1   
    23   10   13 1   
    24   10   17 1   
    25   10   19 2   
    26   11   16 1   
    27   11   18 1   
    28   11   20 2   
    29   12   35 1   
    30   12   36 1   
    31   12   37 1   
    32   13   14 1   
    33   13   30 1   
    34   13   31 1   
    35   14   18 1   
    36   14   28 1   
    37   14   29 1   
    38   16   34 1   
    39   16   39 1   
    40   17   32 1   
    41   17   40 1   
    42   18   27 1   
    43   18   41 1   
@<TRIPOS>SUBSTRUCTURE
     1 88W         1 TEMP              0 ****  ****    0 ROOT
