@<TRIPOS>MOLECULE
88X
   33    35     1     0     0
SMALL
bcc


@<TRIPOS>ATOM
      1 CAA        16.3930  -42.8840  -23.4910 c         1 88X      0.694700
      2 CAB        17.5760  -43.1150  -24.3550 cc        1 88X     -0.286200
      3 CAC        18.1150  -42.1270  -25.1270 cd        1 88X      0.034700
      4 NAD        15.7990  -41.5960  -23.4730 nc        1 88X     -0.409400
      5 CAE        16.3660  -40.6720  -24.2330 cd        1 88X      0.163400
      6 NAF        17.5300  -40.8630  -25.0760 na        1 88X     -0.109300
      7 CAG        17.8060  -39.6590  -25.7350 cc        1 88X     -0.071300
      8 CAH        16.8640  -38.7210  -25.3250 cd        1 88X     -0.177900
      9 NAI        16.0170  -39.3030  -24.3460 na        1 88X     -0.208100
     10 OAJ        15.9190  -43.7990  -22.7950 o         1 88X     -0.546100
     11 CAK        16.6860  -37.3340  -25.7830 c         1 88X      0.616300
     12 CAL        17.8410  -36.7010  -26.4500 ca        1 88X     -0.169600
     13 OAM        15.6040  -36.7510  -25.6320 o         1 88X     -0.517100
     14 CAN        19.3090  -42.3570  -26.0030 c3        1 88X     -0.051200
     15 CAO        18.9360  -42.4280  -27.4640 c3        1 88X     -0.098100
     16 CAP        19.1490  -36.9150  -25.9990 ca        1 88X     -0.087000
     17 CAQ        20.2160  -36.2820  -26.6340 ca        1 88X     -0.139500
     18 CAR        19.9850  -35.4380  -27.7210 ca        1 88X     -0.100000
     19 CAS        18.6820  -35.2180  -28.1680 ca        1 88X     -0.139500
     20 CAT        17.6100  -35.8390  -27.5310 ca        1 88X     -0.087000
     21 HAB        17.9990  -44.1290  -24.3450 ha        1 88X      0.171000
     22 HAG        18.6330  -39.5590  -26.4420 h4        1 88X      0.198000
     23 HNAI       15.1040  -38.9640  -24.1530 hn        1 88X      0.334700
     24 H1AN       19.7910  -43.3230  -25.6900 hc        1 88X      0.065200
     25 H2AN       20.0660  -41.5420  -25.8420 hc        1 88X      0.065200
     26 H1AO       19.8450  -42.6390  -28.0760 hc        1 88X      0.045033
     27 H2AO       18.1920  -43.2420  -27.6420 hc        1 88X      0.045033
     28 H3AO       18.4910  -41.4640  -27.8110 hc        1 88X      0.045033
     29 HAP        19.3320  -37.5690  -25.1320 ha        1 88X      0.147500
     30 HAQ        21.2420  -36.4440  -26.2720 ha        1 88X      0.141000
     31 HAR        20.8300  -34.9420  -28.2220 ha        1 88X      0.139000
     32 HAS        18.4970  -34.5460  -29.0200 ha        1 88X      0.141000
     33 HAT        16.5760  -35.6530  -27.8630 ha        1 88X      0.147500
@<TRIPOS>BOND
     1    1    2 1   
     2    1    4 1   
     3    1   10 2   
     4    2    3 2   
     5    2   21 1   
     6    3    6 1   
     7    3   14 1   
     8    4    5 2   
     9    5    6 1   
    10    5    9 1   
    11    6    7 1   
    12    7    8 2   
    13    7   22 1   
    14    8    9 1   
    15    8   11 1   
    16    9   23 1   
    17   11   12 1   
    18   11   13 2   
    19   12   16 ar  
    20   12   20 ar  
    21   14   15 1   
    22   14   24 1   
    23   14   25 1   
    24   15   26 1   
    25   15   27 1   
    26   15   28 1   
    27   16   17 ar  
    28   16   29 1   
    29   17   18 ar  
    30   17   30 1   
    31   18   19 ar  
    32   18   31 1   
    33   19   20 ar  
    34   19   32 1   
    35   20   33 1   
@<TRIPOS>SUBSTRUCTURE
     1 88X         1 TEMP              0 ****  ****    0 ROOT
