@<TRIPOS>MOLECULE
88X
   33    35     1     0     0
SMALL
bcc


@<TRIPOS>ATOM
      1 CAA         0.0410    0.0890    0.1010 c         1 88X      0.694700
      2 CAB         1.5210    0.0010    0.1370 cc        1 88X     -0.286200
      3 CAC         2.2170   -0.0460    1.3100 cd        1 88X      0.034700
      4 NAD        -0.6720    0.1370    1.3260 nc        1 88X     -0.409400
      5 CAE         0.0500    0.0810    2.4340 cd        1 88X      0.163400
      6 NAF         1.4950   -0.0220    2.5020 na        1 88X     -0.109300
      7 CAG         1.8790   -0.0330    3.8480 cc        1 88X     -0.070300
      8 CAH         0.7270    0.0470    4.6230 cd        1 88X     -0.177900
      9 NAI        -0.4110    0.0420    3.7740 na        1 88X     -0.208100
     10 OAJ        -0.5720    0.1290   -0.9790 o         1 88X     -0.546100
     11 CAK         0.6050    0.1410    6.0870 c         1 88X      0.616300
     12 CAL         1.7740   -0.2910    6.8790 ca        1 88X     -0.169600
     13 OAM        -0.4250    0.5870    6.6100 o         1 88X     -0.517100
     14 CAN         3.7130   -0.1340    1.3510 c3        1 88X     -0.051200
     15 CAO         4.3480    1.1740    1.7550 c3        1 88X     -0.098100
     16 CAP         2.5310   -1.4090    6.5110 ca        1 88X     -0.087000
     17 CAQ         3.6120   -1.8060    7.2940 ca        1 88X     -0.139500
     18 CAR         3.9460   -1.0890    8.4440 ca        1 88X     -0.100000
     19 CAS         3.1890    0.0220    8.8180 ca        1 88X     -0.139500
     20 CAT         2.0990    0.4170    8.0440 ca        1 88X     -0.087000
     21 HAB         2.0340   -0.0260   -0.8340 ha        1 88X      0.171000
     22 HAG         2.9270   -0.0880    4.1540 h4        1 88X      0.198000
     23 HNAI       -1.2910    0.4110    4.0500 hn        1 88X      0.334700
     24 H1AN        4.0300   -0.9470    2.0590 hc        1 88X      0.065200
     25 H2AN        4.0740   -0.4270    0.3270 hc        1 88X      0.065200
     26 H1AO        4.0370    1.4680    2.7870 hc        1 88X      0.045033
     27 H2AO        4.0510    1.9910    1.0530 hc        1 88X      0.045033
     28 H3AO        5.4600    1.0770    1.7340 hc        1 88X      0.045033
     29 HAP         2.2600   -1.9850    5.6120 ha        1 88X      0.147500
     30 HAQ         4.2000   -2.6910    7.0070 ha        1 88X      0.141000
     31 HAR         4.8030   -1.4040    9.0590 ha        1 88X      0.139000
     32 HAS         3.4460    0.5830    9.7290 ha        1 88X      0.141000
     33 HAT         1.4830    1.2800    8.3430 ha        1 88X      0.147500
@<TRIPOS>BOND
     1    1    2 1   
     2    1    4 1   
     3    1   10 2   
     4    2    3 2   
     5    2   21 1   
     6    3    6 1   
     7    3   14 1   
     8    4    5 2   
     9    5    6 1   
    10    5    9 1   
    11    6    7 1   
    12    7    8 2   
    13    7   22 1   
    14    8    9 1   
    15    8   11 1   
    16    9   23 1   
    17   11   12 1   
    18   11   13 2   
    19   12   16 ar  
    20   12   20 ar  
    21   14   15 1   
    22   14   24 1   
    23   14   25 1   
    24   15   26 1   
    25   15   27 1   
    26   15   28 1   
    27   16   17 ar  
    28   16   29 1   
    29   17   18 ar  
    30   17   30 1   
    31   18   19 ar  
    32   18   31 1   
    33   19   20 ar  
    34   19   32 1   
    35   20   33 1   
@<TRIPOS>SUBSTRUCTURE
     1 88X         1 TEMP              0 ****  ****    0 ROOT
