@<TRIPOS>MOLECULE
88X
   33    35     1     0     0
SMALL
bcc


@<TRIPOS>ATOM
      1 CAA         0.0340   -0.0420    0.1020 c         1 88X      0.694700
      2 CAB         1.5170   -0.0340    0.1370 cc        1 88X     -0.286200
      3 CAC         2.2150   -0.0380    1.3100 cd        1 88X      0.034700
      4 NAD        -0.6810   -0.0450    1.3260 nc        1 88X     -0.409400
      5 CAE         0.0440   -0.0570    2.4350 cd        1 88X      0.163400
      6 NAF         1.4920   -0.0650    2.5020 na        1 88X     -0.109300
      7 CAG         1.8770   -0.0550    3.8480 cc        1 88X     -0.070300
      8 CAH         0.7210   -0.0530    4.6240 cd        1 88X     -0.177900
      9 NAI        -0.4140   -0.1300    3.7740 na        1 88X     -0.208100
     10 OAJ        -0.5800   -0.0390   -0.9790 o         1 88X     -0.546100
     11 CAK         0.5940    0.0290    6.0880 c         1 88X      0.616300
     12 CAL         1.7880   -0.3270    6.8780 ca        1 88X     -0.169600
     13 OAM        -0.4630    0.4040    6.6120 o         1 88X     -0.517100
     14 CAN         3.7130   -0.0280    1.3510 c3        1 88X     -0.051200
     15 CAO         4.2600    1.3170    1.7590 c3        1 88X     -0.098100
     16 CAP         2.6170   -1.3920    6.5070 ca        1 88X     -0.087000
     17 CAQ         3.7230   -1.7200    7.2890 ca        1 88X     -0.139500
     18 CAR         4.0090   -0.9850    8.4410 ca        1 88X     -0.100000
     19 CAS         3.1810    0.0730    8.8180 ca        1 88X     -0.139500
     20 CAT         2.0680    0.3980    8.0450 ca        1 88X     -0.087000
     21 HAB         2.0300   -0.0240   -0.8340 ha        1 88X      0.171000
     22 HAG         2.9260   -0.0420    4.1540 h4        1 88X      0.198000
     23 HNAI       -1.3160    0.1800    4.0510 hn        1 88X      0.334700
     24 H1AN        4.0820   -0.8210    2.0570 hc        1 88X      0.065200
     25 H2AN        4.0910   -0.2940    0.3270 hc        1 88X      0.065200
     26 H1AO        3.9320    1.5870    2.7920 hc        1 88X      0.045033
     27 H2AO        3.9110    2.1150    1.0590 hc        1 88X      0.045033
     28 H3AO        5.3770    1.2930    1.7380 hc        1 88X      0.045033
     29 HAP         2.3850   -1.9820    5.6070 ha        1 88X      0.147500
     30 HAQ         4.3680   -2.5630    7.0000 ha        1 88X      0.141000
     31 HAR         4.8850   -1.2440    9.0550 ha        1 88X      0.139000
     32 HAS         3.4010    0.6470    9.7300 ha        1 88X      0.141000
     33 HAT         1.3960    1.2170    8.3470 ha        1 88X      0.147500
@<TRIPOS>BOND
     1    1    2 1   
     2    1    4 1   
     3    1   10 2   
     4    2    3 2   
     5    2   21 1   
     6    3    6 1   
     7    3   14 1   
     8    4    5 2   
     9    5    6 1   
    10    5    9 1   
    11    6    7 1   
    12    7    8 2   
    13    7   22 1   
    14    8    9 1   
    15    8   11 1   
    16    9   23 1   
    17   11   12 1   
    18   11   13 2   
    19   12   16 ar  
    20   12   20 ar  
    21   14   15 1   
    22   14   24 1   
    23   14   25 1   
    24   15   26 1   
    25   15   27 1   
    26   15   28 1   
    27   16   17 ar  
    28   16   29 1   
    29   17   18 ar  
    30   17   30 1   
    31   18   19 ar  
    32   18   31 1   
    33   19   20 ar  
    34   19   32 1   
    35   20   33 1   
@<TRIPOS>SUBSTRUCTURE
     1 88X         1 TEMP              0 ****  ****    0 ROOT
