@<TRIPOS>MOLECULE
88X
   33    27     1     0     0
SMALL
bcc


@<TRIPOS>ATOM
      1 CAA        -0.5520    0.3930   -3.9220 c1        1 88X      0.297000
      2 CAB         0.9940    0.5420   -3.9120 c1        1 88X     -0.269000
      3 CAC         1.7090    0.5610   -2.5910 c1        1 88X      0.069000
      4 NAD        -1.2620    0.2370   -2.6320 n2        1 88X     -0.271000
      5 CAE        -0.6340    0.5860   -1.5300 c1        1 88X      0.209000
      6 NAF         0.9280    0.5340   -1.4030 n2        1 88X     -0.186000
      7 CAG         1.1290    0.5250   -0.0400 c2        1 88X     -0.016000
      8 CAH        -0.0530    0.4620    0.6780 c1        1 88X     -0.152000
      9 NAI        -1.1750    0.3610   -0.1330 n3        1 88X     -0.211000
     10 OAJ        -1.1350    0.1760   -4.9660 o         1 88X     -0.306000
     11 CAK        -0.0640   -0.1450    2.0640 c1        1 88X      0.338000
     12 CAL        -1.3560   -0.2140    2.8490 c1        1 88X     -0.155000
     13 OAM         0.9700   -0.5450    2.5600 o         1 88X     -0.279000
     14 CAN         3.1700    0.9460   -2.5270 c2        1 88X     -0.135000
     15 CAO         3.9870   -0.0410   -3.3310 c3        1 88X     -0.216000
     16 CAP        -2.2650    0.7130    3.3350 c1        1 88X     -0.118500
     17 CAQ        -3.3450    0.2910    4.0940 c1        1 88X     -0.118500
     18 CAR        -3.5180   -1.0570    4.3660 c1        1 88X     -0.118500
     19 CAS        -2.6090   -1.9830    3.8800 c1        1 88X     -0.118500
     20 CAT        -1.5280   -1.5620    3.1220 c1        1 88X     -0.082000
     21 HAB         1.4890    0.6460   -4.7470 ha        1 88X      0.171000
     22 HAG         1.9460    0.1420    0.3310 h4        1 88X      0.206000
     23 HNAI       -2.0480    0.3100    0.1260 hn        1 88X      0.274000
     24 H1AN        3.4700    0.9350   -1.5960 ha        1 88X      0.106500
     25 H2AN        3.2870    1.8440   -2.8960 ha        1 88X      0.106500
     26 H1AO        3.5450   -0.9160   -3.3200 hc        1 88X      0.084667
     27 H2AO        4.0640    0.2750   -4.2550 hc        1 88X      0.084667
     28 H3AO        4.8810   -0.1220   -2.9380 hc        1 88X      0.084667
     29 HAP        -2.1430    1.6620    3.1440 ha        1 88X      0.142750
     30 HAQ        -3.9850    0.9440    4.4360 ha        1 88X      0.142750
     31 HAR        -4.2790   -1.3540    4.9000 ha        1 88X      0.142750
     32 HAS        -2.7300   -2.9330    4.0720 ha        1 88X      0.142750
     33 HAT        -0.8880   -2.2150    2.7790 ha        1 88X      0.148000
@<TRIPOS>BOND
     1    1    4 1   
     2    1   10 1   
     3    2    3 1   
     4    2   21 1   
     5    3    6 1   
     6    4    5 1   
     7    5    9 1   
     8    6    7 1   
     9    7    8 1   
    10    7   22 1   
    11    8    9 1   
    12    9   23 1   
    13   11   13 1   
    14   12   20 1   
    15   14   15 1   
    16   14   24 1   
    17   14   25 1   
    18   15   26 1   
    19   15   27 1   
    20   15   28 1   
    21   16   17 1   
    22   16   29 1   
    23   17   30 1   
    24   18   19 1   
    25   18   31 1   
    26   19   32 1   
    27   20   33 1   
@<TRIPOS>SUBSTRUCTURE
     1 88X         1 TEMP              0 ****  ****    0 ROOT
