@<TRIPOS>MOLECULE
88X
   33    35     1     0     0
SMALL
bcc


@<TRIPOS>ATOM
      1 CAA         0.0190    0.0400    0.1110 c         1 88X      0.694700
      2 CAB         1.5010    0.0060    0.1410 cc        1 88X     -0.286200
      3 CAC         2.2040   -0.0240    1.3100 cd        1 88X      0.034700
      4 NAD        -0.6900    0.0510    1.3390 nc        1 88X     -0.409400
      5 CAE         0.0380    0.0130    2.4450 cd        1 88X      0.163400
      6 NAF         1.4860   -0.0370    2.5060 na        1 88X     -0.109300
      7 CAG         1.8760   -0.0440    3.8500 cc        1 88X     -0.070300
      8 CAH         0.7250   -0.0130    4.6300 cd        1 88X     -0.177900
      9 NAI        -0.4160   -0.0530    3.7850 na        1 88X     -0.208100
     10 OAJ        -0.6000    0.0660   -0.9660 o         1 88X     -0.546100
     11 CAK         0.6060    0.0650    6.0950 c         1 88X      0.616300
     12 CAL         1.7930   -0.3290    6.8790 ca        1 88X     -0.169600
     13 OAM        -0.4380    0.4670    6.6260 o         1 88X     -0.517100
     14 CAN         3.7020   -0.0570    1.3450 c3        1 88X     -0.051200
     15 CAO         4.2890    1.2700    1.7570 c3        1 88X     -0.098100
     16 CAP         2.5900   -1.4150    6.4990 ca        1 88X     -0.087000
     17 CAQ         3.6890   -1.7780    7.2750 ca        1 88X     -0.139500
     18 CAR         4.0010   -1.0570    8.4280 ca        1 88X     -0.100000
     19 CAS         3.2050    0.0220    8.8140 ca        1 88X     -0.139500
     20 CAT         2.0980    0.3820    8.0480 ca        1 88X     -0.087000
     21 HAB         2.0100    0.0070   -0.8330 ha        1 88X      0.171000
     22 HAG         2.9260   -0.0620    4.1510 h4        1 88X      0.198000
     23 HNAI       -1.3070    0.2800    4.0670 hn        1 88X      0.334700
     24 H1AN        4.0520   -0.8640    2.0450 hc        1 88X      0.065200
     25 H2AN        4.0690   -0.3280    0.3170 hc        1 88X      0.065200
     26 H1AO        3.9720    1.5440    2.7930 hc        1 88X      0.045033
     27 H2AO        3.9600    2.0820    1.0630 hc        1 88X      0.045033
     28 H3AO        5.4050    1.2140    1.7320 hc        1 88X      0.045033
     29 HAP         2.3360   -1.9940    5.5970 ha        1 88X      0.147500
     30 HAQ         4.3080   -2.6380    6.9790 ha        1 88X      0.141000
     31 HAR         4.8720   -1.3440    9.0370 ha        1 88X      0.139000
     32 HAS         3.4460    0.5860    9.7270 ha        1 88X      0.141000
     33 HAT         1.4510    1.2190    8.3560 ha        1 88X      0.147500
@<TRIPOS>BOND
     1    1    2 1   
     2    1    4 1   
     3    1   10 2   
     4    2    3 2   
     5    2   21 1   
     6    3    6 1   
     7    3   14 1   
     8    4    5 2   
     9    5    6 1   
    10    5    9 1   
    11    6    7 1   
    12    7    8 2   
    13    7   22 1   
    14    8    9 1   
    15    8   11 1   
    16    9   23 1   
    17   11   12 1   
    18   11   13 2   
    19   12   16 ar  
    20   12   20 ar  
    21   14   15 1   
    22   14   24 1   
    23   14   25 1   
    24   15   26 1   
    25   15   27 1   
    26   15   28 1   
    27   16   17 ar  
    28   16   29 1   
    29   17   18 ar  
    30   17   30 1   
    31   18   19 ar  
    32   18   31 1   
    33   19   20 ar  
    34   19   32 1   
    35   20   33 1   
@<TRIPOS>SUBSTRUCTURE
     1 88X         1 TEMP              0 ****  ****    0 ROOT
