@<TRIPOS>MOLECULE
88Z
   80    85     1     0     0
SMALL
bcc


@<TRIPOS>ATOM
      1 C1          0.5210    1.0340    0.2530 ca        1 88Z      0.108100
      2 C2          1.7270    0.2680    0.0670 ca        1 88Z      0.139100
      3 C3          2.1220   -0.6550    1.0080 ca        1 88Z     -0.252300
      4 C4          1.3390   -0.8690    2.1870 ca        1 88Z      0.425600
      5 C5          0.1450   -0.1050    2.3560 ca        1 88Z     -0.150300
      6 C6         -0.2470    0.8430    1.3790 ca        1 88Z     -0.161000
      7 N7          1.7610   -1.7990    3.1190 nb        1 88Z     -0.678000
      8 C8          1.0170   -1.9720    4.1980 ca        1 88Z      0.437200
      9 C9         -0.1930   -1.2710    4.4730 ca        1 88Z     -0.329300
     10 C10        -0.6180   -0.3420    3.5460 ca        1 88Z      0.168100
     11 O11         0.2420    1.9230   -0.7630 os        1 88Z     -0.301900
     12 C12        -0.9300    2.7130   -0.5900 c3        1 88Z      0.107700
     13 O13         2.4000    0.5520   -1.1000 os        1 88Z     -0.304900
     14 O14        -1.7670    0.4280    3.6610 os        1 88Z     -0.234200
     15 C15        -2.5700    0.1790    4.7720 ca        1 88Z      0.012100
     16 C16        -3.3680   -0.9670    4.8440 ca        1 88Z     -0.088000
     17 C17        -4.2670   -1.1270    5.8860 ca        1 88Z     -0.186000
     18 C18        -4.3950   -0.1320    6.8910 ca        1 88Z      0.098600
     19 C19        -3.5920    1.0220    6.8190 ca        1 88Z     -0.197000
     20 C20        -2.6750    1.1770    5.7640 ca        1 88Z      0.161900
     21 F21        -1.9120    2.2900    5.7040 f         1 88Z     -0.118900
     22 N22        -5.3350   -0.3440    7.9090 n         1 88Z     -0.461100
     23 C23         3.6110   -0.1860   -1.3170 c3        1 88Z      0.123400
     24 C24         4.1500    0.3060   -2.6500 c3        1 88Z     -0.087400
     25 C25         5.5170   -0.3280   -2.8960 c3        1 88Z      0.171800
     26 N26         6.0220   -0.1290   -4.2470 n3        1 88Z     -0.723600
     27 C27         6.1850    1.2770   -4.5930 c3        1 88Z      0.130800
     28 C28         6.8160    1.4770   -5.9760 c3        1 88Z      0.126400
     29 O29         8.0260    0.7430   -6.1170 os        1 88Z     -0.415600
     30 C30         7.8410   -0.6450   -5.8650 c3        1 88Z      0.126400
     31 C31         7.2440   -0.8930   -4.4750 c3        1 88Z      0.130800
     32 C32        -5.5270    0.4250    9.0460 c         1 88Z      0.705100
     33 C33        -6.6140   -0.0610    9.9740 cx        1 88Z     -0.309000
     34 C34        -6.4630   -1.5140   10.3460 c         1 88Z      0.703100
     35 N35        -6.0060   -1.7640   11.6250 n         1 88Z     -0.453100
     36 O36        -4.8860    1.4580    9.3070 o         1 88Z     -0.577100
     37 O37        -6.7370   -2.4060    9.5190 o         1 88Z     -0.599100
     38 C38        -5.7450   -3.0220   12.2000 ca        1 88Z      0.044600
     39 C39        -5.0060   -3.0670   13.4070 ca        1 88Z     -0.138500
     40 C40        -4.7390   -4.2770   14.0300 ca        1 88Z     -0.140500
     41 C41        -5.2020   -5.4770   13.4600 ca        1 88Z      0.104900
     42 C42        -5.9340   -5.4440   12.2610 ca        1 88Z     -0.140500
     43 C43        -6.2040   -4.2320   11.6390 ca        1 88Z     -0.138500
     44 F44        -4.9410   -6.6590   14.0670 f         1 88Z     -0.137900
     45 C45        -8.0110    0.4880    9.7730 cx        1 88Z     -0.087400
     46 C46        -7.1990    0.9390   10.9450 cx        1 88Z     -0.087400
     47 H3          3.0420   -1.2460    0.8780 ha        1 88Z      0.159000
     48 H6         -1.1720    1.4150    1.5500 ha        1 88Z      0.160000
     49 H8          1.3830   -2.7210    4.9260 h4        1 88Z      0.022100
     50 H9         -0.7510   -1.4730    5.3950 ha        1 88Z      0.155000
     51 H12        -0.8520    3.3410    0.3300 h1        1 88Z      0.046700
     52 H12A       -1.8390    2.0640   -0.5460 h1        1 88Z      0.046700
     53 H12B       -0.9450    3.3530   -1.5080 h1        1 88Z      0.046700
     54 H16        -3.2740   -1.7390    4.0640 ha        1 88Z      0.157000
     55 H17        -4.8850   -2.0380    5.9220 ha        1 88Z      0.147000
     56 H19        -3.6570    1.8210    7.5770 ha        1 88Z      0.191000
     57 HN22       -5.8810   -1.1810    7.8310 hn        1 88Z      0.348500
     58 H23         4.3320    0.0250   -0.4830 h1        1 88Z      0.043200
     59 H23A        3.3810   -1.2830   -1.3510 h1        1 88Z      0.043200
     60 H24         3.4310    0.0370   -3.4660 hc        1 88Z      0.067200
     61 H24A        4.2310    1.4230   -2.6260 hc        1 88Z      0.067200
     62 H25         5.4300   -1.4420   -2.7390 h1        1 88Z      0.032700
     63 H25A        6.2380    0.0670   -2.1190 h1        1 88Z      0.032700
     64 H27         5.1620    1.7480   -4.6010 h1        1 88Z      0.041700
     65 H27A        6.8140    1.8220   -3.8310 h1        1 88Z      0.041700
     66 H28         7.1220    2.5480   -6.1090 h1        1 88Z      0.053950
     67 H28A        6.0990    1.1770   -6.7850 h1        1 88Z      0.053950
     68 H30         8.8720   -1.0810   -5.9240 h1        1 88Z      0.053950
     69 H30A        7.1880   -1.0880   -6.6620 h1        1 88Z      0.053950
     70 H31         8.0320   -0.6570   -3.7020 h1        1 88Z      0.041700
     71 H31A        6.9870   -1.9850   -4.3870 h1        1 88Z      0.041700
     72 HN35       -5.7390   -0.9740   12.1730 hn        1 88Z      0.328500
     73 H39        -4.6320   -2.1400   13.8700 ha        1 88Z      0.156500
     74 H40        -4.1650   -4.3060   14.9680 ha        1 88Z      0.153000
     75 H42        -6.2930   -6.3850   11.8170 ha        1 88Z      0.153000
     76 H43        -6.7790   -4.2330   10.6970 ha        1 88Z      0.156500
     77 H45        -8.1830    1.1850    8.9320 hc        1 88Z      0.094200
     78 H45A       -8.8660   -0.1940    9.9300 hc        1 88Z      0.094200
     79 H46        -7.4840    0.6060   11.9590 hc        1 88Z      0.094200
     80 H46A       -6.7680    1.9600   10.9450 hc        1 88Z      0.094200
@<TRIPOS>BOND
     1    1    2 ar  
     2    1    6 ar  
     3    1   11 1   
     4    2    3 ar  
     5    2   13 1   
     6    3    4 ar  
     7    3   47 1   
     8    4    5 ar  
     9    4    7 ar  
    10    5    6 ar  
    11    5   10 ar  
    12    6   48 1   
    13    7    8 ar  
    14    8    9 ar  
    15    8   49 1   
    16    9   10 ar  
    17    9   50 1   
    18   10   14 1   
    19   11   12 1   
    20   12   51 1   
    21   12   52 1   
    22   12   53 1   
    23   13   23 1   
    24   14   15 1   
    25   15   16 ar  
    26   15   20 ar  
    27   16   17 ar  
    28   16   54 1   
    29   17   18 ar  
    30   17   55 1   
    31   18   19 ar  
    32   18   22 1   
    33   19   20 ar  
    34   19   56 1   
    35   20   21 1   
    36   22   32 1   
    37   22   57 1   
    38   23   24 1   
    39   23   58 1   
    40   23   59 1   
    41   24   25 1   
    42   24   60 1   
    43   24   61 1   
    44   25   26 1   
    45   25   62 1   
    46   25   63 1   
    47   26   27 1   
    48   26   31 1   
    49   27   28 1   
    50   27   64 1   
    51   27   65 1   
    52   28   29 1   
    53   28   66 1   
    54   28   67 1   
    55   29   30 1   
    56   30   31 1   
    57   30   68 1   
    58   30   69 1   
    59   31   70 1   
    60   31   71 1   
    61   32   33 1   
    62   32   36 2   
    63   33   34 1   
    64   33   45 1   
    65   33   46 1   
    66   34   35 1   
    67   34   37 2   
    68   35   38 1   
    69   35   72 1   
    70   38   39 ar  
    71   38   43 ar  
    72   39   40 ar  
    73   39   73 1   
    74   40   41 ar  
    75   40   74 1   
    76   41   42 ar  
    77   41   44 1   
    78   42   43 ar  
    79   42   75 1   
    80   43   76 1   
    81   45   46 1   
    82   45   77 1   
    83   45   78 1   
    84   46   79 1   
    85   46   80 1   
@<TRIPOS>SUBSTRUCTURE
     1 88Z         1 TEMP              0 ****  ****    0 ROOT
