@<TRIPOS>MOLECULE
88Z
   80    85     1     0     0
SMALL
bcc


@<TRIPOS>ATOM
      1 C1          0.5160    1.0250    0.2480 ca        1 88Z      0.108100
      2 C2          1.7290    0.2680    0.0690 ca        1 88Z      0.139100
      3 C3          2.1290   -0.6470    1.0150 ca        1 88Z     -0.252300
      4 C4          1.3430   -0.8610    2.1930 ca        1 88Z      0.425600
      5 C5          0.1420   -0.1060    2.3550 ca        1 88Z     -0.150300
      6 C6         -0.2540    0.8340    1.3710 ca        1 88Z     -0.161000
      7 N7          1.7700   -1.7840    3.1310 nb        1 88Z     -0.678000
      8 C8          1.0240   -1.9580    4.2080 ca        1 88Z      0.437200
      9 C9         -0.1930   -1.2650    4.4760 ca        1 88Z     -0.329300
     10 C10        -0.6230   -0.3440    3.5430 ca        1 88Z      0.168100
     11 O11         0.2340    1.9070   -0.7740 os        1 88Z     -0.301900
     12 C12        -0.9460    2.6880   -0.6090 c3        1 88Z      0.107700
     13 O13         2.4040    0.5530   -1.0970 os        1 88Z     -0.304900
     14 O14        -1.7790    0.4170    3.6510 os        1 88Z     -0.234200
     15 C15        -2.5820    0.1670    4.7610 ca        1 88Z      0.012100
     16 C16        -3.3700   -0.9860    4.8370 ca        1 88Z     -0.088000
     17 C17        -4.2710   -1.1480    5.8780 ca        1 88Z     -0.186000
     18 C18        -4.4100   -0.1470    6.8760 ca        1 88Z      0.098600
     19 C19        -3.6190    1.0130    6.7990 ca        1 88Z     -0.197000
     20 C20        -2.7000    1.1700    5.7460 ca        1 88Z      0.161900
     21 F21        -1.9470    2.2890    5.6810 f         1 88Z     -0.118900
     22 N22        -5.3510   -0.3620    7.8940 ns        1 88Z     -0.461100
     23 C23         3.6210   -0.1780   -1.3070 c3        1 88Z      0.123400
     24 C24         4.1600    0.3110   -2.6410 c3        1 88Z     -0.087400
     25 C25         5.5310   -0.3160   -2.8810 c3        1 88Z      0.171800
     26 N26         6.0370   -0.1180   -4.2320 n3        1 88Z     -0.723600
     27 C27         6.1950    1.2880   -4.5830 c3        1 88Z      0.130800
     28 C28         6.8280    1.4860   -5.9640 c3        1 88Z      0.126400
     29 O29         8.0420    0.7570   -6.1000 os        1 88Z     -0.415600
     30 C30         7.8630   -0.6310   -5.8440 c3        1 88Z      0.126400
     31 C31         7.2630   -0.8770   -4.4550 c3        1 88Z      0.130800
     32 C32        -5.5550    0.4130    9.0240 c         1 88Z      0.705100
     33 C33        -6.6390   -0.0790    9.9530 cx        1 88Z     -0.309000
     34 C34        -6.4710   -1.5270   10.3370 c         1 88Z      0.703100
     35 N35        -6.0140   -1.7610   11.6190 ns        1 88Z     -0.453100
     36 O36        -4.9260    1.4550    9.2780 o         1 88Z     -0.577100
     37 O37        -6.7320   -2.4280    9.5160 o         1 88Z     -0.599100
     38 C38        -5.7380   -3.0110   12.2030 ca        1 88Z      0.044600
     39 C39        -5.0020   -3.0380   13.4130 ca        1 88Z     -0.138500
     40 C40        -4.7210   -4.2390   14.0460 ca        1 88Z     -0.140500
     41 C41        -5.1670   -5.4490   13.4840 ca        1 88Z      0.104900
     42 C42        -5.8970   -5.4350   12.2840 ca        1 88Z     -0.140500
     43 C43        -6.1810   -4.2310   11.6510 ca        1 88Z     -0.138500
     44 F44        -4.8930   -6.6240   14.1010 f         1 88Z     -0.137900
     45 C45        -8.0410    0.4520    9.7440 cx        1 88Z     -0.087400
     46 C46        -7.2390    0.9220   10.9150 cx        1 88Z     -0.087400
     47 H3          3.0540   -1.2300    0.8920 ha        1 88Z      0.159000
     48 H6         -1.1840    1.3980    1.5370 ha        1 88Z      0.160000
     49 H8          1.3930   -2.7000    4.9410 h4        1 88Z      0.022100
     50 H9         -0.7520   -1.4680    5.3970 ha        1 88Z      0.155000
     51 H12        -0.8750    3.3210    0.3090 h1        1 88Z      0.046700
     52 H12A       -1.8490    2.0330   -0.5640 h1        1 88Z      0.046700
     53 H12B       -0.9630    3.3250   -1.5300 h1        1 88Z      0.046700
     54 H16        -3.2670   -1.7620    4.0620 ha        1 88Z      0.157000
     55 H17        -4.8800   -2.0650    5.9180 ha        1 88Z      0.147000
     56 H19        -3.6930    1.8160    7.5520 ha        1 88Z      0.191000
     57 HN22       -5.8880   -1.2060    7.8200 hn        1 88Z      0.348500
     58 H23         3.3980   -1.2770   -1.3360 h1        1 88Z      0.043200
     59 H23A        4.3370    0.0420   -0.4720 h1        1 88Z      0.043200
     60 H24         4.2340    1.4300   -2.6210 hc        1 88Z      0.067200
     61 H24A        3.4440    0.0350   -3.4570 hc        1 88Z      0.067200
     62 H25         6.2470    0.0860   -2.1040 h1        1 88Z      0.032700
     63 H25A        5.4490   -1.4290   -2.7200 h1        1 88Z      0.032700
     64 H27         6.8200    1.8380   -3.8200 h1        1 88Z      0.041700
     65 H27A        5.1700    1.7530   -4.5950 h1        1 88Z      0.041700
     66 H28         6.1150    1.1790   -6.7740 h1        1 88Z      0.053950
     67 H28A        7.1290    2.5580   -6.1000 h1        1 88Z      0.053950
     68 H30         7.2130   -1.0790   -6.6410 h1        1 88Z      0.053950
     69 H30A        8.8960   -1.0620   -5.8990 h1        1 88Z      0.053950
     70 H31         7.0120   -1.9700   -4.3640 h1        1 88Z      0.041700
     71 H31A        8.0490   -0.6350   -3.6800 h1        1 88Z      0.041700
     72 HN35       -5.7570   -0.9640   12.1610 hn        1 88Z      0.328500
     73 H39        -4.6400   -2.1030   13.8700 ha        1 88Z      0.156500
     74 H40        -4.1490   -4.2540   14.9860 ha        1 88Z      0.153000
     75 H42        -6.2430   -6.3840   11.8460 ha        1 88Z      0.153000
     76 H43        -6.7530   -4.2470   10.7080 ha        1 88Z      0.156500
     77 H45        -8.8890   -0.2390    9.9040 hc        1 88Z      0.094200
     78 H45A       -8.2200    1.1400    8.8980 hc        1 88Z      0.094200
     79 H46        -6.8190    1.9470   10.9080 hc        1 88Z      0.094200
     80 H46A       -7.5210    0.5930   11.9310 hc        1 88Z      0.094200
@<TRIPOS>BOND
     1    1    2 ar  
     2    1    6 ar  
     3    1   11 1   
     4    2    3 ar  
     5    2   13 1   
     6    3    4 ar  
     7    3   47 1   
     8    4    5 ar  
     9    4    7 ar  
    10    5    6 ar  
    11    5   10 ar  
    12    6   48 1   
    13    7    8 ar  
    14    8    9 ar  
    15    8   49 1   
    16    9   10 ar  
    17    9   50 1   
    18   10   14 1   
    19   11   12 1   
    20   12   51 1   
    21   12   52 1   
    22   12   53 1   
    23   13   23 1   
    24   14   15 1   
    25   15   16 ar  
    26   15   20 ar  
    27   16   17 ar  
    28   16   54 1   
    29   17   18 ar  
    30   17   55 1   
    31   18   19 ar  
    32   18   22 1   
    33   19   20 ar  
    34   19   56 1   
    35   20   21 1   
    36   22   32 1   
    37   22   57 1   
    38   23   24 1   
    39   23   58 1   
    40   23   59 1   
    41   24   25 1   
    42   24   60 1   
    43   24   61 1   
    44   25   26 1   
    45   25   62 1   
    46   25   63 1   
    47   26   27 1   
    48   26   31 1   
    49   27   28 1   
    50   27   64 1   
    51   27   65 1   
    52   28   29 1   
    53   28   66 1   
    54   28   67 1   
    55   29   30 1   
    56   30   31 1   
    57   30   68 1   
    58   30   69 1   
    59   31   70 1   
    60   31   71 1   
    61   32   33 1   
    62   32   36 2   
    63   33   34 1   
    64   33   45 1   
    65   33   46 1   
    66   34   35 1   
    67   34   37 2   
    68   35   38 1   
    69   35   72 1   
    70   38   39 ar  
    71   38   43 ar  
    72   39   40 ar  
    73   39   73 1   
    74   40   41 ar  
    75   40   74 1   
    76   41   42 ar  
    77   41   44 1   
    78   42   43 ar  
    79   42   75 1   
    80   43   76 1   
    81   45   46 1   
    82   45   77 1   
    83   45   78 1   
    84   46   79 1   
    85   46   80 1   
@<TRIPOS>SUBSTRUCTURE
     1 88Z         1 TEMP              0 ****  ****    0 ROOT
