@<TRIPOS>MOLECULE
88Z
   82    87     1     0     0
SMALL
bcc


@<TRIPOS>ATOM
      1 C1          1.6010    0.3570    2.7080 ca        1 88Z      0.146100
      2 C2          2.2750   -0.2480    1.5800 ca        1 88Z      0.157100
      3 C3          2.8610   -1.4870    1.7040 ca        1 88Z     -0.248300
      4 C4          2.8020   -2.1970    2.9460 ca        1 88Z      0.424600
      5 C5          2.0980   -1.6010    4.0430 ca        1 88Z     -0.133300
      6 C6          1.5150   -0.3160    3.9050 ca        1 88Z     -0.206000
      7 N7          3.4240   -3.4230    3.0510 nb        1 88Z     -0.620000
      8 C8          3.3680   -4.0620    4.2080 ca        1 88Z      0.414200
      9 C9          2.6820   -3.5770    5.3620 ca        1 88Z     -0.255300
     10 C10         2.0510   -2.3550    5.2490 ca        1 88Z      0.077100
     11 O11         1.0660    1.5960    2.4550 os        1 88Z     -0.287900
     12 C12         0.6880    2.3610    3.5970 c3        1 88Z      0.107700
     13 O13         2.2590    0.5180    0.4460 os        1 88Z     -0.296900
     14 O14         1.4480   -1.7510    6.3710 os        1 88Z     -0.193200
     15 C15         0.3030   -2.3200    6.8380 ca        1 88Z      0.191100
     16 C16        -0.3660   -3.4050    6.2510 ca        1 88Z     -0.169000
     17 C17        -1.5290   -3.9090    6.8160 ca        1 88Z     -0.057000
     18 C18        -2.0430   -3.3220    7.9870 ca        1 88Z     -0.131400
     19 C19        -1.3970   -2.2300    8.5970 ca        1 88Z     -0.134000
     20 C20        -0.2290   -1.7200    8.0270 ca        1 88Z      0.128900
     21 F21         0.3970   -0.6710    8.5950 f         1 88Z     -0.079900
     22 N22        -3.2290   -3.9010    8.6280 n4        1 88Z     -0.514200
     23 C23         2.9770   -0.0090   -0.6870 c3        1 88Z      0.121400
     24 C24         2.8160    1.0340   -1.7790 c3        1 88Z     -0.088400
     25 C25         3.6240    0.5990   -3.0010 c3        1 88Z      0.173800
     26 N26         3.3310    1.3820   -4.1930 n3        1 88Z     -0.725600
     27 C27         3.6950    2.7870   -4.0520 c3        1 88Z      0.129300
     28 C28         3.4880    3.5840   -5.3450 c3        1 88Z      0.126400
     29 O29         4.1340    2.9680   -6.4510 os        1 88Z     -0.407600
     30 C30         3.7000    1.6270   -6.6430 c3        1 88Z      0.126400
     31 C31         3.9200    0.7790   -5.3850 c3        1 88Z      0.129300
     32 C32        -4.4720   -3.6740    7.8100 c         1 88Z      0.570100
     33 C33        -5.2620   -2.4310    8.0840 cx        1 88Z     -0.366000
     34 C34        -5.8560   -2.4340    9.4440 c         1 88Z      0.593100
     35 N35        -7.2790   -1.9920    9.6250 n4        1 88Z     -0.512200
     36 O36        -4.7500   -4.5130    6.9690 o         1 88Z     -0.360100
     37 O37        -5.2660   -2.8060   10.4540 o         1 88Z     -0.438100
     38 C38        -7.3910   -0.5560    9.9140 ca        1 88Z     -0.129400
     39 C39        -8.0950    0.2810    9.0270 ca        1 88Z     -0.068500
     40 C40        -8.2580    1.6220    9.3360 ca        1 88Z     -0.146000
     41 C41        -7.7230    2.1410   10.5380 ca        1 88Z      0.230900
     42 C42        -7.0220    1.2920   11.4250 ca        1 88Z     -0.146000
     43 C43        -6.8600   -0.0500   11.1180 ca        1 88Z     -0.068500
     44 F44        -7.8830    3.4380   10.8370 f         1 88Z     -0.067900
     45 C45        -5.9300   -1.7930    6.8680 cx        1 88Z     -0.044400
     46 C46        -4.7570   -1.1170    7.4780 cx        1 88Z     -0.044400
     47 H3          3.3970   -1.9510    0.8600 ha        1 88Z      0.178000
     48 H6          1.0270    0.1370    4.7790 ha        1 88Z      0.143000
     49 H8          3.8990   -5.0330    4.2580 h4        1 88Z      0.047100
     50 H9          2.6840   -4.1570    6.2940 ha        1 88Z      0.158000
     51 H12         1.5330    2.4420    4.3230 h1        1 88Z      0.049367
     52 H12A       -0.2090    1.9090    4.0850 h1        1 88Z      0.049367
     53 H12B        0.4390    3.3630    3.1610 h1        1 88Z      0.049367
     54 H16         0.0470   -3.8650    5.3340 ha        1 88Z      0.202000
     55 H17        -2.0320   -4.7670    6.3360 ha        1 88Z      0.171000
     56 H19        -1.7660   -1.7730    9.5300 ha        1 88Z      0.165000
     57 HN22       -3.0730   -4.9200    8.7140 hn        1 88Z      0.479800
     58 H23         4.0540   -0.1510   -0.4080 h1        1 88Z      0.049200
     59 H23A        2.5250   -0.9900   -0.9870 h1        1 88Z      0.049200
     60 H24         1.7310    1.1430   -2.0360 hc        1 88Z      0.069700
     61 H24A        3.1750    2.0260   -1.4010 hc        1 88Z      0.069700
     62 H25         4.7220    0.6360   -2.7330 h1        1 88Z      0.034200
     63 H25A        3.3700   -0.4750   -3.2360 h1        1 88Z      0.034200
     64 H27         4.7700    2.9050   -3.7270 h1        1 88Z      0.041200
     65 H27A        3.0390    3.2320   -3.2530 h1        1 88Z      0.041200
     66 H28         2.3940    3.7030   -5.5660 h1        1 88Z      0.057700
     67 H28A        3.9770    4.5900   -5.2600 h1        1 88Z      0.057700
     68 H30         4.3380    1.2430   -7.4820 h1        1 88Z      0.057700
     69 H30A        2.6200    1.6190   -6.9430 h1        1 88Z      0.057700
     70 H31         5.0290    0.6100   -5.2580 h1        1 88Z      0.041200
     71 H31A        3.4300   -0.2230   -5.5410 h1        1 88Z      0.041200
     72 HN35       -7.8260   -2.2170    8.7820 hn        1 88Z      0.483300
     73 H39        -8.5430   -0.1070    8.0950 ha        1 88Z      0.166500
     74 H40        -8.8160    2.2910    8.6560 ha        1 88Z      0.202500
     75 H42        -6.6180    1.7040   12.3680 ha        1 88Z      0.202500
     76 H43        -6.3230   -0.7050   11.8270 ha        1 88Z      0.166500
     77 H45        -5.8210   -2.3210    5.8950 hc        1 88Z      0.127700
     78 H45A       -6.9360   -1.3420    6.9670 hc        1 88Z      0.127700
     79 H46        -3.7760   -1.1330    6.9590 hc        1 88Z      0.127700
     80 H46A       -4.8960   -0.1850    8.0630 hc        1 88Z      0.127700
     81 H222       -3.3410   -3.4980    9.5700 hn        1 88Z      0.479800
     82 H352       -7.6790   -2.5050   10.4320 hn        1 88Z      0.483300
@<TRIPOS>BOND
     1    1    2 ar  
     2    1    6 ar  
     3    1   11 1   
     4    2    3 ar  
     5    2   13 1   
     6    3    4 ar  
     7    3   47 1   
     8    4    5 ar  
     9    4    7 ar  
    10    5    6 ar  
    11    5   10 ar  
    12    6   48 1   
    13    7    8 ar  
    14    8    9 ar  
    15    8   49 1   
    16    9   10 ar  
    17    9   50 1   
    18   10   14 1   
    19   11   12 1   
    20   12   51 1   
    21   12   52 1   
    22   12   53 1   
    23   13   23 1   
    24   14   15 1   
    25   15   16 ar  
    26   15   20 ar  
    27   16   17 ar  
    28   16   54 1   
    29   17   18 ar  
    30   17   55 1   
    31   18   19 ar  
    32   18   22 1   
    33   19   20 ar  
    34   19   56 1   
    35   20   21 1   
    36   22   32 1   
    37   22   57 1   
    38   22   81 1   
    39   23   24 1   
    40   23   58 1   
    41   23   59 1   
    42   24   25 1   
    43   24   60 1   
    44   24   61 1   
    45   25   26 1   
    46   25   62 1   
    47   25   63 1   
    48   26   27 1   
    49   26   31 1   
    50   27   28 1   
    51   27   64 1   
    52   27   65 1   
    53   28   29 1   
    54   28   66 1   
    55   28   67 1   
    56   29   30 1   
    57   30   31 1   
    58   30   68 1   
    59   30   69 1   
    60   31   70 1   
    61   31   71 1   
    62   32   33 1   
    63   32   36 2   
    64   33   34 1   
    65   33   45 1   
    66   33   46 1   
    67   34   35 1   
    68   34   37 2   
    69   35   38 1   
    70   35   72 1   
    71   35   82 1   
    72   38   39 ar  
    73   38   43 ar  
    74   39   40 ar  
    75   39   73 1   
    76   40   41 ar  
    77   40   74 1   
    78   41   42 ar  
    79   41   44 1   
    80   42   43 ar  
    81   42   75 1   
    82   43   76 1   
    83   45   46 1   
    84   45   77 1   
    85   45   78 1   
    86   46   79 1   
    87   46   80 1   
@<TRIPOS>SUBSTRUCTURE
     1 88Z         1 TEMP              0 ****  ****    0 ROOT
