@<TRIPOS>MOLECULE
88Z
   80    85     1     0     0
SMALL
bcc


@<TRIPOS>ATOM
      1 C1          4.4840   -1.1940    0.9830 ca        1 88Z      0.108100
      2 C2          5.2590   -0.1820    0.3120 ca        1 88Z      0.139100
      3 C3          4.6400    0.7970   -0.4310 ca        1 88Z     -0.252300
      4 C4          3.2130    0.8250   -0.5460 ca        1 88Z      0.425600
      5 C5          2.4580   -0.1820    0.1280 ca        1 88Z     -0.150300
      6 C6          3.1110   -1.1840    0.8870 ca        1 88Z     -0.161000
      7 N7          2.6150    1.8170   -1.3010 nb        1 88Z     -0.678000
      8 C8          1.2960    1.8150   -1.3900 ca        1 88Z      0.437200
      9 C9          0.4400    0.8650   -0.7600 ca        1 88Z     -0.329300
     10 C10         1.0320   -0.1270   -0.0050 ca        1 88Z      0.168100
     11 O11         5.2290   -2.1140    1.6900 os        1 88Z     -0.301900
     12 C12         4.4880   -3.1410    2.3410 c3        1 88Z      0.107700
     13 O13         6.6190   -0.3040    0.4900 os        1 88Z     -0.304900
     14 O14         0.3470   -1.1290    0.6680 os        1 88Z     -0.234200
     15 C15        -1.0440   -1.0710    0.6150 ca        1 88Z      0.012100
     16 C16        -1.7560   -0.1260    1.3600 ca        1 88Z     -0.088000
     17 C17        -3.1400   -0.1750    1.4090 ca        1 88Z     -0.186000
     18 C18        -3.8540   -1.1850    0.7090 ca        1 88Z      0.098600
     19 C19        -3.1370   -2.1360   -0.0400 ca        1 88Z     -0.197000
     20 C20        -1.7330   -2.0780   -0.0930 ca        1 88Z      0.161900
     21 F21        -1.0560   -2.9980   -0.8140 f         1 88Z     -0.118900
     22 N22        -5.2520   -1.1910    0.8120 n         1 88Z     -0.461100
     23 C23         7.4250    0.6830   -0.1700 c3        1 88Z      0.123400
     24 C24         8.8610    0.3320    0.1810 c3        1 88Z     -0.087400
     25 C25         9.8000    1.2520   -0.5950 c3        1 88Z      0.171800
     26 N26        11.1880    1.1770   -0.1570 n3        1 88Z     -0.723600
     27 C27        11.7590   -0.1560   -0.2970 c3        1 88Z      0.130800
     28 C28        13.2480   -0.2020    0.0630 c3        1 88Z      0.126400
     29 O29        13.9950    0.7820   -0.6420 os        1 88Z     -0.415600
     30 C30        13.4850    2.0930   -0.4290 c3        1 88Z      0.126400
     31 C31        12.0050    2.1940   -0.8120 c3        1 88Z      0.130800
     32 C32        -6.1390   -1.9960    0.1170 c         1 88Z      0.705100
     33 C33        -7.5990   -1.7650    0.4310 cx        1 88Z     -0.309000
     34 C34        -8.0030   -0.3180    0.3120 c         1 88Z      0.703100
     35 N35        -8.7470    0.0090   -0.8040 n         1 88Z     -0.453100
     36 O36        -5.7980   -2.8700   -0.6990 o         1 88Z     -0.577100
     37 O37        -7.6590    0.5040    1.1840 o         1 88Z     -0.599100
     38 C38        -9.2110    1.2870   -1.1670 ca        1 88Z      0.044600
     39 C39        -9.6980    1.4750   -2.4840 ca        1 88Z     -0.138500
     40 C40       -10.1900    2.7070   -2.8890 ca        1 88Z     -0.140500
     41 C41       -10.2060    3.7870   -1.9880 ca        1 88Z      0.104900
     42 C42        -9.7240    3.6130   -0.6800 ca        1 88Z     -0.140500
     43 C43        -9.2350    2.3780   -0.2730 ca        1 88Z     -0.138500
     44 F44       -10.6850    4.9910   -2.3830 f         1 88Z     -0.137900
     45 C45        -8.2230   -2.5980    1.5300 cx        1 88Z     -0.087400
     46 C46        -8.5660   -2.8780    0.1030 cx        1 88Z     -0.087400
     47 H3          5.2200    1.5750   -0.9500 ha        1 88Z      0.159000
     48 H6          2.4920   -1.9450    1.3860 ha        1 88Z      0.160000
     49 H8          0.8490    2.6200   -2.0030 h4        1 88Z      0.022100
     50 H9         -0.6470    0.9330   -0.8860 ha        1 88Z      0.155000
     51 H12         5.2830   -3.7620    2.8260 h1        1 88Z      0.046700
     52 H12A        3.8020   -2.7070    3.1080 h1        1 88Z      0.046700
     53 H12B        3.9120   -3.7450    1.5980 h1        1 88Z      0.046700
     54 H16        -1.2060    0.6550    1.9070 ha        1 88Z      0.157000
     55 H17        -3.6800    0.5800    2.0020 ha        1 88Z      0.147000
     56 H19        -3.6490   -2.9370   -0.5990 ha        1 88Z      0.191000
     57 HN22       -5.6480   -0.4900    1.4100 hn        1 88Z      0.348500
     58 H23         7.2510    0.6280   -1.2770 h1        1 88Z      0.043200
     59 H23A        7.1520    1.7040    0.2060 h1        1 88Z      0.043200
     60 H24         9.0130    0.4420    1.2860 hc        1 88Z      0.067200
     61 H24A        9.0530   -0.7420   -0.0800 hc        1 88Z      0.067200
     62 H25         9.6970    1.0190   -1.6960 h1        1 88Z      0.032700
     63 H25A        9.4640    2.3180   -0.4420 h1        1 88Z      0.032700
     64 H27        11.2050   -0.8400    0.4040 h1        1 88Z      0.041700
     65 H27A       11.6330   -0.5540   -1.3470 h1        1 88Z      0.041700
     66 H28        13.3920   -0.0620    1.1670 h1        1 88Z      0.053950
     67 H28A       13.6930   -1.1780   -0.2630 h1        1 88Z      0.053950
     68 H30        13.6390    2.3860    0.6430 h1        1 88Z      0.053950
     69 H30A       14.1020    2.7460   -1.1000 h1        1 88Z      0.053950
     70 H31        11.9230    2.1320   -1.9360 h1        1 88Z      0.041700
     71 H31A       11.6210    3.2020   -0.4900 h1        1 88Z      0.041700
     72 HN35       -8.8930   -0.7110   -1.4790 hn        1 88Z      0.328500
     73 H39        -9.6920    0.6450   -3.2070 ha        1 88Z      0.156500
     74 H40       -10.5660    2.8470   -3.9130 ha        1 88Z      0.153000
     75 H42        -9.7370    4.4600    0.0220 ha        1 88Z      0.153000
     76 H43        -8.8600    2.2680    0.7590 ha        1 88Z      0.156500
     77 H45        -7.5780   -3.3060    2.0820 hc        1 88Z      0.094200
     78 H45A       -8.9700   -2.1160    2.1880 hc        1 88Z      0.094200
     79 H46        -9.5750   -2.6250   -0.2700 hc        1 88Z      0.094200
     80 H46A       -8.1540   -3.7830   -0.3870 hc        1 88Z      0.094200
@<TRIPOS>BOND
     1    1    2 ar  
     2    1    6 ar  
     3    1   11 1   
     4    2    3 ar  
     5    2   13 1   
     6    3    4 ar  
     7    3   47 1   
     8    4    5 ar  
     9    4    7 ar  
    10    5    6 ar  
    11    5   10 ar  
    12    6   48 1   
    13    7    8 ar  
    14    8    9 ar  
    15    8   49 1   
    16    9   10 ar  
    17    9   50 1   
    18   10   14 1   
    19   11   12 1   
    20   12   51 1   
    21   12   52 1   
    22   12   53 1   
    23   13   23 1   
    24   14   15 1   
    25   15   16 ar  
    26   15   20 ar  
    27   16   17 ar  
    28   16   54 1   
    29   17   18 ar  
    30   17   55 1   
    31   18   19 ar  
    32   18   22 1   
    33   19   20 ar  
    34   19   56 1   
    35   20   21 1   
    36   22   32 1   
    37   22   57 1   
    38   23   24 1   
    39   23   58 1   
    40   23   59 1   
    41   24   25 1   
    42   24   60 1   
    43   24   61 1   
    44   25   26 1   
    45   25   62 1   
    46   25   63 1   
    47   26   27 1   
    48   26   31 1   
    49   27   28 1   
    50   27   64 1   
    51   27   65 1   
    52   28   29 1   
    53   28   66 1   
    54   28   67 1   
    55   29   30 1   
    56   30   31 1   
    57   30   68 1   
    58   30   69 1   
    59   31   70 1   
    60   31   71 1   
    61   32   33 1   
    62   32   36 2   
    63   33   34 1   
    64   33   45 1   
    65   33   46 1   
    66   34   35 1   
    67   34   37 2   
    68   35   38 1   
    69   35   72 1   
    70   38   39 ar  
    71   38   43 ar  
    72   39   40 ar  
    73   39   73 1   
    74   40   41 ar  
    75   40   74 1   
    76   41   42 ar  
    77   41   44 1   
    78   42   43 ar  
    79   42   75 1   
    80   43   76 1   
    81   45   46 1   
    82   45   77 1   
    83   45   78 1   
    84   46   79 1   
    85   46   80 1   
@<TRIPOS>SUBSTRUCTURE
     1 88Z         1 TEMP              0 ****  ****    0 ROOT
