@<TRIPOS>MOLECULE
891
   47    43     1     0     0
SMALL
bcc


@<TRIPOS>ATOM
      1 C16        -0.4700    0.4690   -1.5420 c1        1 891      0.202000
      2 C13         0.9290    0.6200    0.8500 c1        1 891     -0.277000
      3 C11         1.6970    0.5640    2.1570 c1        1 891     -0.010000
      4 C12        -0.4520    0.5620    0.8650 c1        1 891      0.214000
      5 C10         0.9620    0.5630    3.4300 c1        1 891     -0.075000
      6 C1         -0.7920    0.1080   -3.9870 c3        1 891      0.053000
      7 C2         -0.6880   -1.4030   -4.2660 c3        1 891     -0.259000
      8 C5         -1.6000    2.0220   -7.6940 c3        1 891     -0.952000
      9 N8         -1.2030    0.6660    2.1670 n2        1 891     -0.241000
     10 C3         -1.6750    0.7550   -5.0220 c3        1 891     -0.874000
     11 F29         2.6050   -4.1410    7.2510 f         1 891     -0.101000
     12 C25         2.4030   -2.9420    6.6540 c2        1 891      0.093000
     13 C24         3.1310   -2.6040    5.4920 c2        1 891     -0.152000
     14 C23         2.8470   -1.4150    4.8070 c1        1 891     -0.133000
     15 C26         1.4030   -2.0960    7.1200 c1        1 891     -0.185000
     16 C27         1.1170   -0.9060    6.4370 c1        1 891      0.114000
     17 F28         0.1210   -0.0770    6.8880 f         1 891     -0.082000
     18 C21         1.8480   -0.5670    5.2700 c1        1 891      0.026000
     19 O20         1.6770    0.7060    4.6790 o         1 891     -0.122000
     20 C9         -0.4940    0.6140    3.4200 c2        1 891      0.336000
     21 O18        -1.1080    0.5490    4.4590 o         1 891     -0.319000
     22 C14         1.6130    0.6020   -0.3780 c2        1 891      0.056000
     23 N15         0.9020    0.5260   -1.5640 n1        1 891     -0.226000
     24 N17        -1.1540    0.4870   -0.3200 n2        1 891     -0.283000
     25 C22        -2.6190    0.6670    2.1600 c3        1 891     -0.086000
     26 N19        -1.3470    0.3080   -2.7070 n3        1 891     -0.267000
     27 S4         -0.6590    1.6560   -6.1960 s6        1 891      2.823000
     28 O6          0.5200    0.9510   -6.4960 o         1 891     -0.927000
     29 O7         -0.1160    2.8760   -5.5990 o         1 891     -0.927000
     30 H11         2.6560    0.6320    2.1560 ha        1 891      0.160000
     31 H1          0.1040    0.5100   -4.0230 h1        1 891      0.150000
     32 H2         -0.3630   -1.5500   -5.1970 hc        1 891      0.097333
     33 H2A        -1.5870   -1.8220   -4.1600 hc        1 891      0.097333
     34 H2B        -0.0860   -1.7940   -3.6570 hc        1 891      0.097333
     35 H5         -2.4980    2.3640   -7.4450 h1        1 891      0.159667
     36 H5A        -1.1330    2.6920   -8.2110 h1        1 891      0.159667
     37 H5B        -1.7020    1.1730   -8.2500 h1        1 891      0.159667
     38 H3         -2.1750    0.0780   -5.4840 h1        1 891      0.154500
     39 H3A        -2.2860    1.3670   -4.5890 h1        1 891      0.154500
     40 H24         3.8190   -3.1860    5.1730 ha        1 891      0.155000
     41 H23         3.3870   -1.1670    3.9440 ha        1 891      0.150000
     42 H26         0.9100   -2.3200    7.9690 ha        1 891      0.168000
     43 H14         2.6100    0.6430   -0.3960 h4        1 891      0.173000
     44 H22        -2.9410    0.3430    2.9970 h1        1 891      0.104333
     45 H22A       -2.9400    1.5710    2.0170 h1        1 891      0.104333
     46 H22B       -2.9530    0.0670    1.4150 h1        1 891      0.104333
     47 HN19       -2.2210    0.2740   -2.5970 hn        1 891      0.229000
@<TRIPOS>BOND
     1    1   24 1   
     2    1   26 1   
     3    2    4 1   
     4    2   22 1   
     5    3    5 1   
     6    3   30 1   
     7    4   24 1   
     8    5   20 1   
     9    6    7 1   
    10    6   10 1   
    11    6   26 1   
    12    6   31 1   
    13    7   32 1   
    14    7   33 1   
    15    7   34 1   
    16    8   27 1   
    17    8   35 1   
    18    8   36 1   
    19    8   37 1   
    20    9   20 1   
    21    9   25 1   
    22   10   27 1   
    23   10   38 1   
    24   10   39 1   
    25   11   12 1   
    26   12   13 1   
    27   12   15 1   
    28   13   14 1   
    29   13   40 1   
    30   14   41 1   
    31   15   42 1   
    32   16   17 1   
    33   16   18 1   
    34   18   19 1   
    35   20   21 1   
    36   22   23 1   
    37   22   43 1   
    38   25   44 1   
    39   25   45 1   
    40   25   46 1   
    41   26   47 1   
    42   27   28 1   
    43   27   29 1   
@<TRIPOS>SUBSTRUCTURE
     1 891         1 TEMP              0 ****  ****    0 ROOT
