@<TRIPOS>MOLECULE
891
   47    49     1     0     0
SMALL
bcc


@<TRIPOS>ATOM
      1 C16        -2.4430    0.5070    0.0180 ca        1 891      0.927900
      2 C13         0.1340    0.1740    0.8950 ca        1 891     -0.418400
      3 C11         1.4720   -0.0280    1.3440 cc        1 891      0.001800
      4 C12        -0.2590   -0.2350   -0.4280 ca        1 891      0.622200
      5 C10         2.3710   -0.6010    0.5030 cd        1 891     -0.050100
      6 C1         -4.7440    1.4130    0.2640 c3        1 891      0.255500
      7 C2         -4.5510    2.9090    0.0190 c3        1 891     -0.119100
      8 C5         -8.1540   -0.6100   -0.2550 c3        1 891     -0.374300
      9 N8          0.6810   -0.8130   -1.2840 n         1 891     -0.423300
     10 C3         -6.1660    1.0210   -0.1690 c3        1 891     -0.332600
     11 C25         6.9890    1.1830   -0.2540 ca        1 891      0.126900
     12 C24         5.7240    1.7820   -0.3850 ca        1 891     -0.152000
     13 C23         4.5860    1.0810   -0.0010 ca        1 891     -0.134000
     14 C26         7.1190   -0.1200    0.2580 ca        1 891     -0.185000
     15 C27         5.9700   -0.8290    0.6370 ca        1 891      0.147900
     16 F28         6.0800   -2.0800    1.1320 f         1 891     -0.116900
     17 C21         4.6990   -0.2130    0.5080 ca        1 891      0.073100
     18 O20         3.6270   -0.9680    0.9740 os        1 891     -0.211200
     19 C9          2.0200   -1.0210   -0.8680 c         1 891      0.697700
     20 O18         2.8310   -1.5290   -1.6590 o         1 891     -0.594500
     21 C14        -0.8680    0.7710    1.6990 ca        1 891      0.520200
     22 N15        -2.1220    0.9600    1.3090 nb        1 891     -0.756000
     23 N17        -1.5460   -0.0520   -0.8690 nb        1 891     -0.797000
     24 C22         0.2760   -1.2530   -2.6010 c3        1 891      0.068300
     25 N19        -3.7760    0.5610   -0.4050 nh        1 891     -0.848900
     26 S4         -6.4680   -0.6700   -0.1380 s6        1 891      1.350000
     27 O6         -6.1150   -1.2110    1.0990 o         1 891     -0.644800
     28 O7         -5.9500   -1.2390   -1.3080 o         1 891     -0.644800
     29 H11         1.7490    0.2670    2.3690 ha        1 891      0.159000
     30 H1         -4.6620    1.2190    1.3790 h1        1 891      0.104700
     31 H2         -4.6300    3.1540   -1.0670 hc        1 891      0.049367
     32 H2A        -5.3410    3.4740    0.5710 hc        1 891      0.049367
     33 H2B        -3.5530    3.2410    0.3920 hc        1 891      0.049367
     34 H5         -8.5270    0.0660   -1.0620 h1        1 891      0.117033
     35 H5A        -8.5770   -1.6220   -0.4850 h1        1 891      0.117033
     36 H5B        -8.6460   -0.2810    0.6940 h1        1 891      0.117033
     37 H3         -6.8620    1.5800    0.5100 h1        1 891      0.114700
     38 H3A        -6.3530    1.4300   -1.1970 h1        1 891      0.114700
     39 H24         5.6420    2.8010   -0.7920 ha        1 891      0.154000
     40 H23         3.5910    1.5410   -0.1070 ha        1 891      0.150000
     41 H26         8.1100   -0.5850    0.3540 ha        1 891      0.167000
     42 H14        -0.6210    1.1170    2.7220 h4        1 891      0.034100
     43 H22        -0.0880   -0.3760   -3.1990 h1        1 891      0.066700
     44 H22A        1.1500   -1.7220   -3.1280 h1        1 891      0.066700
     45 H22B       -0.5510   -2.0080   -2.5160 h1        1 891      0.066700
     46 HN19       -3.9300    0.4060   -1.3820 hn        1 891      0.450800
     47 F29         8.0990    1.8650   -0.6250 f         1 891     -0.136900
@<TRIPOS>BOND
     1    1   22 ar  
     2    1   23 ar  
     3    1   25 1   
     4    2    3 1   
     5    2    4 ar  
     6    2   21 ar  
     7    3    5 2   
     8    3   29 1   
     9    4    9 1   
    10    4   23 ar  
    11    5   18 1   
    12    5   19 1   
    13    6    7 1   
    14    6   10 1   
    15    6   25 1   
    16    6   30 1   
    17    7   31 1   
    18    7   32 1   
    19    7   33 1   
    20    8   26 1   
    21    8   34 1   
    22    8   35 1   
    23    8   36 1   
    24    9   19 1   
    25    9   24 1   
    26   10   26 1   
    27   10   37 1   
    28   10   38 1   
    29   11   12 ar  
    30   11   14 ar  
    31   11   47 1   
    32   12   13 ar  
    33   12   39 1   
    34   13   17 ar  
    35   13   40 1   
    36   14   15 ar  
    37   14   41 1   
    38   15   16 1   
    39   15   17 ar  
    40   17   18 1   
    41   19   20 2   
    42   21   22 ar  
    43   21   42 1   
    44   24   43 1   
    45   24   44 1   
    46   24   45 1   
    47   25   46 1   
    48   26   27 2   
    49   26   28 2   
@<TRIPOS>SUBSTRUCTURE
     1 891         1 TEMP              0 ****  ****    0 ROOT
