@<TRIPOS>MOLECULE
891
   48    48     1     0     0
SMALL
bcc


@<TRIPOS>ATOM
      1 C16         0.6210   -0.1560   -0.6810 c2        1 891      0.149000
      2 C13         1.4700   -0.7650    1.8660 c3        1 891     -0.182000
      3 C11         1.7440   -0.3130    3.2430 c2        1 891     -0.045000
      4 C12        -0.0040   -0.7180    1.4850 c2        1 891      0.213000
      5 C10         0.7580   -0.2780    4.1580 c2        1 891     -0.038000
      6 C1          0.9800   -0.9950   -2.9690 c2        1 891     -0.149000
      7 C2          0.2040   -2.1930   -3.3970 c3        1 891     -0.199000
      8 N8         -0.9800   -0.7020    2.4260 n         1 891     -0.188000
      9 C3          2.2560   -0.7640   -3.3160 c2        1 891     -0.106000
     10 C25         1.3380   -1.6130    9.4480 c2        1 891      0.113000
     11 C24         0.8260   -2.1010    8.2870 c2        1 891     -0.244000
     12 C23         0.3670   -1.2460    7.2050 c2        1 891     -0.115000
     13 C26         3.1030   -1.5200    7.8040 c1        1 891      0.190000
     14 C27         2.7290   -0.8710    6.6680 c2        1 891     -0.205000
     15 F28         3.6090   -0.3860    5.7540 f         1 891     -0.087000
     16 C21         1.2930   -0.6680    6.4110 c2        1 891      0.019000
     17 O20         0.9370    0.2590    5.4250 os        1 891     -0.127000
     18 C9         -0.6390   -0.6560    3.8380 c2        1 891      0.334000
     19 O18        -1.5170   -0.9030    4.6620 o         1 891     -0.227000
     20 C14         2.3570   -0.1010    0.8320 c1        1 891     -0.002000
     21 N15         1.9220    0.2350   -0.3520 n2        1 891     -0.259000
     22 N17        -0.3320   -0.6640    0.1350 n2        1 891     -0.299000
     23 C22        -2.3840   -0.6330    2.0600 c3        1 891     -0.129000
     24 N19         0.2380   -0.0390   -2.1300 n4        1 891      0.043000
     25 S4         -2.8330    2.4110   -1.3110 s6        1 891      2.844000
     26 O6         -1.7890    1.7620   -2.0190 o         1 891     -0.975500
     27 O7         -2.9880    1.9630    0.0050 o         1 891     -0.975500
     28 H11         2.7890   -0.0390    3.4870 ha        1 891      0.218000
     29 H1          2.8420    0.1120   -2.9940 ha        1 891      0.170000
     30 H2         -0.1800   -2.7650   -2.5150 hc        1 891      0.115333
     31 H2A         0.8660   -2.8720   -3.9910 hc        1 891      0.115333
     32 H2B        -0.6630   -1.9010   -4.0420 hc        1 891      0.115333
     33 H5         -1.7990    4.4530   -0.8500 h1        1 891      0.185333
     34 H5A        -2.5680    4.4500   -2.4610 h1        1 891      0.185333
     35 H5B        -3.5670    4.6240   -0.9900 h1        1 891      0.185333
     36 H3         -3.8690    2.2770   -1.9370 hs        1 891     -0.468000
     37 H3A         2.7940   -1.4800   -3.9580 ha        1 891      0.170000
     38 H24         0.6970   -3.1870    8.1340 ha        1 891      0.174000
     39 H23        -0.7160   -1.1240    7.0450 ha        1 891      0.182000
     40 H26         1.4540   -0.5340    9.6690 h4        1 891      0.165000
     41 H14         1.8090   -1.8570    1.7950 hc        1 891      0.212000
     42 H22        -3.0170   -0.6680    2.9880 h1        1 891      0.134667
     43 H22A       -2.5910    0.3260    1.5060 h1        1 891      0.134667
     44 H22B       -2.6460   -1.5070    1.4070 h1        1 891      0.134667
     45 HN19       -0.7810   -0.1820   -2.2450 hn        1 891      0.284000
     46 H192        0.4400    0.9330   -2.4170 hn        1 891      0.284000
     47 F29         1.7100   -2.4140   10.4570 f         1 891     -0.078000
     48 C5         -2.6900    4.0650   -1.4150 c3        1 891     -0.973000
@<TRIPOS>BOND
     1    1   21 1   
     2    1   22 1   
     3    1   24 1   
     4    2    3 1   
     5    2    4 1   
     6    2   20 1   
     7    2   41 1   
     8    3    5 1   
     9    3   28 1   
    10    4    8 1   
    11    4   22 1   
    12    5   17 1   
    13    5   18 1   
    14    6    7 1   
    15    6    9 1   
    16    6   24 1   
    17    7   30 1   
    18    7   31 1   
    19    7   32 1   
    20    8   18 1   
    21    8   23 1   
    22    9   29 1   
    23    9   37 1   
    24   10   11 1   
    25   10   40 1   
    26   10   47 1   
    27   11   12 1   
    28   11   38 1   
    29   12   16 1   
    30   12   39 1   
    31   13   14 1   
    32   14   15 1   
    33   14   16 1   
    34   16   17 1   
    35   18   19 1   
    36   20   21 1   
    37   23   42 1   
    38   23   43 1   
    39   23   44 1   
    40   24   45 1   
    41   24   46 1   
    42   25   26 1   
    43   25   27 1   
    44   25   36 1   
    45   25   48 1   
    46   33   48 1   
    47   34   48 1   
    48   35   48 1   
@<TRIPOS>SUBSTRUCTURE
     1 891         1 TEMP              0 ****  ****    0 ROOT
