@<TRIPOS>MOLECULE
891
   47    49     1     0     0
SMALL
bcc


@<TRIPOS>ATOM
      1 C16         0.0350    0.1660    0.0540 ca        1 891      0.927900
      2 C13         1.2420   -0.0600    2.5060 ca        1 891     -0.418400
      3 C11         1.8540   -0.1530    3.7890 cc        1 891      0.001800
      4 C12        -0.1910    0.0050    2.3860 ca        1 891      0.622200
      5 C10         1.0670   -0.1910    4.8960 cd        1 891     -0.050100
      6 C1          0.0960    0.1520   -2.4310 c3        1 891      0.255500
      7 C2          0.3090   -1.3240   -2.7600 c3        1 891     -0.119100
      8 C5         -1.5710    2.8610   -4.8560 c3        1 891     -0.374300
      9 N8         -0.9870   -0.0450    3.5340 n         1 891     -0.423300
     10 C3         -0.6800    0.8090   -3.5850 c3        1 891     -0.332600
     11 C25         1.6850   -3.4710    8.6280 ca        1 891      0.126900
     12 C24         1.4930   -3.6540    7.2480 ca        1 891     -0.152000
     13 C23         1.4550   -2.5490    6.4050 ca        1 891     -0.134000
     14 C26         1.8370   -2.1830    9.1700 ca        1 891     -0.185000
     15 C27         1.7910   -1.0690    8.3200 ca        1 891      0.147900
     16 F28         1.9370    0.1750    8.8260 f         1 891     -0.116900
     17 C21         1.6030   -1.2630    6.9280 ca        1 891      0.073100
     18 O20         1.6410   -0.1040    6.1590 os        1 891     -0.211200
     19 C9         -0.4060   -0.1440    4.8230 c         1 891      0.697700
     20 O18        -1.1450   -0.1960    5.8200 o         1 891     -0.594500
     21 C14         1.9820   -0.0240    1.2980 ca        1 891      0.520200
     22 N15         1.4360    0.0740    0.0930 nb        1 891     -0.756000
     23 N17        -0.7930    0.1020    1.1550 nb        1 891     -0.797000
     24 C22        -2.4250    0.0540    3.4130 c3        1 891      0.068300
     25 N19        -0.5930    0.3980   -1.1750 nu        1 891     -0.848900
     26 S4         -1.1710    2.4250   -3.2710 s6        1 891      1.350000
     27 O6         -0.0860    3.1950   -2.8470 o         1 891     -0.644800
     28 O7         -2.3360    2.3980   -2.4970 o         1 891     -0.644800
     29 H11         2.9530   -0.1760    3.8640 ha        1 891      0.159000
     30 H1          1.1100    0.6570   -2.3720 h1        1 891      0.104700
     31 H2          0.8410   -1.4060   -3.7390 hc        1 891      0.049367
     32 H2A         0.9340   -1.8130   -1.9760 hc        1 891      0.049367
     33 H2B        -0.6630   -1.8660   -2.8360 hc        1 891      0.049367
     34 H5         -2.2160    2.1150   -5.3800 h1        1 891      0.117033
     35 H5A        -0.6750    3.0250   -5.5030 h1        1 891      0.117033
     36 H5B        -2.1440    3.8240   -4.8750 h1        1 891      0.117033
     37 H3         -1.5730    0.1720   -3.8240 h1        1 891      0.114700
     38 H3A        -0.0130    0.7430   -4.4840 h1        1 891      0.114700
     39 H24         1.2980   -2.6830    5.3240 ha        1 891      0.150000
     40 H23         1.3720   -4.6700    6.8430 ha        1 891      0.154000
     41 H26         1.9830   -2.0460   10.2510 ha        1 891      0.167000
     42 H14         3.0870   -0.0830    1.3260 h4        1 891      0.034100
     43 H22        -2.8150   -0.8090    2.8100 h1        1 891      0.066700
     44 H22A       -2.8920    0.0310    4.4340 h1        1 891      0.066700
     45 H22B       -2.7020    1.0140    2.9020 h1        1 891      0.066700
     46 HN19       -1.5870    0.2730   -1.1890 hn        1 891      0.450800
     47 F29         1.7250   -4.5470    9.4510 f         1 891     -0.136900
@<TRIPOS>BOND
     1    1   22 ar  
     2    1   23 ar  
     3    1   25 1   
     4    2    3 1   
     5    2    4 ar  
     6    2   21 ar  
     7    3    5 2   
     8    3   29 1   
     9    4    9 1   
    10    4   23 ar  
    11    5   18 1   
    12    5   19 1   
    13    6    7 1   
    14    6   10 1   
    15    6   25 1   
    16    6   30 1   
    17    7   31 1   
    18    7   32 1   
    19    7   33 1   
    20    8   26 1   
    21    8   34 1   
    22    8   35 1   
    23    8   36 1   
    24    9   19 1   
    25    9   24 1   
    26   10   26 1   
    27   10   37 1   
    28   10   38 1   
    29   11   12 ar  
    30   11   14 ar  
    31   11   47 1   
    32   12   13 ar  
    33   12   40 1   
    34   13   17 ar  
    35   13   39 1   
    36   14   15 ar  
    37   14   41 1   
    38   15   16 1   
    39   15   17 ar  
    40   17   18 1   
    41   19   20 2   
    42   21   22 ar  
    43   21   42 1   
    44   24   43 1   
    45   24   44 1   
    46   24   45 1   
    47   25   46 1   
    48   26   27 2   
    49   26   28 2   
@<TRIPOS>SUBSTRUCTURE
     1 891         1 TEMP              0 ****  ****    0 ROOT
