@<TRIPOS>MOLECULE
891
   47    49     1     0     0
SMALL
bcc


@<TRIPOS>ATOM
      1 C16         0.0050    0.1570    0.0260 ca        1 891      0.927900
      2 C13         1.2100   -0.0500    2.4800 ca        1 891     -0.418400
      3 C11         1.8220   -0.1330    3.7650 cc        1 891      0.001800
      4 C12        -0.2230   -0.0090    2.3570 ca        1 891      0.622200
      5 C10         1.0330   -0.1850    4.8700 cd        1 891     -0.050100
      6 C1          0.0720    0.1460   -2.4590 c3        1 891      0.255500
      7 C2          0.3120   -1.3250   -2.7890 c3        1 891     -0.119100
      8 C5         -1.6380    2.8270   -4.8850 c3        1 891     -0.374300
      9 N8         -1.0200   -0.0740    3.5030 n         1 891     -0.423300
     10 C3         -0.7130    0.7900   -3.6140 c3        1 891     -0.332600
     11 C25         1.7060   -3.4570    8.6000 ca        1 891      0.126900
     12 C24         1.5160   -3.6420    7.2190 ca        1 891     -0.152000
     13 C23         1.4590   -2.5360    6.3770 ca        1 891     -0.134000
     14 C26         1.8350   -2.1670    9.1420 ca        1 891     -0.185000
     15 C27         1.7700   -1.0530    8.2940 ca        1 891      0.147900
     16 F28         1.8940    0.1920    8.8020 f         1 891     -0.116900
     17 C21         1.5850   -1.2490    6.9020 ca        1 891      0.073100
     18 O20         1.6020   -0.0880    6.1340 os        1 891     -0.211200
     19 C9         -0.4410   -0.1640    4.7940 c         1 891      0.697700
     20 O18        -1.1810   -0.2290    5.7890 o         1 891     -0.594500
     21 C14         1.9520    0.0000    1.2740 ca        1 891      0.520200
     22 N15         1.4070    0.0900    0.0680 nb        1 891     -0.756000
     23 N17        -0.8240    0.0780    1.1250 nb        1 891     -0.797000
     24 C22        -2.4600   -0.0010    3.3800 c3        1 891      0.068300
     25 N19        -0.6240    0.3790   -1.2050 nh        1 891     -0.848900
     26 S4         -1.2330    2.3970   -3.3000 s6        1 891      1.350000
     27 O6         -0.1630    3.1860   -2.8730 o         1 891     -0.644800
     28 O7         -2.3990    2.3490   -2.5280 o         1 891     -0.644800
     29 H11         2.9210   -0.1360    3.8420 ha        1 891      0.159000
     30 H1          1.0770    0.6690   -2.3970 h1        1 891      0.104700
     31 H2          0.8480   -1.3970   -3.7660 hc        1 891      0.049367
     32 H2A         0.9440   -1.8050   -2.0030 hc        1 891      0.049367
     33 H2B        -0.6500   -1.8850   -2.8680 hc        1 891      0.049367
     34 H5         -2.2690    2.0710   -5.4100 h1        1 891      0.117033
     35 H5A        -2.2270    3.7810   -4.9040 h1        1 891      0.117033
     36 H5B        -0.7440    3.0060   -5.5310 h1        1 891      0.117033
     37 H3         -0.0430    0.7370   -4.5110 h1        1 891      0.114700
     38 H3A        -1.5940    0.1380   -3.8550 h1        1 891      0.114700
     39 H24         1.3040   -2.6720    5.2960 ha        1 891      0.150000
     40 H23         1.4130   -4.6590    6.8130 ha        1 891      0.154000
     41 H26         1.9800   -2.0290   10.2240 ha        1 891      0.167000
     42 H14         3.0590   -0.0400    1.3050 h4        1 891      0.034100
     43 H22        -2.8330   -0.8700    2.7750 h1        1 891      0.066700
     44 H22A       -2.9280   -0.0320    4.4000 h1        1 891      0.066700
     45 H22B       -2.7530    0.9550    2.8690 h1        1 891      0.066700
     46 HN19       -1.6150    0.2360   -1.2210 hn        1 891      0.450800
     47 F29         1.7650   -4.5340    9.4210 f         1 891     -0.136900
@<TRIPOS>BOND
     1    1   22 ar  
     2    1   23 ar  
     3    1   25 1   
     4    2    3 1   
     5    2    4 ar  
     6    2   21 ar  
     7    3    5 2   
     8    3   29 1   
     9    4    9 1   
    10    4   23 ar  
    11    5   18 1   
    12    5   19 1   
    13    6    7 1   
    14    6   10 1   
    15    6   25 1   
    16    6   30 1   
    17    7   31 1   
    18    7   32 1   
    19    7   33 1   
    20    8   26 1   
    21    8   34 1   
    22    8   35 1   
    23    8   36 1   
    24    9   19 1   
    25    9   24 1   
    26   10   26 1   
    27   10   37 1   
    28   10   38 1   
    29   11   12 ar  
    30   11   14 ar  
    31   11   47 1   
    32   12   13 ar  
    33   12   40 1   
    34   13   17 ar  
    35   13   39 1   
    36   14   15 ar  
    37   14   41 1   
    38   15   16 1   
    39   15   17 ar  
    40   17   18 1   
    41   19   20 2   
    42   21   22 ar  
    43   21   42 1   
    44   24   43 1   
    45   24   44 1   
    46   24   45 1   
    47   25   46 1   
    48   26   27 2   
    49   26   28 2   
@<TRIPOS>SUBSTRUCTURE
     1 891         1 TEMP              0 ****  ****    0 ROOT
