@<TRIPOS>MOLECULE
892
   56    58     1     0     0
SMALL
bcc


@<TRIPOS>ATOM
      1 BR22      -94.2630  187.7050  371.4490 br        1 892     -0.029600
      2 C13       -93.2660  188.8330  370.3390 ca        1 892     -0.109900
      3 C14       -93.7170  190.1170  369.9440 ca        1 892      0.233100
      4 O20       -94.9380  190.5070  370.4010 oh        1 892     -0.455100
      5 C15       -92.9090  190.9260  369.1120 ca        1 892     -0.109900
      6 BR21      -93.4540  192.6310  368.5660 br        1 892     -0.029600
      7 C16       -91.6680  190.4540  368.6880 ca        1 892     -0.012500
      8 C12       -92.0270  188.3840  369.8900 ca        1 892     -0.012500
      9 C11       -91.2270  189.1770  369.0590 ca        1 892     -0.233600
     10 C03       -89.8970  188.7330  368.6150 c         1 892      0.622900
     11 O19       -88.9870  189.5300  368.3520 o         1 892     -0.506100
     12 C9        -89.6400  187.2860  368.5090 cc        1 892     -0.256400
     13 C8        -90.4480  186.2680  367.9880 cd        1 892      0.224900
     14 C17       -91.7970  186.2430  367.3920 c3        1 892     -0.064200
     15 C18       -91.7380  186.1200  365.8850 c3        1 892     -0.097100
     16 C5        -88.3970  186.6760  368.8820 ca        1 892      0.103200
     17 C6        -87.1810  187.1280  369.4210 ca        1 892     -0.108000
     18 C4        -88.5330  185.2690  368.5870 ca        1 892     -0.002900
     19 O7        -89.8000  185.0300  368.0350 os        1 892     -0.167200
     20 C3        -87.5520  184.3440  368.8120 ca        1 892      0.070000
     21 C2        -86.3170  184.8060  369.3700 ca        1 892     -0.663500
     22 C1        -86.1830  186.2100  369.6520 ca        1 892      0.011000
     23 S01       -85.1650  183.8440  369.6530 s4        1 892      1.657300
     24 O01       -84.0190  184.3290  370.1810 o         1 892     -0.400900
     25 O02       -85.3330  182.5310  369.3690 o         1 892     -0.400900
     26 N01       174.5260 -343.6980 -681.0960 nh        1 892     -0.799200
     27 C02       174.1090 -342.5030 -680.6330 ca        1 892      0.321600
     28 C01       173.5540 -342.3650 -679.3140 ca        1 892     -0.241000
     29 C04       174.2000 -341.3160 -681.4390 ca        1 892     -0.241000
     30 C07       173.7800 -340.1110 -680.9510 ca        1 892      0.064000
     31 C06       173.2300 -339.9610 -679.6450 ca        1 892     -0.674500
     32 C05       173.1430 -341.1440 -678.8570 ca        1 892      0.064000
     33 S02       172.8390 -338.5600 -679.0720 sy        1 892      1.520200
     34 O05       172.6370 -338.4910 -677.7090 o         1 892     -0.581800
     35 O03       173.2700 -337.4640 -679.7900 o         1 892     -0.581800
     36 N02       170.9530 -338.5480 -679.6400 n4        1 892     -0.779500
     37 H20       -95.1290  191.4090  370.0840 ho        1 892      0.453000
     38 H16       -91.0130  191.0820  368.0560 ha        1 892      0.161000
     39 H12       -91.6610  187.3910  370.2030 ha        1 892      0.161000
     40 H171      -92.3320  187.1900  367.6840 hc        1 892      0.100700
     41 H172      -92.3700  185.3720  367.8180 hc        1 892      0.100700
     42 H181      -91.2130  186.9950  365.4320 hc        1 892      0.061700
     43 H182      -91.2060  185.1850  365.5850 hc        1 892      0.061700
     44 H183      -92.7800  186.0840  365.4810 hc        1 892      0.061700
     45 H6        -87.0420  188.2050  369.6300 ha        1 892      0.205000
     46 H3        -87.6960  183.2730  368.5720 ha        1 892      0.194000
     47 H1        -85.2200  186.5600  370.0750 ha        1 892      0.178000
     48 H01       174.9230 -343.7800 -682.0030 hn        1 892      0.462800
     49 H2        173.4730 -343.2520 -678.6630 ha        1 892      0.170000
     50 H04       174.6260 -341.3800 -682.4540 ha        1 892      0.170000
     51 H07       173.8850 -339.2050 -681.5810 ha        1 892      0.165000
     52 H05       172.7420 -341.0590 -677.8270 ha        1 892      0.165000
     53 H021      170.3470 -338.4590 -678.8300 hn        1 892      0.445133
     54 H022      170.7020 -339.3950 -680.1350 hn        1 892      0.445133
     55 H012      174.4740 -344.5100 -680.5250 hn        1 892      0.462800
     56 H023      170.7800 -337.7560 -680.2520 hn        1 892      0.445133
@<TRIPOS>BOND
     1    1    2 1   
     2    2    3 ar  
     3    2    8 ar  
     4    3    4 1   
     5    3    5 ar  
     6    4   37 1   
     7    5    6 1   
     8    5    7 ar  
     9    7    9 ar  
    10    7   38 1   
    11    8    9 ar  
    12    8   39 1   
    13    9   10 1   
    14   10   11 2   
    15   10   12 1   
    16   12   13 2   
    17   12   16 1   
    18   13   14 1   
    19   13   19 1   
    20   14   15 1   
    21   14   40 1   
    22   14   41 1   
    23   15   42 1   
    24   15   43 1   
    25   15   44 1   
    26   16   17 ar  
    27   16   18 ar  
    28   17   22 ar  
    29   17   45 1   
    30   18   19 1   
    31   18   20 ar  
    32   20   21 ar  
    33   20   46 1   
    34   21   22 ar  
    35   21   23 1   
    36   22   47 1   
    37   23   24 1   
    38   23   25 1   
    39   26   27 1   
    40   26   48 1   
    41   26   55 1   
    42   27   28 ar  
    43   27   29 ar  
    44   28   32 ar  
    45   28   49 1   
    46   29   30 ar  
    47   29   50 1   
    48   30   31 ar  
    49   30   51 1   
    50   31   32 ar  
    51   31   33 1   
    52   32   52 1   
    53   33   34 2   
    54   33   35 2   
    55   33   36 1   
    56   36   53 1   
    57   36   54 1   
    58   36   56 1   
@<TRIPOS>SUBSTRUCTURE
     1 892         1 TEMP              0 ****  ****    0 ROOT
