@<TRIPOS>MOLECULE
892
   54    57     1     0     0
SMALL
bcc


@<TRIPOS>ATOM
      1 BR22       -3.0680   -0.4790   -4.3800 br        1 892     -0.053600
      2 C13        -1.3090    0.1600   -4.3220 ca        1 892     -0.108400
      3 C14        -0.8270    1.1550   -5.2030 ca        1 892      0.211100
      4 O20        -1.7120    1.6570   -6.1160 oh        1 892     -0.468100
      5 C15         0.5140    1.5890   -5.1140 ca        1 892     -0.108400
      6 BR21        1.2030    2.9040   -6.2580 br        1 892     -0.053600
      7 C16         1.3580    1.0260   -4.1590 ca        1 892     -0.013000
      8 C12        -0.4460   -0.3760   -3.3660 ca        1 892     -0.013000
      9 C11         0.8810    0.0520   -3.2730 ca        1 892     -0.208600
     10 C03         1.8210   -0.5430   -2.2990 c         1 892      0.623900
     11 O19         3.0330   -0.6170   -2.5570 o         1 892     -0.534100
     12 C9          1.2880   -1.0550   -1.0390 cc        1 892     -0.254400
     13 C8          1.8210   -2.1240   -0.3250 cd        1 892      0.161900
     14 C17         2.9480   -3.0400   -0.5830 c3        1 892     -0.038200
     15 C18         4.2550   -2.4560   -0.0960 c3        1 892     -0.095100
     16 C5          0.1790   -0.5430   -0.2540 ca        1 892     -0.004800
     17 C6         -0.7360    0.5020   -0.3670 ca        1 892     -0.122000
     18 C4          0.1110   -1.3790    0.9070 ca        1 892      0.018100
     19 O7          1.1090   -2.3600    0.8560 os        1 892     -0.183200
     20 C3         -0.8170   -1.2080    1.9200 ca        1 892      0.014000
     21 C2         -1.7230   -0.1480    1.7850 ca        1 892     -0.390500
     22 C1         -1.6680    0.6810    0.6490 ca        1 892     -0.027000
     23 S01        -2.9000    0.1160    2.9570 sy        1 892      1.518200
     24 O01        -3.9860    0.8000    2.3750 o         1 892     -0.641300
     25 O02        -3.1720   -1.0960    3.6120 o         1 892     -0.641300
     26 N01        -2.1750    1.1900    3.9700 nh        1 892     -0.764500
     27 C02        -1.2280    0.9760    4.9720 ca        1 892      0.245600
     28 C01        -0.9340   -0.3210    5.4600 ca        1 892     -0.215000
     29 C04        -0.5310    2.0770    5.5300 ca        1 892     -0.215000
     30 C07         0.4140    1.8760    6.5240 ca        1 892      0.018500
     31 C06         0.7080    0.5960    7.0080 ca        1 892     -0.422500
     32 C05         0.0190   -0.4890    6.4530 ca        1 892      0.018500
     33 S02         1.8830    0.3640    8.1920 sy        1 892      1.533200
     34 O05         2.4410   -0.9210    8.0210 o         1 892     -0.660800
     35 O03         2.7620    1.4700    8.1670 o         1 892     -0.660800
     36 N02         1.0460    0.3930    9.5580 n3        1 892     -1.026700
     37 H20        -1.2540    2.3160   -6.6670 ho        1 892      0.442000
     38 H16         2.4170    1.3340   -4.0900 ha        1 892      0.168500
     39 H12        -0.8110   -1.1520   -2.6690 ha        1 892      0.168500
     40 H171        3.0090   -3.2150   -1.6920 hc        1 892      0.078200
     41 H172        2.7540   -4.0240   -0.0760 hc        1 892      0.078200
     42 H181        5.0810   -3.1830   -0.2880 hc        1 892      0.053367
     43 H182        4.4800   -1.5060   -0.6400 hc        1 892      0.053367
     44 H183        4.2120   -2.2450    1.0000 hc        1 892      0.053367
     45 H6         -0.7220    1.1660   -1.2450 ha        1 892      0.157000
     46 H3         -0.8490   -1.8830    2.7920 ha        1 892      0.174000
     47 H1         -2.4110    1.4950    0.5560 ha        1 892      0.159000
     48 H01        -2.4010    2.1570    3.8540 hn        1 892      0.455800
     49 H2         -1.4690   -1.2060    5.0750 ha        1 892      0.156000
     50 H04        -0.7320    3.1000    5.1770 ha        1 892      0.156000
     51 H07         0.9640    2.7440    6.9330 ha        1 892      0.155500
     52 H05         0.2500   -1.5110    6.8080 ha        1 892      0.155500
     53 H021        0.6600   -0.4130    9.9800 hn        1 892      0.447300
     54 H022        0.8790    1.2150   10.0810 hn        1 892      0.447300
@<TRIPOS>BOND
     1    1    2 1   
     2    2    3 ar  
     3    2    8 ar  
     4    3    4 1   
     5    3    5 ar  
     6    4   37 1   
     7    5    6 1   
     8    5    7 ar  
     9    7    9 ar  
    10    7   38 1   
    11    8    9 ar  
    12    8   39 1   
    13    9   10 1   
    14   10   11 2   
    15   10   12 1   
    16   12   13 2   
    17   12   16 1   
    18   13   14 1   
    19   13   19 1   
    20   14   15 1   
    21   14   40 1   
    22   14   41 1   
    23   15   42 1   
    24   15   43 1   
    25   15   44 1   
    26   16   17 ar  
    27   16   18 ar  
    28   17   22 ar  
    29   17   45 1   
    30   18   19 1   
    31   18   20 ar  
    32   20   21 ar  
    33   20   46 1   
    34   21   22 ar  
    35   21   23 1   
    36   22   47 1   
    37   23   24 2   
    38   23   25 2   
    39   23   26 1   
    40   26   27 1   
    41   26   48 1   
    42   27   28 ar  
    43   27   29 ar  
    44   28   32 ar  
    45   28   49 1   
    46   29   30 ar  
    47   29   50 1   
    48   30   31 ar  
    49   30   51 1   
    50   31   32 ar  
    51   31   33 1   
    52   32   52 1   
    53   33   34 2   
    54   33   35 2   
    55   33   36 1   
    56   36   53 1   
    57   36   54 1   
@<TRIPOS>SUBSTRUCTURE
     1 892         1 TEMP              0 ****  ****    0 ROOT
