@<TRIPOS>MOLECULE
892
   55    58     1     0     0
SMALL
bcc


@<TRIPOS>ATOM
      1 Br22       -0.0690   -2.3150   -0.6650 br        1 892     -0.043600
      2 C13         1.6430   -1.7650   -0.1430 ca        1 892     -0.110900
      3 C14         2.3020   -2.2880    0.9950 ca        1 892      0.221100
      4 O20         1.6380   -3.2420    1.7100 oh        1 892     -0.463100
      5 C15         3.5910   -1.8250    1.3400 ca        1 892     -0.110900
      6 Br21        4.5060   -2.4800    2.8370 br        1 892     -0.043600
      7 C16         4.2040   -0.8480    0.5580 ca        1 892     -0.011500
      8 C12         2.2840   -0.7950   -0.9120 ca        1 892     -0.011500
      9 C11         3.5620   -0.3380   -0.5780 ca        1 892     -0.220600
     10 C03         4.2400    0.7140   -1.3610 c         1 892      0.622900
     11 O19         5.1430    1.4030   -0.8670 o         1 892     -0.519100
     12 C9          3.8110    0.9280   -2.7470 cc        1 892     -0.253400
     13 C8          3.6530    2.1640   -3.3670 cd        1 892      0.174900
     14 C17         3.7750    3.5570   -2.8960 c3        1 892     -0.043200
     15 C18         5.2190    4.0010   -2.8410 c3        1 892     -0.099100
     16 C5          3.5430   -0.0800   -3.7520 ca        1 892      0.021200
     17 C6          3.5440   -1.4740   -3.8000 ca        1 892     -0.117000
     18 C4          3.2230    0.6420   -4.9490 ca        1 892      0.013100
     19 O7          3.2760    2.0190   -4.7090 os        1 892     -0.181200
     20 C3          2.9120    0.0320   -6.1490 ca        1 892      0.025000
     21 C2          2.9260   -1.3740   -6.1780 ca        1 892     -0.455500
     22 C1          3.2370   -2.0950   -5.0030 ca        1 892     -0.024000
     23 S01         2.5100   -2.1800   -7.5530 sy        1 892      1.523200
     24 O01         2.0760   -3.4810   -7.2870 o         1 892     -0.626300
     25 O02         1.7140   -1.4070   -8.4040 o         1 892     -0.626300
     26 N01         4.0510   -2.3140   -8.2750 nu        1 892     -0.700500
     27 C02         4.3500   -2.5850   -9.5800 ca        1 892      0.344600
     28 C01         3.3380   -2.6530  -10.5910 ca        1 892     -0.227000
     29 C04         5.7030   -2.8160   -9.9920 ca        1 892     -0.227000
     30 C07         6.0000   -3.1180  -11.2960 ca        1 892      0.055500
     31 C06         4.9990   -3.2140  -12.3010 ca        1 892     -0.651500
     32 C05         3.6640   -2.9510  -11.8890 ca        1 892      0.055500
     33 S02         5.3580   -3.4990  -13.8020 sy        1 892      1.516200
     34 O05         4.3830   -3.2040  -14.7320 o         1 892     -0.579300
     35 O03         6.6970   -3.4460  -14.1270 o         1 892     -0.579300
     36 N02         5.1400   -5.4450  -13.7600 nz        1 892     -0.780500
     37 H20         2.1750   -3.4900    2.4840 ho        1 892      0.447000
     38 H16         5.2030   -0.4570    0.8250 ha        1 892      0.166500
     39 H12         1.7740   -0.3740   -1.7960 ha        1 892      0.166500
     40 H171        3.3220    3.6200   -1.8680 hc        1 892      0.084200
     41 H172        3.1900    4.2350   -3.5780 hc        1 892      0.084200
     42 H181        5.6870    3.9580   -3.8530 hc        1 892      0.057367
     43 H182        5.8020    3.3490   -2.1430 hc        1 892      0.057367
     44 H183        5.2670    5.0540   -2.4700 hc        1 892      0.057367
     45 H6          3.7700   -2.0650   -2.8980 ha        1 892      0.170000
     46 H3          2.6450    0.6210   -7.0430 ha        1 892      0.179000
     47 H1          3.2100   -3.2010   -5.0430 ha        1 892      0.163000
     48 H01         4.8540   -2.2300   -7.6840 hn        1 892      0.458800
     49 H2          2.2820   -2.4320  -10.3380 ha        1 892      0.183000
     50 H04         6.5190   -2.7460   -9.2520 ha        1 892      0.183000
     51 H07         7.0560   -3.2810  -11.5880 ha        1 892      0.166500
     52 H05         2.8620   -2.9700  -12.6530 ha        1 892      0.166500
     53 H021        4.8610   -5.7760  -12.8440 hn        1 892      0.447467
     54 H022        6.0120   -5.9000  -14.0120 hn        1 892      0.447467
     55 H023        4.4320   -5.7310  -14.4310 hn        1 892      0.447467
@<TRIPOS>BOND
     1    1    2 1   
     2    2    3 ar  
     3    2    8 ar  
     4    3    4 1   
     5    3    5 ar  
     6    4   37 1   
     7    5    6 1   
     8    5    7 ar  
     9    7    9 ar  
    10    7   38 1   
    11    8    9 ar  
    12    8   39 1   
    13    9   10 1   
    14   10   11 2   
    15   10   12 1   
    16   12   13 2   
    17   12   16 1   
    18   13   14 1   
    19   13   19 1   
    20   14   15 1   
    21   14   40 1   
    22   14   41 1   
    23   15   42 1   
    24   15   43 1   
    25   15   44 1   
    26   16   17 ar  
    27   16   18 ar  
    28   17   22 ar  
    29   17   45 1   
    30   18   19 1   
    31   18   20 ar  
    32   20   21 ar  
    33   20   46 1   
    34   21   22 ar  
    35   21   23 1   
    36   22   47 1   
    37   23   24 2   
    38   23   25 2   
    39   23   26 1   
    40   26   27 1   
    41   26   48 1   
    42   27   28 ar  
    43   27   29 ar  
    44   28   32 ar  
    45   28   49 1   
    46   29   30 ar  
    47   29   50 1   
    48   30   31 ar  
    49   30   51 1   
    50   31   32 ar  
    51   31   33 1   
    52   32   52 1   
    53   33   34 2   
    54   33   35 2   
    55   33   36 1   
    56   36   53 1   
    57   36   54 1   
    58   36   55 1   
@<TRIPOS>SUBSTRUCTURE
     1 892         1 TEMP              0 ****  ****    0 ROOT
