@<TRIPOS>MOLECULE
892
   54    46     1     0     0
SMALL
bcc


@<TRIPOS>ATOM
      1 BR22       -0.8410    5.1350    6.7930 br        1 892      0.100000
      2 C13         0.0930    3.6000    6.1390 c2        1 892     -0.220000
      3 C14         0.1410    2.4430    6.9010 c2        1 892      0.168000
      4 O20        -0.5060    2.3950    8.1480 oh        1 892     -0.221000
      5 C15         0.8600    1.3470    6.4500 c1        1 892     -0.278000
      6 BR21        0.9590   -0.2360    7.5180 br        1 892      0.076000
      7 C16         1.5300    1.4080    5.2380 c2        1 892     -0.001000
      8 C12         0.7630    3.6610    4.9280 c1        1 892     -0.023000
      9 C11         1.4820    2.5650    4.4770 c1        1 892     -0.190000
     10 C03         2.2860    2.6620    3.2000 c2        1 892      0.345000
     11 O19         3.4920    2.8000    3.2500 o         1 892     -0.295000
     12 C9          1.5870    2.6070    1.8590 c2        1 892     -0.245000
     13 C8          1.3230    3.7830    1.1800 c1        1 892      0.119000
     14 C17         1.1820    5.2900    1.2340 c2        1 892     -0.121000
     15 C18         2.4630    5.9340    0.7500 c3        1 892     -0.213000
     16 C5          1.0460    1.5600    1.1290 c1        1 892      0.006000
     17 C6          1.0330    0.1710    1.3440 c1        1 892     -0.073000
     18 C4          0.4540    2.0870    0.0080 c1        1 892     -0.029000
     19 O7          0.6250    3.4670    0.0390 o         1 892     -0.095000
     20 C3         -0.1660    1.2380   -0.9250 c1        1 892      0.012000
     21 C2         -0.1790   -0.1340   -0.7120 c1        1 892     -0.852500
     22 C1          0.4210   -0.6670    0.4220 c1        1 892     -0.073000
     23 S01        -1.1910   -1.1230   -1.7840 s4        1 892      2.085800
     24 O01        -2.1820   -1.8510   -1.0410 o         1 892     -0.539400
     25 O02        -2.0200   -0.3020   -2.6230 o         1 892     -0.539400
     26 N01        -0.2540   -2.1340   -2.6790 n2        1 892     -0.817000
     27 C02        -0.8590   -3.0780   -3.5530 c2        1 892      0.163000
     28 C01        -2.0440   -3.6990   -3.1880 c2        1 892     -0.216000
     29 C04        -0.2280   -3.4290   -4.7360 c1        1 892     -0.211000
     30 C07        -0.7810   -4.4030   -5.5540 c1        1 892      0.012000
     31 C06        -1.9660   -5.0240   -5.1890 c1        1 892     -0.852500
     32 C05        -2.5970   -4.6730   -4.0060 c1        1 892      0.025000
     33 S02        -2.7190   -6.2050   -6.2790 s4        1 892      2.085800
     34 O05        -4.0820   -6.4640   -5.9060 o         1 892     -0.539400
     35 O03        -2.8890   -5.6630   -7.5990 o         1 892     -0.539400
     36 N02        -1.8380   -7.5920   -6.3130 n2        1 892     -0.953000
     37 H20         0.0900    2.5230    8.7960 ho        1 892      0.241000
     38 H16         2.0360    0.6350    4.9210 ha        1 892      0.173000
     39 H12         0.7290    4.4760    4.3920 ha        1 892      0.164000
     40 H171        1.0050    5.5680    2.1550 ha        1 892      0.117500
     41 H172        0.4400    5.5690    0.6610 ha        1 892      0.117500
     42 H181        2.2480    6.6760    0.1460 hc        1 892      0.092333
     43 H182        3.0030    5.2700    0.2720 hc        1 892      0.092333
     44 H183        2.9690    6.2750    1.5180 hc        1 892      0.092333
     45 H6          1.4540   -0.2040    2.1410 ha        1 892      0.160500
     46 H3         -0.5870    1.6120   -1.7220 ha        1 892      0.168000
     47 H1          0.4110   -1.6320    0.5710 ha        1 892      0.160500
     48 H01         0.6550   -2.0770   -2.6290 hn        1 892      0.247000
     49 H2         -2.4880   -3.4520   -2.3550 ha        1 892      0.167000
     50 H04         0.6060   -2.9920   -4.9930 ha        1 892      0.140000
     51 H07        -0.3370   -4.6500   -6.3870 ha        1 892      0.168000
     52 H05        -3.4310   -5.1100   -3.7490 ha        1 892      0.156000
     53 H021       -1.2390   -7.7360   -6.9890 hn        1 892      0.241500
     54 H022       -1.9630   -8.2290   -5.6690 hn        1 892      0.241500
@<TRIPOS>BOND
     1    1    2 1   
     2    2    3 1   
     3    2    8 1   
     4    3    4 1   
     5    3    5 1   
     6    4   37 1   
     7    5    7 1   
     8    7    9 1   
     9    7   38 1   
    10    8   39 1   
    11    9   10 1   
    12   10   11 1   
    13   10   12 1   
    14   12   13 1   
    15   12   16 1   
    16   13   19 1   
    17   14   15 1   
    18   14   40 1   
    19   14   41 1   
    20   15   42 1   
    21   15   43 1   
    22   15   44 1   
    23   16   18 1   
    24   17   22 1   
    25   17   45 1   
    26   20   21 1   
    27   20   46 1   
    28   21   23 1   
    29   22   47 1   
    30   23   24 1   
    31   23   25 1   
    32   26   27 1   
    33   26   48 1   
    34   27   28 1   
    35   27   29 1   
    36   28   32 1   
    37   28   49 1   
    38   29   50 1   
    39   30   31 1   
    40   30   51 1   
    41   31   33 1   
    42   32   52 1   
    43   33   34 1   
    44   33   35 1   
    45   36   53 1   
    46   36   54 1   
@<TRIPOS>SUBSTRUCTURE
     1 892         1 TEMP              0 ****  ****    0 ROOT
