@<TRIPOS>MOLECULE
893
   44    40     1     0     0
SMALL
bcc


@<TRIPOS>ATOM
      1 C1         -4.3520   -2.5640    1.4690 c1        1 893     -0.143000
      2 C2         -2.9630   -2.6270    1.4520 c1        1 893      0.048000
      3 C3         -2.2710   -2.3830    0.2730 c1        1 893     -0.104000
      4 C4         -2.9690   -2.0760   -0.8940 c1        1 893     -0.153000
      5 C5         -4.3580   -2.0130   -0.8760 c1        1 893      0.050000
      6 C6         -5.0490   -2.2580    0.3060 c1        1 893     -0.143000
      7 C9         -0.7350   -2.4860    0.2470 c3        1 893      0.013000
      8 N1         -0.1590   -1.1510    0.2330 n         1 893     -0.335000
      9 C8          1.2570   -0.9760   -0.0120 c2        1 893      0.344000
     10 C14         1.8870    0.4150    0.1070 c2        1 893      0.002000
     11 N16         3.1960    0.6000   -0.2230 n2        1 893     -0.201000
     12 C17         3.7500    1.8520   -0.1570 c1        1 893      0.171000
     13 C18         2.9780    2.9310    0.2450 c1        1 893     -0.069000
     14 C19         1.6630    2.7450    0.5760 c1        1 893     -0.036000
     15 C20         1.1130    1.4960    0.5100 c1        1 893     -0.174000
     16 O22        -5.0710   -1.6750   -2.0590 os        1 893     -0.211000
     17 C23        -5.2470   -0.2680   -2.2470 c3        1 893     -0.078000
     18 O27        -2.2600   -2.9560    2.6260 os        1 893     -0.224000
     19 C28        -2.3640   -1.9830    3.6470 c3        1 893     -0.074000
     20 C34         3.6240    4.2770    0.4650 c1        1 893     -0.081000
     21 N35         4.1110    5.2970    0.6310 n1        1 893     -0.026000
     22 O36         5.1350    2.0290   -0.4180 os        1 893     -0.197000
     23 C37         5.4300    2.3480   -1.7670 c3        1 893     -0.012000
     24 C7          6.8300    2.9710   -1.8520 c3        1 893     -0.223000
     25 O1          1.9270   -1.9150   -0.4000 o         1 893     -0.365000
     26 H1         -4.8400   -2.7370    2.3020 ha        1 893      0.146500
     27 H4         -2.4830   -1.9040   -1.7230 ha        1 893      0.151000
     28 H6         -6.0260   -2.2140    0.3190 ha        1 893      0.146500
     29 H91        -0.4250   -2.9700    1.0500 h1        1 893      0.114000
     30 H92        -0.4560   -2.9670   -0.5490 h1        1 893      0.114000
     31 HN1        -0.6910   -0.4250    0.3610 hn        1 893      0.247000
     32 H19         1.1200    3.5010    0.8580 ha        1 893      0.158000
     33 H20         0.1760    1.3630    0.7470 ha        1 893      0.177000
     34 H231       -4.3620    0.1680   -2.3280 h1        1 893      0.085333
     35 H232       -5.7730   -0.1070   -3.0770 h1        1 893      0.085333
     36 H233       -5.7290    0.1080   -1.4760 h1        1 893      0.085333
     37 H281       -1.9590   -2.3310    4.4740 h1        1 893      0.084333
     38 H282       -3.3110   -1.7770    3.8070 h1        1 893      0.084333
     39 H283       -1.8940   -1.1680    3.3700 h1        1 893      0.084333
     40 H371        4.7670    2.9870   -2.1030 h1        1 893      0.093000
     41 H372        5.4020    1.5320   -2.3080 h1        1 893      0.093000
     42 H71         7.0430    3.1660   -2.7840 hc        1 893      0.091667
     43 H72         6.8500    3.8030   -1.3310 hc        1 893      0.091667
     44 H73         7.4900    2.3430   -1.4900 hc        1 893      0.091667
@<TRIPOS>BOND
     1    1    6 1   
     2    1   26 1   
     3    2    3 1   
     4    2   18 1   
     5    3    7 1   
     6    4    5 1   
     7    4   27 1   
     8    5   16 1   
     9    6   28 1   
    10    7    8 1   
    11    7   29 1   
    12    7   30 1   
    13    8    9 1   
    14    8   31 1   
    15    9   10 1   
    16    9   25 1   
    17   10   11 1   
    18   10   15 1   
    19   11   12 1   
    20   12   22 1   
    21   13   14 1   
    22   13   20 1   
    23   14   32 1   
    24   15   33 1   
    25   16   17 1   
    26   17   34 1   
    27   17   35 1   
    28   17   36 1   
    29   18   19 1   
    30   19   37 1   
    31   19   38 1   
    32   19   39 1   
    33   20   21 1   
    34   22   23 1   
    35   23   24 1   
    36   23   40 1   
    37   23   41 1   
    38   24   42 1   
    39   24   43 1   
    40   24   44 1   
@<TRIPOS>SUBSTRUCTURE
     1 893         1 TEMP              0 ****  ****    0 ROOT
