@<TRIPOS>MOLECULE
893
   45    46     1     0     0
SMALL
bcc


@<TRIPOS>ATOM
      1 C1         -0.1800    0.0170    0.1270 ca        1 893     -0.144000
      2 C2          1.2080    0.1850    0.1630 ca        1 893      0.099100
      3 C3          1.9150    0.0680    1.3780 ca        1 893     -0.173300
      4 C4          1.2180   -0.1940    2.5570 ca        1 893     -0.101000
      5 C5         -0.1780   -0.3580    2.5150 ca        1 893      0.117100
      6 C6         -0.8740   -0.2570    1.3020 ca        1 893     -0.133000
      7 C9          3.4010    0.1570    1.3940 c3        1 893      0.189100
      8 N1          3.8640    1.5280    0.9930 n4        1 893     -0.659800
      9 C8          5.3580    1.6850    1.0200 c         1 893      0.458600
     10 C14         5.8950    3.0250    0.6660 ca        1 893      0.345800
     11 N16         5.0150    4.0340    0.3960 nb        1 893     -0.767000
     12 C17         5.5410    5.2350    0.0810 ca        1 893      0.690600
     13 C18         6.9640    5.4810    0.0220 ca        1 893     -0.056300
     14 C19         7.8220    4.4260    0.3050 ca        1 893     -0.042000
     15 C20         7.2870    3.1670    0.6370 ca        1 893     -0.177300
     16 O22        -0.7600   -0.6100    3.7370 os        1 893     -0.315900
     17 C23        -2.1660   -0.8540    3.7340 c3        1 893      0.106700
     18 O27         1.9790    0.5100   -0.9410 os        1 893     -0.387900
     19 C28         1.3770    0.2830   -2.2180 c3        1 893      0.117700
     20 C34         7.4500    6.7670   -0.3170 cg        1 893      0.207800
     21 N35         7.8420    7.8260   -0.5960 n1        1 893     -0.268800
     22 O36         4.7640    6.3180   -0.2080 os        1 893     -0.418100
     23 C37         3.3260    6.1720   -0.1610 c3        1 893      0.141400
     24 C7          2.7840    7.5350   -0.5190 c3        1 893     -0.110100
     25 O1          6.0260    0.7050    1.3270 o         1 893     -0.418100
     26 H1         -0.7310    0.0970   -0.8230 ha        1 893      0.160000
     27 H4          1.7410   -0.2940    3.5210 ha        1 893      0.165000
     28 H6         -1.9660   -0.3920    1.2660 ha        1 893      0.164000
     29 H91         3.8420   -0.5740    0.6540 hx        1 893      0.115200
     30 H92         3.8190   -0.0660    2.4180 hx        1 893      0.115200
     31 HN1         3.4440    2.2280    1.6170 hn        1 893      0.477300
     32 H19         8.9160    4.5670    0.2740 ha        1 893      0.188000
     33 H20         7.9510    2.3170    0.8670 ha        1 893      0.188000
     34 H231       -2.4110   -1.7410    3.1020 h1        1 893      0.058367
     35 H232       -2.3890   -1.0610    4.8130 h1        1 893      0.058367
     36 H233       -2.7190    0.0510    3.3830 h1        1 893      0.058367
     37 H281        0.9770   -0.7560   -2.2870 h1        1 893      0.060700
     38 H282        2.2240    0.4340   -2.9350 h1        1 893      0.060700
     39 H283        0.5690    1.0350   -2.3940 h1        1 893      0.060700
     40 H371        3.0150    5.3930   -0.9040 h1        1 893      0.049200
     41 H372        3.0240    5.8640    0.8730 h1        1 893      0.049200
     42 H71         1.6680    7.4930   -0.5000 hc        1 893      0.065367
     43 H72         3.1220    7.8390   -1.5380 hc        1 893      0.065367
     44 H73         3.1340    8.3030    0.2120 hc        1 893      0.065367
     45 H12         3.5280    1.7230    0.0360 hn        1 893      0.477300
@<TRIPOS>BOND
     1    1    2 ar  
     2    1    6 ar  
     3    1   26 1   
     4    2    3 ar  
     5    2   18 1   
     6    3    4 ar  
     7    3    7 1   
     8    4    5 ar  
     9    4   27 1   
    10    5    6 ar  
    11    5   16 1   
    12    6   28 1   
    13    7    8 1   
    14    7   29 1   
    15    7   30 1   
    16    8    9 1   
    17    8   31 1   
    18    8   45 1   
    19    9   10 1   
    20    9   25 2   
    21   10   11 ar  
    22   10   15 ar  
    23   11   12 ar  
    24   12   13 ar  
    25   12   22 1   
    26   13   14 ar  
    27   13   20 1   
    28   14   15 ar  
    29   14   32 1   
    30   15   33 1   
    31   16   17 1   
    32   17   34 1   
    33   17   35 1   
    34   17   36 1   
    35   18   19 1   
    36   19   37 1   
    37   19   38 1   
    38   19   39 1   
    39   20   21 3   
    40   22   23 1   
    41   23   24 1   
    42   23   40 1   
    43   23   41 1   
    44   24   42 1   
    45   24   43 1   
    46   24   44 1   
@<TRIPOS>SUBSTRUCTURE
     1 893         1 TEMP              0 ****  ****    0 ROOT
