@<TRIPOS>MOLECULE
893
   45    46     1     0     0
SMALL
bcc


@<TRIPOS>ATOM
      1 C1         -0.2330   -0.0290    0.1060 ca        1 893     -0.144000
      2 C2          1.1560    0.1330    0.1410 ca        1 893      0.099100
      3 C3          1.8640   -0.0030    1.3540 ca        1 893     -0.173300
      4 C4          1.1690   -0.2760    2.5300 ca        1 893     -0.101000
      5 C5         -0.2290   -0.4330    2.4900 ca        1 893      0.117100
      6 C6         -0.9260   -0.3150    1.2790 ca        1 893     -0.133000
      7 C9          3.3510    0.0800    1.3690 c3        1 893      0.189100
      8 N1          3.8190    1.4540    0.9840 n4        1 893     -0.659800
      9 C8          5.3140    1.6040    1.0090 c         1 893      0.458600
     10 C14         5.8560    2.9470    0.6710 ca        1 893      0.345800
     11 N16         4.9800    3.9630    0.4180 nb        1 893     -0.767000
     12 C17         5.5100    5.1660    0.1190 ca        1 893      0.690600
     13 C18         6.9340    5.4060    0.0580 ca        1 893     -0.056300
     14 C19         7.7870    4.3440    0.3220 ca        1 893     -0.042000
     15 C20         7.2480    3.0820    0.6380 ca        1 893     -0.177300
     16 O22        -0.8100   -0.6970    3.7090 os        1 893     -0.315900
     17 C23        -2.2160   -0.9350    3.7060 c3        1 893      0.106700
     18 O27         1.9260    0.4670   -0.9600 os        1 893     -0.387900
     19 C28         1.3210    0.2580   -2.2380 c3        1 893      0.117700
     20 C34         7.4240    6.6940   -0.2650 cg        1 893      0.207800
     21 N35         7.8200    7.7550   -0.5310 n1        1 893     -0.268800
     22 O36         4.7370    6.2570   -0.1520 os        1 893     -0.418100
     23 C37         3.2990    6.1170   -0.1010 c3        1 893      0.141400
     24 C7          2.7610    7.4870   -0.4370 c3        1 893     -0.110100
     25 O1          5.9780    0.6180    1.3000 o         1 893     -0.418100
     26 H1         -0.7850    0.0640   -0.8420 ha        1 893      0.160000
     27 H4          1.6930   -0.3890    3.4930 ha        1 893      0.165000
     28 H6         -2.0190   -0.4450    1.2440 ha        1 893      0.164000
     29 H91         3.7880   -0.6430    0.6190 hx        1 893      0.115200
     30 H92         3.7700   -0.1570    2.3880 hx        1 893      0.115200
     31 HN1         3.4810    1.6630    0.0300 hn        1 893      0.477300
     32 H19         8.8830    4.4800    0.2880 ha        1 893      0.188000
     33 H20         7.9090    2.2260    0.8540 ha        1 893      0.188000
     34 H231       -2.4660   -1.8140    3.0640 h1        1 893      0.058367
     35 H232       -2.7660   -0.0240    3.3670 h1        1 893      0.058367
     36 H233       -2.4380   -1.1540    4.7830 h1        1 893      0.058367
     37 H281        0.5160    1.0150   -2.4050 h1        1 893      0.060700
     38 H282        2.1670    0.4140   -2.9550 h1        1 893      0.060700
     39 H283        0.9170   -0.7790   -2.3190 h1        1 893      0.060700
     40 H371        2.9800    5.3510   -0.8540 h1        1 893      0.049200
     41 H372        2.9990    5.7960    0.9300 h1        1 893      0.049200
     42 H71         3.1180    8.2430    0.3030 hc        1 893      0.065367
     43 H72         1.6450    7.4500   -0.4130 hc        1 893      0.065367
     44 H73         3.0960    7.8050   -1.4530 hc        1 893      0.065367
     45 H12         3.4040    2.1480    1.6170 hn        1 893      0.477300
@<TRIPOS>BOND
     1    1    2 ar  
     2    1    6 ar  
     3    1   26 1   
     4    2    3 ar  
     5    2   18 1   
     6    3    4 ar  
     7    3    7 1   
     8    4    5 ar  
     9    4   27 1   
    10    5    6 ar  
    11    5   16 1   
    12    6   28 1   
    13    7    8 1   
    14    7   29 1   
    15    7   30 1   
    16    8    9 1   
    17    8   31 1   
    18    8   45 1   
    19    9   10 1   
    20    9   25 2   
    21   10   11 ar  
    22   10   15 ar  
    23   11   12 ar  
    24   12   13 ar  
    25   12   22 1   
    26   13   14 ar  
    27   13   20 1   
    28   14   15 ar  
    29   14   32 1   
    30   15   33 1   
    31   16   17 1   
    32   17   34 1   
    33   17   35 1   
    34   17   36 1   
    35   18   19 1   
    36   19   37 1   
    37   19   38 1   
    38   19   39 1   
    39   20   21 3   
    40   22   23 1   
    41   23   24 1   
    42   23   40 1   
    43   23   41 1   
    44   24   42 1   
    45   24   43 1   
    46   24   44 1   
@<TRIPOS>SUBSTRUCTURE
     1 893         1 TEMP              0 ****  ****    0 ROOT
