@<TRIPOS>MOLECULE
893
   45    46     1     0     0
SMALL
bcc


@<TRIPOS>ATOM
      1 C1         -0.1790    0.0160    0.1290 ca        1 893     -0.144000
      2 C2          1.2090    0.1840    0.1620 ca        1 893      0.099100
      3 C3          1.9190    0.0650    1.3750 ca        1 893     -0.173300
      4 C4          1.2250   -0.1990    2.5550 ca        1 893     -0.101000
      5 C5         -0.1720   -0.3640    2.5170 ca        1 893      0.117100
      6 C6         -0.8700   -0.2610    1.3060 ca        1 893     -0.133000
      7 C9          3.4040    0.1560    1.3880 c3        1 893      0.189100
      8 N1          3.8660    1.5270    0.9880 ny        1 893     -0.659800
      9 C8          5.3600    1.6850    1.0110 c         1 893      0.458600
     10 C14         5.8950    3.0270    0.6580 ca        1 893      0.345800
     11 N16         5.0130    4.0360    0.3940 nb        1 893     -0.767000
     12 C17         5.5370    5.2380    0.0810 ca        1 893      0.690600
     13 C18         6.9600    5.4850    0.0160 ca        1 893     -0.056300
     14 C19         7.8190    4.4300    0.2930 ca        1 893     -0.042000
     15 C20         7.2870    3.1690    0.6230 ca        1 893     -0.177300
     16 O22        -0.7500   -0.6170    3.7400 os        1 893     -0.315900
     17 C23        -2.1560   -0.8610    3.7400 c3        1 893      0.106700
     18 O27         1.9760    0.5110   -0.9440 os        1 893     -0.387900
     19 C28         1.3720    0.2860   -2.2190 c3        1 893      0.117700
     20 C34         7.4440    6.7720   -0.3210 cg        1 893      0.207800
     21 N35         7.8340    7.8320   -0.5990 n1        1 893     -0.268800
     22 O36         4.7590    6.3220   -0.2030 os        1 893     -0.418100
     23 C37         3.3210    6.1750   -0.1500 c3        1 893      0.141400
     24 C7          2.7760    7.5380   -0.5020 c3        1 893     -0.110100
     25 O1          6.0290    0.7060    1.3130 o         1 893     -0.418100
     26 H1         -0.7320    0.0960   -0.8190 ha        1 893      0.160000
     27 H4          1.7510   -0.2990    3.5180 ha        1 893      0.165000
     28 H6         -1.9630   -0.3970    1.2720 ha        1 893      0.164000
     29 H91         3.8450   -0.5740    0.6450 hx        1 893      0.115200
     30 H92         3.8260   -0.0690    2.4100 hx        1 893      0.115200
     31 HN1         3.4470    2.2260    1.6140 hn        1 893      0.477300
     32 H19         8.9140    4.5710    0.2570 ha        1 893      0.188000
     33 H20         7.9510    2.3190    0.8480 ha        1 893      0.188000
     34 H231       -2.4020   -1.7480    3.1070 h1        1 893      0.058367
     35 H232       -2.3760   -1.0700    4.8190 h1        1 893      0.058367
     36 H233       -2.7100    0.0430    3.3920 h1        1 893      0.058367
     37 H281        0.9720   -0.7540   -2.2890 h1        1 893      0.060700
     38 H282        2.2160    0.4380   -2.9380 h1        1 893      0.060700
     39 H283        0.5630    1.0370   -2.3930 h1        1 893      0.060700
     40 H371        3.0060    5.3980   -0.8940 h1        1 893      0.049200
     41 H372        3.0240    5.8640    0.8850 h1        1 893      0.049200
     42 H71         1.6610    7.4960   -0.4780 hc        1 893      0.065367
     43 H72         3.1100    7.8460   -1.5220 hc        1 893      0.065367
     44 H73         3.1300    8.3050    0.2290 hc        1 893      0.065367
     45 H12         3.5270    1.7240    0.0320 hn        1 893      0.477300
@<TRIPOS>BOND
     1    1    2 ar  
     2    1    6 ar  
     3    1   26 1   
     4    2    3 ar  
     5    2   18 1   
     6    3    4 ar  
     7    3    7 1   
     8    4    5 ar  
     9    4   27 1   
    10    5    6 ar  
    11    5   16 1   
    12    6   28 1   
    13    7    8 1   
    14    7   29 1   
    15    7   30 1   
    16    8    9 1   
    17    8   31 1   
    18    8   45 1   
    19    9   10 1   
    20    9   25 2   
    21   10   11 ar  
    22   10   15 ar  
    23   11   12 ar  
    24   12   13 ar  
    25   12   22 1   
    26   13   14 ar  
    27   13   20 1   
    28   14   15 ar  
    29   14   32 1   
    30   15   33 1   
    31   16   17 1   
    32   17   34 1   
    33   17   35 1   
    34   17   36 1   
    35   18   19 1   
    36   19   37 1   
    37   19   38 1   
    38   19   39 1   
    39   20   21 3   
    40   22   23 1   
    41   23   24 1   
    42   23   40 1   
    43   23   41 1   
    44   24   42 1   
    45   24   43 1   
    46   24   44 1   
@<TRIPOS>SUBSTRUCTURE
     1 893         1 TEMP              0 ****  ****    0 ROOT
