@<TRIPOS>MOLECULE
893
   44    45     1     0     0
SMALL
bcc


@<TRIPOS>ATOM
      1 C1         -3.9680    0.8630   -1.0330 ca        1 893     -0.168000
      2 C2         -2.9730   -0.1100   -1.1430 ca        1 893      0.094100
      3 C3         -2.7660   -1.0550   -0.1120 ca        1 893     -0.111300
      4 C4         -3.5590   -0.9980    1.0270 ca        1 893     -0.106000
      5 C5         -4.5650   -0.0170    1.1330 ca        1 893      0.095100
      6 C6         -4.7700    0.9100    0.1080 ca        1 893     -0.166000
      7 C9         -1.7220   -2.1260   -0.2570 c3        1 893      0.136300
      8 N1         -0.3670   -1.6350   -0.3010 n         1 893     -0.527900
      9 C8          0.4720   -1.7480    0.7840 c         1 893      0.560600
     10 C14         1.8330   -1.0890    0.7070 ca        1 893      0.419800
     11 N16         1.9690    0.0850    0.0480 nb        1 893     -0.727000
     12 C17         3.2030    0.6470    0.0330 ca        1 893      0.668600
     13 C18         4.3450    0.0570    0.6620 ca        1 893     -0.138300
     14 C19         4.1620   -1.1560    1.3320 ca        1 893     -0.036000
     15 C20         2.8950   -1.7400    1.3630 ca        1 893     -0.239300
     16 O22        -5.2980   -0.0690    2.3040 os        1 893     -0.323900
     17 C23        -6.2890    0.9370    2.4670 c3        1 893      0.113700
     18 O27        -2.1160   -0.2210   -2.2270 os        1 893     -0.339900
     19 C28        -2.4530    0.5570   -3.3700 c3        1 893      0.115700
     20 C34         5.6120    0.6840    0.6070 cg        1 893      0.248800
     21 N35         6.6530    1.2010    0.5600 n1        1 893     -0.352800
     22 O36         3.4410    1.8400   -0.6040 os        1 893     -0.439100
     23 C37         2.3240    2.5010   -1.2320 c3        1 893      0.138400
     24 C7          2.8920    3.7740   -1.8150 c3        1 893     -0.105100
     25 O1          0.1920   -2.4420    1.7840 o         1 893     -0.600100
     26 H1         -4.1330    1.5970   -1.8340 ha        1 893      0.139000
     27 H4         -3.4140   -1.7120    1.8530 ha        1 893      0.162000
     28 H6         -5.5510    1.6790    0.1850 ha        1 893      0.140000
     29 H91        -1.9110   -2.6610   -1.2350 h1        1 893      0.076200
     30 H92        -1.8170   -2.8690    0.5870 h1        1 893      0.076200
     31 HN1        -0.1830   -0.9380   -0.9890 hn        1 893      0.333500
     32 H19         5.0130   -1.6430    1.8350 ha        1 893      0.158000
     33 H20         2.7090   -2.6830    1.8980 ha        1 893      0.178000
     34 H231       -6.7250    0.7130    3.4740 h1        1 893      0.044367
     35 H232       -5.8280    1.9540    2.4550 h1        1 893      0.044367
     36 H233       -7.0710    0.8530    1.6730 h1        1 893      0.044367
     37 H281       -3.4960    0.3440   -3.7060 h1        1 893      0.044367
     38 H282       -2.3260    1.6450   -3.1520 h1        1 893      0.044367
     39 H283       -1.7130    0.2220   -4.1410 h1        1 893      0.044367
     40 H371        1.5390    2.7160   -0.4610 h1        1 893      0.053700
     41 H372        1.9030    1.8360   -2.0300 h1        1 893      0.053700
     42 H71         3.6910    3.5430   -2.5590 hc        1 893      0.052367
     43 H72         2.0710    4.3370   -2.3190 hc        1 893      0.052367
     44 H73         3.3340    4.4100   -1.0110 hc        1 893      0.052367
@<TRIPOS>BOND
     1    1    2 ar  
     2    1    6 ar  
     3    1   26 1   
     4    2    3 ar  
     5    2   18 1   
     6    3    4 ar  
     7    3    7 1   
     8    4    5 ar  
     9    4   27 1   
    10    5    6 ar  
    11    5   16 1   
    12    6   28 1   
    13    7    8 1   
    14    7   29 1   
    15    7   30 1   
    16    8    9 1   
    17    8   31 1   
    18    9   10 1   
    19    9   25 2   
    20   10   11 ar  
    21   10   15 ar  
    22   11   12 ar  
    23   12   13 ar  
    24   12   22 1   
    25   13   14 ar  
    26   13   20 1   
    27   14   15 ar  
    28   14   32 1   
    29   15   33 1   
    30   16   17 1   
    31   17   34 1   
    32   17   35 1   
    33   17   36 1   
    34   18   19 1   
    35   19   37 1   
    36   19   38 1   
    37   19   39 1   
    38   20   21 3   
    39   22   23 1   
    40   23   24 1   
    41   23   40 1   
    42   23   41 1   
    43   24   42 1   
    44   24   43 1   
    45   24   44 1   
@<TRIPOS>SUBSTRUCTURE
     1 893         1 TEMP              0 ****  ****    0 ROOT
