@<TRIPOS>MOLECULE
894
   53    55     1     0     0
SMALL
bcc


@<TRIPOS>ATOM
      1 CL1         1.3270   -2.9170    1.8910 cl        1 894      0.004600
      2 C1          2.3860   -2.1130    0.8870 cc        1 894     -0.016700
      3 C2          3.1400   -1.0050    1.2430 cd        1 894     -0.149000
      4 C3          3.9420   -0.5520    0.1580 cd        1 894     -0.124000
      5 C4          3.7680   -1.3340   -0.9750 cc        1 894     -0.184400
      6 C9          4.4340   -1.1100   -2.2630 c3        1 894      0.049900
      7 S1          6.6820   -1.2320   -3.6180 s6        1 894      1.399900
      8 O2          6.1250   -1.7220   -4.7760 o         1 894     -0.557800
      9 O1          7.3070   -0.0020   -3.6020 o         1 894     -0.557800
     10 N1          8.2350   -2.3470   -3.3840 n4        1 894     -0.683900
     11 C12         8.1390   -3.6860   -4.0040 c3        1 894     -0.002500
     12 C13         9.4080   -4.2090   -4.7000 c3        1 894     -0.101400
     13 C14         9.4500   -5.7100   -4.3480 c3        1 894      0.056000
     14 C15         7.7960   -4.7930   -2.9580 c         1 894      0.702500
     15 O3          7.0100   -4.5700   -2.0290 o         1 894     -0.606500
     16 N2          8.5790   -5.9270   -3.1890 n         1 894     -0.387800
     17 C16         7.9990   -7.2560   -3.0340 c3        1 894      0.033700
     18 C17         7.5310   -7.5300   -1.6070 c3        1 894     -0.108100
     19 C18         6.8020   -7.4720   -4.0020 c         1 894      0.631100
     20 O4          6.2350   -6.4680   -4.4930 o         1 894     -0.645100
     21 N3          6.3890   -8.7400   -4.3250 n         1 894     -0.446800
     22 C19         6.9270   -9.9530   -3.7500 c3        1 894      0.050000
     23 C20         6.9980  -11.1070   -4.7660 c3        1 894      0.112400
     24 O5          5.7610  -11.2890   -5.4380 os        1 894     -0.395600
     25 C22         5.3400  -10.1110   -6.1150 c3        1 894      0.112400
     26 C23         5.2070   -8.9250   -5.1510 c3        1 894      0.050000
     27 S6          2.6610   -2.5590   -0.7070 ss        1 894      0.103200
     28 C6          5.8890   -1.6050   -2.2260 c3        1 894     -0.435600
     29 H2          3.1260   -0.5250    2.2260 ha        1 894      0.179000
     30 H3          4.5980    0.3190    0.2260 ha        1 894      0.157000
     31 H9C1        3.8880   -1.6470   -3.0870 hc        1 894      0.075700
     32 H9C2        4.4290   -0.0080   -2.4950 hc        1 894      0.075700
     33 H6C1        6.3510   -1.1520   -1.2990 h1        1 894      0.186200
     34 H6C2        5.8320   -2.7130   -1.9780 h1        1 894      0.186200
     35 H1          8.4190   -2.4680   -2.3860 hn        1 894      0.452300
     36 H12         7.2850   -3.6760   -4.7550 hx        1 894      0.162700
     37 H131        9.3410   -4.0680   -5.8070 hc        1 894      0.085200
     38 H132       10.3360   -3.7020   -4.3350 hc        1 894      0.085200
     39 H141       10.4910   -6.0260   -4.0640 h1        1 894      0.083700
     40 H142        9.1120   -6.3220   -5.2310 h1        1 894      0.083700
     41 H16         8.8330   -7.9750   -3.2980 h1        1 894      0.090700
     42 H171        8.3780   -7.4120   -0.8890 hc        1 894      0.069033
     43 H172        7.1490   -8.5780   -1.5410 hc        1 894      0.069033
     44 H173        6.7120   -6.8270   -1.3120 hc        1 894      0.069033
     45 H191        7.9630   -9.7810   -3.3490 h1        1 894      0.066450
     46 H192        6.2630  -10.2720   -2.8940 h1        1 894      0.066450
     47 H231        4.3240   -9.1040   -4.4720 h1        1 894      0.066450
     48 H232        5.0140   -7.9880   -5.7460 h1        1 894      0.066450
     49 H201        7.1720  -12.0750   -4.2260 h1        1 894      0.066450
     50 H202        7.8150  -10.9270   -5.5130 h1        1 894      0.066450
     51 H221        6.0560   -9.8740   -6.9460 h1        1 894      0.066450
     52 H222        4.3330  -10.3740   -6.5350 h1        1 894      0.066450
     53 H121        9.0400   -1.8570   -3.7770 hn        1 894      0.452300
@<TRIPOS>BOND
     1    1    2 1   
     2    2    3 2   
     3    2   27 1   
     4    3    4 1   
     5    3   29 1   
     6    4    5 2   
     7    4   30 1   
     8    5    6 1   
     9    5   27 1   
    10    6   28 1   
    11    6   31 1   
    12    6   32 1   
    13    7    8 2   
    14    7    9 2   
    15    7   10 1   
    16    7   28 1   
    17   10   11 1   
    18   10   35 1   
    19   10   53 1   
    20   11   12 1   
    21   11   14 1   
    22   11   36 1   
    23   12   13 1   
    24   12   37 1   
    25   12   38 1   
    26   13   16 1   
    27   13   39 1   
    28   13   40 1   
    29   14   15 2   
    30   14   16 1   
    31   16   17 1   
    32   17   18 1   
    33   17   19 1   
    34   17   41 1   
    35   18   42 1   
    36   18   43 1   
    37   18   44 1   
    38   19   20 2   
    39   19   21 1   
    40   21   22 1   
    41   21   26 1   
    42   22   23 1   
    43   22   45 1   
    44   22   46 1   
    45   23   24 1   
    46   23   49 1   
    47   23   50 1   
    48   24   25 1   
    49   25   26 1   
    50   25   51 1   
    51   25   52 1   
    52   26   47 1   
    53   26   48 1   
    54   28   33 1   
    55   28   34 1   
@<TRIPOS>SUBSTRUCTURE
     1 894         1 TEMP              0 ****  ****    0 ROOT
