@<TRIPOS>MOLECULE
894
   52    54     1     0     0
SMALL
bcc


@<TRIPOS>ATOM
      1 CL1        -8.6940   -3.0660    0.6570 cl        1 894     -0.035400
      2 C1         -7.5870   -4.2010    1.1900 cc        1 894     -0.039700
      3 C2         -7.6820   -5.5660    0.9890 cd        1 894     -0.147000
      4 C3         -6.5790   -6.2560    1.5710 cd        1 894     -0.151000
      5 C4         -5.6930   -5.3910    2.1880 cc        1 894     -0.109400
      6 C9         -4.4610   -5.7830    2.8910 c3        1 894      0.026900
      7 S1         -1.9390   -6.6500    2.7630 s6        1 894      1.457900
      8 O2         -1.6500   -5.7530    3.8110 o         1 894     -0.650800
      9 O1         -2.1350   -8.0030    3.1090 o         1 894     -0.650800
     10 N1         -0.7750   -6.5810    1.6310 n3        1 894     -0.899100
     11 C12         0.0370   -5.4340    1.3770 c3        1 894      0.164500
     12 C13         1.5420   -5.7210    1.1680 c3        1 894     -0.098400
     13 C14         1.9270   -5.0300   -0.1510 c3        1 894      0.070000
     14 C15        -0.3870   -4.6670    0.0880 c         1 894      0.677500
     15 O3         -1.5410   -4.2730   -0.1270 o         1 894     -0.615500
     16 N2          0.7010   -4.5590   -0.7860 n         1 894     -0.438800
     17 C16         0.8230   -3.5590   -1.8220 c3        1 894      0.059700
     18 C17        -0.4960   -3.2350   -2.5220 c3        1 894     -0.102100
     19 C18         1.4330   -2.2250   -1.3130 c         1 894      0.629100
     20 O4          1.3940   -1.9270   -0.1010 o         1 894     -0.608100
     21 N3          2.0440   -1.3620   -2.2060 n         1 894     -0.472800
     22 C19         2.0770   -1.5410   -3.6360 c3        1 894      0.057500
     23 C20         3.4000   -1.0630   -4.2610 c3        1 894      0.112900
     24 O5          3.7390    0.2510   -3.8420 os        1 894     -0.407600
     25 C22         3.8190    0.3610   -2.4250 c3        1 894      0.112900
     26 C23         2.5120   -0.0680   -1.7470 c3        1 894      0.057500
     27 S6         -6.2020   -3.7990    2.0540 ss        1 894      0.064200
     28 C6         -3.3340   -6.1070    1.9290 c3        1 894     -0.337600
     29 H2         -8.4930   -6.0680    0.4560 ha        1 894      0.162000
     30 H3         -6.4630   -7.3410    1.5300 ha        1 894      0.157000
     31 H9C1       -4.6740   -6.6890    3.5260 hc        1 894      0.069700
     32 H9C2       -4.1280   -4.9580    3.5810 hc        1 894      0.069700
     33 H6C1       -3.7040   -6.8820    1.2060 h1        1 894      0.131200
     34 H6C2       -3.1320   -5.1960    1.2960 h1        1 894      0.131200
     35 H1         -0.5760   -7.3580    1.0460 hn        1 894      0.451800
     36 H12        -0.0880   -4.7040    2.2350 h1        1 894      0.114700
     37 H131        1.7610   -6.8150    1.1090 hc        1 894      0.069700
     38 H132        2.1310   -5.2960    2.0170 hc        1 894      0.069700
     39 H141        2.6270   -4.1710    0.0480 h1        1 894      0.057200
     40 H142        2.4330   -5.7510   -0.8490 h1        1 894      0.057200
     41 H16         1.5420   -4.0140   -2.5720 h1        1 894      0.066700
     42 H171       -1.1860   -2.6880   -1.8330 hc        1 894      0.061700
     43 H172       -0.2920   -2.6000   -3.4170 hc        1 894      0.061700
     44 H173       -1.0040   -4.1730   -2.8500 hc        1 894      0.061700
     45 H191        1.2330   -0.9510   -4.1000 h1        1 894      0.061450
     46 H192        1.9400   -2.6230   -3.9090 h1        1 894      0.061450
     47 H231        2.6720   -0.1000   -0.6320 h1        1 894      0.061450
     48 H232        1.7190    0.7030   -1.9690 h1        1 894      0.061450
     49 H201        4.2340   -1.7680   -4.0060 h1        1 894      0.058200
     50 H202        3.2870   -0.9840   -5.3740 h1        1 894      0.058200
     51 H221        4.0050    1.4520   -2.2400 h1        1 894      0.058200
     52 H222        4.6840   -0.2470   -2.0500 h1        1 894      0.058200
@<TRIPOS>BOND
     1    1    2 1   
     2    2    3 2   
     3    2   27 1   
     4    3    4 1   
     5    3   29 1   
     6    4    5 2   
     7    4   30 1   
     8    5    6 1   
     9    5   27 1   
    10    6   28 1   
    11    6   31 1   
    12    6   32 1   
    13    7    8 2   
    14    7    9 2   
    15    7   10 1   
    16    7   28 1   
    17   10   11 1   
    18   10   35 1   
    19   11   12 1   
    20   11   14 1   
    21   11   36 1   
    22   12   13 1   
    23   12   37 1   
    24   12   38 1   
    25   13   16 1   
    26   13   39 1   
    27   13   40 1   
    28   14   15 2   
    29   14   16 1   
    30   16   17 1   
    31   17   18 1   
    32   17   19 1   
    33   17   41 1   
    34   18   42 1   
    35   18   43 1   
    36   18   44 1   
    37   19   20 2   
    38   19   21 1   
    39   21   22 1   
    40   21   26 1   
    41   22   23 1   
    42   22   45 1   
    43   22   46 1   
    44   23   24 1   
    45   23   49 1   
    46   23   50 1   
    47   24   25 1   
    48   25   26 1   
    49   25   51 1   
    50   25   52 1   
    51   26   47 1   
    52   26   48 1   
    53   28   33 1   
    54   28   34 1   
@<TRIPOS>SUBSTRUCTURE
     1 894         1 TEMP              0 ****  ****    0 ROOT
