@<TRIPOS>MOLECULE
894
   52    49     1     0     0
SMALL
bcc


@<TRIPOS>ATOM
      1 CL1        -5.4490   -8.0220   -1.6810 cl        1 894      0.047000
      2 C1         -3.7420   -7.5370   -1.6260 c2        1 894     -0.385000
      3 C2         -2.8850   -7.3210   -2.7780 c1        1 894     -0.146000
      4 C3         -1.5280   -6.6440   -2.2750 c1        1 894     -0.150000
      5 C4         -1.6080   -6.4760   -0.8520 c1        1 894     -0.374000
      6 C9         -0.5030   -6.0070    0.0340 c2        1 894     -0.460500
      7 S1          0.4340   -3.7980    1.2960 ss        1 894      2.816000
      8 O2          0.9520   -4.1620    2.5930 o         1 894     -0.924000
      9 O1          1.5350   -4.0890    0.4730 o         1 894     -0.924000
     10 N1          0.0370   -2.1650    1.2300 n2        1 894     -0.875000
     11 C12         1.0090   -1.2010    0.7890 c3        1 894      0.019000
     12 C13         0.9220   -1.0440   -0.5670 c3        1 894     -0.190000
     13 C14         1.1980    0.4790   -0.8270 c3        1 894     -0.039000
     14 C15         0.5860    0.2660    1.3180 c2        1 894      0.286000
     15 O3          0.0170    0.5060    2.3330 o         1 894     -0.329000
     16 N2          1.1400    1.1460    0.5150 n         1 894     -0.319000
     17 C16         1.2600    2.5850    0.7660 c3        1 894      0.033000
     18 C17         2.7210    3.0110    0.6260 c3        1 894     -0.221000
     19 C18         0.4320    3.3280   -0.2130 c2        1 894      0.279000
     20 O4          0.1240    2.8250   -1.2050 o         1 894     -0.378000
     21 N3         -0.0700    4.6480    0.1180 n         1 894     -0.322000
     22 C19        -0.9460    5.3820   -0.7270 c3        1 894     -0.062000
     23 C20        -0.4440    6.7890   -0.9860 c3        1 894     -0.034500
     24 O5         -0.1140    7.4820    0.2320 os        1 894     -0.263000
     25 C22         0.7750    6.7180    1.0780 c3        1 894     -0.034500
     26 C23         0.2670    5.3250    1.3270 c3        1 894     -0.062000
     27 S6         -2.9940   -7.0250   -0.3810 ss        1 894      0.597000
     28 C6         -0.9790   -4.7990    0.8620 c2        1 894     -0.460500
     29 H2         -3.0980   -7.5480   -3.6920 DU        1 894      0.160500
     30 H3         -0.7630   -6.3860   -2.8450 DU        1 894      0.160500
     31 H9C1        0.2880   -5.7320   -0.5340 ha        1 894      0.131500
     32 H9C2       -0.2330   -6.7400    0.6420 ha        1 894      0.131500
     33 H6C1       -1.4230   -5.1150    1.6860 ha        1 894      0.131500
     34 H6C2       -1.6280   -4.2530    0.3160 ha        1 894      0.131500
     35 H1         -0.7910   -1.8770    1.5400 hn        1 894      0.253000
     36 H12         1.8410   -1.5910    1.1490 h1        1 894      0.151000
     37 H131        1.6130   -1.5970   -1.0220 hc        1 894      0.104000
     38 H132        0.0320   -1.2870   -0.8820 hc        1 894      0.104000
     39 H141        0.5090    0.8480   -1.4160 h1        1 894      0.105500
     40 H142        2.0780    0.5980   -1.2240 h1        1 894      0.105500
     41 H16         0.9650    2.7750    1.6260 h1        1 894      0.135000
     42 H171        3.1530    2.4940   -0.1300 hc        1 894      0.093333
     43 H172        2.7640    3.9880    0.4290 hc        1 894      0.093333
     44 H173        3.2160    2.8180    1.4960 hc        1 894      0.093333
     45 H191       -1.0270    4.9120   -1.5860 h1        1 894      0.100500
     46 H192       -1.8030    5.4290   -0.3190 h1        1 894      0.100500
     47 H231        0.9690    4.8060    1.8030 h1        1 894      0.100500
     48 H232       -0.5550    5.3780    1.9100 h1        1 894      0.100500
     49 H201       -1.1390    7.2900   -1.4550 h1        1 894      0.097250
     50 H202        0.3650    6.7430   -1.5640 h1        1 894      0.097250
     51 H221        0.8740    7.1870    1.9510 h1        1 894      0.097250
     52 H222        1.6490    6.6610    0.6510 h1        1 894      0.097250
@<TRIPOS>BOND
     1    1    2 1   
     2    2    3 1   
     3    2   27 1   
     4    3    4 1   
     5    4    5 1   
     6    5   27 1   
     7    6   28 1   
     8    6   31 1   
     9    6   32 1   
    10    7    8 1   
    11    7    9 1   
    12   10   11 1   
    13   10   35 1   
    14   11   12 1   
    15   11   14 1   
    16   11   36 1   
    17   12   13 1   
    18   12   37 1   
    19   12   38 1   
    20   13   16 1   
    21   13   39 1   
    22   13   40 1   
    23   14   15 1   
    24   14   16 1   
    25   16   17 1   
    26   17   18 1   
    27   17   19 1   
    28   17   41 1   
    29   18   42 1   
    30   18   43 1   
    31   18   44 1   
    32   19   20 1   
    33   19   21 1   
    34   21   22 1   
    35   21   26 1   
    36   22   23 1   
    37   22   45 1   
    38   22   46 1   
    39   23   24 1   
    40   23   49 1   
    41   23   50 1   
    42   24   25 1   
    43   25   26 1   
    44   25   51 1   
    45   25   52 1   
    46   26   47 1   
    47   26   48 1   
    48   28   33 1   
    49   28   34 1   
@<TRIPOS>SUBSTRUCTURE
     1 894         1 TEMP              0 ****  ****    0 ROOT
