@<TRIPOS>MOLECULE
894
   53    55     1     0     0
SMALL
bcc


@<TRIPOS>ATOM
      1 Cl1         1.2320   -2.9300    1.7830 cl        1 894      0.004600
      2 C1          2.3140   -2.1240    0.8050 cc        1 894     -0.016700
      3 C2          3.0630   -1.0180    1.1820 cd        1 894     -0.149000
      4 C3          3.8880   -0.5630    0.1170 cd        1 894     -0.124000
      5 C4          3.7390   -1.3400   -1.0230 cc        1 894     -0.184400
      6 C9          4.4330   -1.1120   -2.2950 c3        1 894      0.049900
      7 S1          6.7100   -1.2350   -3.6010 s6        1 894      1.399900
      8 O2          6.1760   -1.7180   -4.7730 o         1 894     -0.557800
      9 O1          7.3380   -0.0070   -3.5660 o         1 894     -0.557800
     10 N1          8.2530   -2.3560   -3.3380 ny        1 894     -0.683900
     11 C12         8.1650   -3.6920   -3.9650 c3        1 894     -0.003500
     12 C13         9.4460   -4.2170   -4.6370 c3        1 894     -0.101400
     13 C14         9.4750   -5.7200   -4.2910 c3        1 894      0.056000
     14 C15         7.7980   -4.8020   -2.9300 c         1 894      0.702500
     15 O3          6.9960   -4.5790   -2.0140 o         1 894     -0.606500
     16 N2          8.5820   -5.9380   -3.1500 n         1 894     -0.387800
     17 C16         7.9920   -7.2650   -3.0120 c3        1 894      0.033700
     18 C17         7.4970   -7.5440   -1.5950 c3        1 894     -0.108100
     19 C18         6.8110   -7.4700   -4.0030 c         1 894      0.631100
     20 O4          6.2580   -6.4600   -4.4990 o         1 894     -0.645100
     21 N3          6.3980   -8.7330   -4.3400 n         1 894     -0.446800
     22 C19         6.9190   -9.9520   -3.7620 c3        1 894      0.050000
     23 C20         7.0020  -11.1010   -4.7820 c3        1 894      0.112400
     24 O5          5.7770  -11.2730   -5.4780 os        1 894     -0.395600
     25 C22         5.3730  -10.0890   -6.1560 c3        1 894      0.112400
     26 C23         5.2290   -8.9080   -5.1880 c3        1 894      0.050000
     27 S6          2.6230   -2.5640   -0.7840 ss        1 894      0.103200
     28 C6          5.8860   -1.6110   -2.2280 c3        1 894     -0.435600
     29 H2          3.0280   -0.5430    2.1660 ha        1 894      0.179000
     30 H3          4.5450    0.3060    0.2030 ha        1 894      0.157000
     31 H9C1        3.9040   -1.6450   -3.1330 hc        1 894      0.075700
     32 H9C2        4.4350   -0.0090   -2.5220 hc        1 894      0.075700
     33 H6C1        5.8210   -2.7200   -1.9850 h1        1 894      0.186200
     34 H6C2        6.3280   -1.1620   -1.2890 h1        1 894      0.186200
     35 H1          9.0680   -1.8670   -3.7140 hn        1 894      0.452300
     36 H12         7.3260   -3.6780   -4.7320 hx        1 894      0.162700
     37 H131        9.4010   -4.0720   -5.7450 hc        1 894      0.085200
     38 H132       10.3680   -3.7150   -4.2530 hc        1 894      0.085200
     39 H141       10.5090   -6.0400   -3.9880 h1        1 894      0.083700
     40 H142        9.1520   -6.3270   -5.1820 h1        1 894      0.083700
     41 H16         8.8270   -7.9870   -3.2650 h1        1 894      0.090700
     42 H171        8.3320   -7.4340   -0.8620 hc        1 894      0.069033
     43 H172        7.1090   -8.5900   -1.5420 hc        1 894      0.069033
     44 H173        6.6770   -6.8380   -1.3110 hc        1 894      0.069033
     45 H191        6.2380  -10.2720   -2.9190 h1        1 894      0.066450
     46 H192        7.9480   -9.7880   -3.3420 h1        1 894      0.066450
     47 H231        5.0530   -7.9670   -5.7810 h1        1 894      0.066450
     48 H232        4.3340   -9.0850   -4.5250 h1        1 894      0.066450
     49 H201        7.1610  -12.0730   -4.2440 h1        1 894      0.066450
     50 H202        7.8340  -10.9220   -5.5130 h1        1 894      0.066450
     51 H221        6.1050   -9.8520   -6.9720 h1        1 894      0.066450
     52 H222        4.3730  -10.3450   -6.5950 h1        1 894      0.066450
     53 H121        8.4160   -2.4800   -2.3380 hn        1 894      0.452300
@<TRIPOS>BOND
     1    1    2 1   
     2    2    3 2   
     3    2   27 1   
     4    3    4 1   
     5    3   29 1   
     6    4    5 2   
     7    4   30 1   
     8    5    6 1   
     9    5   27 1   
    10    6   28 1   
    11    6   31 1   
    12    6   32 1   
    13    7    8 2   
    14    7    9 2   
    15    7   10 1   
    16    7   28 1   
    17   10   11 1   
    18   10   35 1   
    19   10   53 1   
    20   11   12 1   
    21   11   14 1   
    22   11   36 1   
    23   12   13 1   
    24   12   37 1   
    25   12   38 1   
    26   13   16 1   
    27   13   39 1   
    28   13   40 1   
    29   14   15 2   
    30   14   16 1   
    31   16   17 1   
    32   17   18 1   
    33   17   19 1   
    34   17   41 1   
    35   18   42 1   
    36   18   43 1   
    37   18   44 1   
    38   19   20 2   
    39   19   21 1   
    40   21   22 1   
    41   21   26 1   
    42   22   23 1   
    43   22   45 1   
    44   22   46 1   
    45   23   24 1   
    46   23   49 1   
    47   23   50 1   
    48   24   25 1   
    49   25   26 1   
    50   25   51 1   
    51   25   52 1   
    52   26   47 1   
    53   26   48 1   
    54   28   33 1   
    55   28   34 1   
@<TRIPOS>SUBSTRUCTURE
     1 894         1 TEMP              0 ****  ****    0 ROOT
