@<TRIPOS>MOLECULE
895
   50    48     1     0     0
SMALL
bcc


@<TRIPOS>ATOM
      1 CL1        -9.3770    0.6550    1.2530 cl        1 895      0.055000
      2 C1         -8.2210    0.2410    2.4900 c2        1 895     -0.366000
      3 C2         -7.9660    1.2100    3.6600 c1        1 895     -0.158000
      4 C3         -6.4400    1.1490    4.0960 c1        1 895     -0.095000
      5 C4         -5.6770    0.1340    3.2160 c1        1 895     -0.421000
      6 C9         -4.5550   -0.7070    3.8230 c1        1 895     -0.412500
      7 S1         -2.9750    0.3490    1.8780 ss        1 895      2.870000
      8 O2         -3.5520   -0.2080    0.6860 o         1 895     -0.939500
      9 O1         -3.6760    1.6070    1.9700 o         1 895     -0.939500
     10 N1         -1.3540    0.5800    1.7030 n2        1 895     -0.867000
     11 C12        -0.8180    0.5150    0.5360 c3        1 895      0.023000
     12 C13        -0.4640    1.9220    0.0510 c3        1 895     -0.178000
     13 C14         0.8900    2.0200    0.1760 c3        1 895     -0.046000
     14 C15         0.6420   -0.1680    0.6430 c2        1 895      0.285000
     15 O3          0.8710   -1.3240    0.9440 o         1 895     -0.343000
     16 N2          1.4370    0.6210    0.0170 n         1 895     -0.299000
     17 C16         2.7170    0.2780   -0.5030 c3        1 895      0.035000
     18 C17         3.6270   -0.0910    0.6220 c3        1 895     -0.220000
     19 C18         2.5790   -0.9170   -1.4670 c2        1 895      0.273000
     20 O4          1.6330   -1.6750   -1.3620 o         1 895     -0.368000
     21 N3          3.6360   -1.1910   -2.4560 n         1 895     -0.332000
     22 C19         3.6160   -2.3110   -3.3130 c3        1 895     -0.058500
     23 C20         3.8050   -1.9240   -4.7650 c3        1 895     -0.037500
     24 O5          4.9440   -1.0910   -4.9580 os        1 895     -0.265000
     25 C22         4.9480    0.0350   -4.0850 c3        1 895     -0.037500
     26 C23         4.7530   -0.3620   -2.6330 c3        1 895     -0.058500
     27 S6         -6.7530   -0.5680    2.0680 ss        1 895      0.606000
     28 C6         -3.3000   -0.6700    3.2800 c1        1 895     -0.412500
     29 H2         -8.6600    1.3590    4.3310 ha        1 895      0.171000
     30 H3         -6.1960    1.2610    5.0340 ha        1 895      0.204000
     31 H1         -0.8300    0.7110    2.4380 hn        1 895      0.245000
     32 H12        -1.5070    0.0290    0.0410 h1        1 895      0.151000
     33 H131       -0.7260    2.0330   -0.8850 hc        1 895      0.109000
     34 H132       -0.9070    2.5960    0.6100 hc        1 895      0.109000
     35 H141        1.2510    2.6040   -0.5230 h1        1 895      0.095000
     36 H142        1.1210    2.3740    1.0630 h1        1 895      0.095000
     37 H16         3.0890    1.0430   -0.9830 h1        1 895      0.105000
     38 H171        3.2030    0.1520    1.4810 hc        1 895      0.100333
     39 H172        4.4770    0.3920    0.5280 hc        1 895      0.100333
     40 H173        3.7950   -1.0530    0.6020 hc        1 895      0.100333
     41 H191        4.3370   -2.9250   -3.0510 h1        1 895      0.100750
     42 H192        2.7610   -2.7680   -3.2160 h1        1 895      0.100750
     43 H231        4.6370    0.4420   -2.0980 h1        1 895      0.100750
     44 H232        5.5540   -0.8380   -2.3230 h1        1 895      0.100750
     45 H201        3.9120   -2.7370   -5.2990 h1        1 895      0.097000
     46 H202        3.0070   -1.4450   -5.0720 h1        1 895      0.097000
     47 H221        5.8060    0.5050   -4.1740 h1        1 895      0.097000
     48 H222        4.2270    0.6400   -4.3470 h1        1 895      0.097000
     49 H6         -2.5830   -1.2080    3.6700 ha        1 895      0.164500
     50 H9         -4.7350   -1.2740    4.6020 ha        1 895      0.164500
@<TRIPOS>BOND
     1    1    2 1   
     2    2    3 1   
     3    2   27 1   
     4    3   29 1   
     5    4    5 1   
     6    4   30 1   
     7    5   27 1   
     8    6   28 1   
     9    6   50 1   
    10    7    8 1   
    11    7    9 1   
    12   10   11 1   
    13   10   31 1   
    14   11   12 1   
    15   11   14 1   
    16   11   32 1   
    17   12   13 1   
    18   12   33 1   
    19   12   34 1   
    20   13   16 1   
    21   13   35 1   
    22   13   36 1   
    23   14   15 1   
    24   14   16 1   
    25   16   17 1   
    26   17   18 1   
    27   17   19 1   
    28   17   37 1   
    29   18   38 1   
    30   18   39 1   
    31   18   40 1   
    32   19   20 1   
    33   19   21 1   
    34   21   22 1   
    35   21   26 1   
    36   22   23 1   
    37   22   41 1   
    38   22   42 1   
    39   23   24 1   
    40   23   45 1   
    41   23   46 1   
    42   24   25 1   
    43   25   26 1   
    44   25   47 1   
    45   25   48 1   
    46   26   43 1   
    47   26   44 1   
    48   28   49 1   
@<TRIPOS>SUBSTRUCTURE
     1 895         1 TEMP              0 ****  ****    0 ROOT
