@<TRIPOS>MOLECULE
895
   51    52     1     0     0
SMALL
bcc


@<TRIPOS>ATOM
      1 CL1         1.7950    1.2550    3.1290 cl        1 895      0.049600
      2 C1          3.0140    0.7580    2.1150 cc        1 895      0.008300
      3 C2          4.2300    0.2100    2.5720 cd        1 895     -0.177000
      4 C3          5.0750   -0.1200    1.5080 cd        1 895     -0.024000
      5 C4          4.4890    0.1790    0.2530 cc        1 895     -0.251900
      6 C9          5.0520   -0.0130   -1.0100 ce        1 895      0.320800
      7 S1          7.0020   -0.8000   -2.5770 s4        1 895      1.696100
      8 O2          8.2560   -1.3360   -2.5290 o         1 895     -0.455900
      9 O1          6.2650   -0.8430   -3.7200 o         1 895     -0.455900
     10 N1          7.9660    1.3170   -3.1970 n3        1 895     -0.984800
     11 C12         7.6460    2.5090   -2.4290 c3        1 895      0.058500
     12 C13         8.5180    3.7560   -2.6900 c3        1 895     -0.116400
     13 C14         7.5310    4.9260   -2.8510 c3        1 895      0.071000
     14 C15         6.1910    3.0000   -2.6800 c         1 895      0.712500
     15 O3          5.2150    2.2330   -2.6580 o         1 895     -0.648500
     16 N2          6.1920    4.3580   -2.9820 n         1 895     -0.421800
     17 C16         5.0530    5.2270   -2.7700 c3        1 895      0.051700
     18 C17         3.7950    4.7570   -3.5000 c3        1 895     -0.107100
     19 C18         4.7040    5.3900   -1.2650 c         1 895      0.632100
     20 O4          5.0430    4.5050   -0.4480 o         1 895     -0.636100
     21 N3          4.0390    6.5150   -0.8310 n         1 895     -0.457800
     22 C19         3.4590    7.5140   -1.6990 c3        1 895      0.053000
     23 C20         3.5310    8.9310   -1.1040 c3        1 895      0.113400
     24 O5          3.0340    8.9670    0.2250 os        1 895     -0.397600
     25 C22         3.7340    8.0740    1.0830 c3        1 895      0.113400
     26 C23         3.6650    6.6300    0.5690 c3        1 895      0.053000
     27 S6          2.9540    0.8470    0.4710 ss        1 895      0.257200
     28 C6          6.3270   -0.4980   -1.2560 c2        1 895     -0.830300
     29 H2          4.4750    0.0620    3.6290 ha        1 895      0.194000
     30 H3          6.0690   -0.5620    1.6350 ha        1 895      0.174000
     31 H1          8.9620    1.1590   -3.1750 hn        1 895      0.403800
     32 H12         7.7080    2.2350   -1.3340 h1        1 895      0.104700
     33 H131        9.1400    3.6480   -3.6130 hc        1 895      0.077700
     34 H132        9.2050    3.9410   -1.8290 hc        1 895      0.077700
     35 H141        7.5880    5.6130   -1.9620 h1        1 895      0.071200
     36 H142        7.7580    5.5190   -3.7780 h1        1 895      0.071200
     37 H16         5.3680    6.2310   -3.1890 h1        1 895      0.084700
     38 H171        3.4580    3.7630   -3.1140 hc        1 895      0.065033
     39 H172        3.9910    4.6660   -4.5950 hc        1 895      0.065033
     40 H173        2.9800    5.5050   -3.3420 hc        1 895      0.065033
     41 H191        3.9800    7.5320   -2.6950 h1        1 895      0.062200
     42 H192        2.3730    7.2570   -1.8730 h1        1 895      0.062200
     43 H231        2.6100    6.2500    0.6910 h1        1 895      0.062200
     44 H232        4.3490    5.9880    1.1920 h1        1 895      0.062200
     45 H201        2.8540    9.6180   -1.6780 h1        1 895      0.065450
     46 H202        4.5850    9.3170   -1.1270 h1        1 895      0.065450
     47 H221        3.2000    8.1540    2.0670 h1        1 895      0.065450
     48 H222        4.7980    8.4090    1.1920 h1        1 895      0.065450
     49 H6          6.9150   -0.6900   -0.3240 h4        1 895      0.228000
     50 H9          4.4190    0.2550   -1.8910 ha        1 895      0.178000
     51 H121        7.6810    1.4330   -4.1580 hn        1 895      0.403800
@<TRIPOS>BOND
     1    1    2 1   
     2    2    3 2   
     3    2   27 1   
     4    3    4 1   
     5    3   29 1   
     6    4    5 2   
     7    4   30 1   
     8    5    6 1   
     9    5   27 1   
    10    6   28 2   
    11    6   50 1   
    12    7    8 1   
    13    7    9 1   
    14    7   28 1   
    15   10   11 1   
    16   10   31 1   
    17   10   51 1   
    18   11   12 1   
    19   11   14 1   
    20   11   32 1   
    21   12   13 1   
    22   12   33 1   
    23   12   34 1   
    24   13   16 1   
    25   13   35 1   
    26   13   36 1   
    27   14   15 2   
    28   14   16 1   
    29   16   17 1   
    30   17   18 1   
    31   17   19 1   
    32   17   37 1   
    33   18   38 1   
    34   18   39 1   
    35   18   40 1   
    36   19   20 2   
    37   19   21 1   
    38   21   22 1   
    39   21   26 1   
    40   22   23 1   
    41   22   41 1   
    42   22   42 1   
    43   23   24 1   
    44   23   45 1   
    45   23   46 1   
    46   24   25 1   
    47   25   26 1   
    48   25   47 1   
    49   25   48 1   
    50   26   43 1   
    51   26   44 1   
    52   28   49 1   
@<TRIPOS>SUBSTRUCTURE
     1 895         1 TEMP              0 ****  ****    0 ROOT
