@<TRIPOS>MOLECULE
895
   51    52     1     0     0
SMALL
bcc


@<TRIPOS>ATOM
      1 Cl1         1.6050   -2.0200   -0.5690 cl        1 895      0.054600
      2 C1          2.8570   -1.0750   -0.0210 cc        1 895      0.003300
      3 C2          2.7360   -0.1910    1.0750 cd        1 895     -0.183000
      4 C3          3.9330    0.4740    1.3230 cd        1 895     -0.019000
      5 C4          4.9680    0.0890    0.4130 cc        1 895     -0.286900
      6 C9          6.2320    0.6690    0.5110 ce        1 895      0.334800
      7 S1          7.7610   -0.3850   -1.4330 s4        1 895      1.696100
      8 O2          9.0880   -0.5440   -1.7110 o         1 895     -0.467400
      9 O1          6.8240   -1.2180   -1.9780 o         1 895     -0.467400
     10 N1          7.5640    1.2070   -3.1530 n8        1 895     -0.987800
     11 C12         7.3330    2.5770   -2.7220 c3        1 895      0.046500
     12 C13         7.9980    3.6980   -3.5450 c3        1 895     -0.108400
     13 C14         6.9590    4.8350   -3.5760 c3        1 895      0.063000
     14 C15         5.8280    2.9690   -2.6990 c         1 895      0.699500
     15 O3          4.9410    2.1840   -2.3410 o         1 895     -0.611500
     16 N2          5.6630    4.2630   -3.2090 n         1 895     -0.411800
     17 C16         4.6600    5.1640   -2.6740 c3        1 895      0.044700
     18 C17         3.2370    4.6260   -2.8210 c3        1 895     -0.106100
     19 C18         4.9020    5.4900   -1.1730 c         1 895      0.633100
     20 O4          5.5820    4.7050   -0.4720 o         1 895     -0.649100
     21 N3          4.3890    6.6420   -0.6240 n         1 895     -0.454800
     22 C19         3.4900    7.5480   -1.3030 c3        1 895      0.052500
     23 C20         3.7280    9.0180   -0.9180 c3        1 895      0.112400
     24 O5          3.7620    9.1920    0.4900 os        1 895     -0.396600
     25 C22         4.7630    8.3900    1.1050 c3        1 895      0.112400
     26 C23         4.5610    6.9010    0.7960 c3        1 895      0.052500
     27 S6          4.3630   -1.0520   -0.6730 ss        1 895      0.310200
     28 C6          7.3840    0.4530   -0.2350 c2        1 895     -0.856300
     29 H2          1.8130   -0.0520    1.6490 ha        1 895      0.196000
     30 H3          4.0770    1.2130    2.1190 ha        1 895      0.180000
     31 H1          8.4260    1.1490   -3.6750 hn        1 895      0.409800
     32 H12         7.6860    2.6550   -1.6480 h1        1 895      0.102700
     33 H131        8.9430    4.0420   -3.0600 hc        1 895      0.077200
     34 H132        8.2390    3.3670   -4.5860 hc        1 895      0.077200
     35 H141        7.2570    5.6540   -2.8650 h1        1 895      0.071700
     36 H142        6.8700    5.2690   -4.6090 h1        1 895      0.071700
     37 H16         4.7610    6.1140   -3.2820 h1        1 895      0.085700
     38 H171        3.1050    3.6820   -2.2380 hc        1 895      0.065033
     39 H172        2.5150    5.3910   -2.4460 hc        1 895      0.065033
     40 H173        3.0120    4.4160   -3.8950 hc        1 895      0.065033
     41 H191        3.6000    7.4610   -2.4180 h1        1 895      0.063200
     42 H192        2.4280    7.2750   -1.0300 h1        1 895      0.063200
     43 H231        5.4500    6.3250    1.1760 h1        1 895      0.063200
     44 H232        3.6420    6.5380    1.3390 h1        1 895      0.063200
     45 H201        4.6820    9.3960   -1.3720 h1        1 895      0.065700
     46 H202        2.8610    9.6440   -1.2600 h1        1 895      0.065700
     47 H221        5.7790    8.7330    0.7750 h1        1 895      0.065700
     48 H222        4.6320    8.5720    2.2040 h1        1 895      0.065700
     49 H6          8.2240    1.0620    0.1980 h4        1 895      0.234000
     50 H9          6.3340    1.4140    1.3360 ha        1 895      0.165000
     51 H121        6.8080    0.8870   -3.7400 hn        1 895      0.409800
@<TRIPOS>BOND
     1    1    2 1   
     2    2    3 2   
     3    2   27 1   
     4    3    4 1   
     5    3   29 1   
     6    4    5 2   
     7    4   30 1   
     8    5    6 1   
     9    5   27 1   
    10    6   28 2   
    11    6   50 1   
    12    7    8 1   
    13    7    9 1   
    14    7   28 1   
    15   10   11 1   
    16   10   31 1   
    17   10   51 1   
    18   11   12 1   
    19   11   14 1   
    20   11   32 1   
    21   12   13 1   
    22   12   33 1   
    23   12   34 1   
    24   13   16 1   
    25   13   35 1   
    26   13   36 1   
    27   14   15 2   
    28   14   16 1   
    29   16   17 1   
    30   17   18 1   
    31   17   19 1   
    32   17   37 1   
    33   18   38 1   
    34   18   39 1   
    35   18   40 1   
    36   19   20 2   
    37   19   21 1   
    38   21   22 1   
    39   21   26 1   
    40   22   23 1   
    41   22   41 1   
    42   22   42 1   
    43   23   24 1   
    44   23   45 1   
    45   23   46 1   
    46   24   25 1   
    47   25   26 1   
    48   25   47 1   
    49   25   48 1   
    50   26   43 1   
    51   26   44 1   
    52   28   49 1   
@<TRIPOS>SUBSTRUCTURE
     1 895         1 TEMP              0 ****  ****    0 ROOT
