@<TRIPOS>MOLECULE
895
   50    52     1     0     0
SMALL
bcc


@<TRIPOS>ATOM
      1 CL1        -7.4500   -6.8540   -5.9030 cl        1 895     -0.021400
      2 C1         -6.3690   -6.4900   -4.6820 cc        1 895     -0.021700
      3 C2         -5.5250   -5.3880   -4.6700 cd        1 895     -0.161000
      4 C3         -4.7280   -5.3560   -3.4930 cd        1 895     -0.090000
      5 C4         -4.9940   -6.4340   -2.6560 cc        1 895     -0.145900
      6 C9         -4.3750   -6.7160   -1.3960 ce        1 895      0.128800
      7 S1         -2.7940   -6.1990    0.7050 sy        1 895      1.520800
      8 O2         -3.1620   -5.1930    1.6210 o         1 895     -0.658300
      9 O1         -3.0590   -7.5330    1.0890 o         1 895     -0.658300
     10 N1         -1.2020   -6.0700    0.3720 n3        1 895     -0.892100
     11 C12        -0.4680   -4.8480    0.4220 c3        1 895      0.168500
     12 C13         0.9510   -4.9560    1.0270 c3        1 895     -0.098400
     13 C14         1.9070   -4.3440   -0.0110 c3        1 895      0.071000
     14 C15        -0.2340   -4.2200   -0.9860 c         1 895      0.678500
     15 O3         -1.1430   -3.9580   -1.7850 o         1 895     -0.620500
     16 N2          1.1380   -4.0610   -1.2180 n         1 895     -0.441800
     17 C16         1.7100   -3.1460   -2.1780 c3        1 895      0.061700
     18 C17         0.9000   -3.0200   -3.4670 c3        1 895     -0.102100
     19 C18         1.9220   -1.7160   -1.6100 c         1 895      0.629100
     20 O4          1.2720   -1.3180   -0.6220 o         1 895     -0.606100
     21 N3          2.8560   -0.8760   -2.1910 n         1 895     -0.473800
     22 C19         3.6070   -1.1750   -3.3850 c3        1 895      0.057500
     23 C20         5.0420   -0.6220   -3.3360 c3        1 895      0.112400
     24 O5          5.0680    0.7510   -2.9750 os        1 895     -0.408600
     25 C22         4.4250    0.9930   -1.7270 c3        1 895      0.112400
     26 C23         2.9750    0.4940   -1.7300 c3        1 895      0.057500
     27 S6         -6.1800   -7.4320   -3.3110 ss        1 895      0.083200
     28 C6         -3.5120   -5.9080   -0.7620 cf        1 895     -0.509100
     29 H2         -5.4710   -4.6320   -5.4570 ha        1 895      0.169000
     30 H3         -3.9910   -4.5730   -3.2850 ha        1 895      0.177000
     31 H1         -0.6750   -6.8520    0.0650 hn        1 895      0.447800
     32 H12        -1.0690   -4.0880    1.0100 h1        1 895      0.115700
     33 H131        1.2420   -6.0120    1.2440 hc        1 895      0.068700
     34 H132        0.9980   -4.3820    1.9850 hc        1 895      0.068700
     35 H141        2.3730   -3.4020    0.3930 h1        1 895      0.055200
     36 H142        2.7280   -5.0650   -0.2750 h1        1 895      0.055200
     37 H16         2.7280   -3.5850   -2.4180 h1        1 895      0.065700
     38 H171       -0.0650   -2.4880   -3.2780 hc        1 895      0.061033
     39 H172        1.4920   -2.4490   -4.2210 hc        1 895      0.061033
     40 H173        0.6640   -4.0310   -3.8800 hc        1 895      0.061033
     41 H191        3.0810   -0.7170   -4.2740 h1        1 895      0.061200
     42 H192        3.6730   -2.2850   -3.5510 h1        1 895      0.061200
     43 H231        2.5580    0.5760   -0.6860 h1        1 895      0.061200
     44 H232        2.3650    1.1580   -2.4080 h1        1 895      0.061200
     45 H201        5.6680   -1.2130   -2.6170 h1        1 895      0.057700
     46 H202        5.4960   -0.6530   -4.3610 h1        1 895      0.057700
     47 H221        4.4450    2.1090   -1.6150 h1        1 895      0.057700
     48 H222        5.0130    0.5110   -0.9030 h1        1 895      0.057700
     49 H6         -3.2480   -4.9440   -1.2480 h4        1 895      0.201000
     50 H9         -4.6540   -7.6880   -0.9320 ha        1 895      0.144000
@<TRIPOS>BOND
     1    1    2 1   
     2    2    3 2   
     3    2   27 1   
     4    3    4 1   
     5    3   29 1   
     6    4    5 2   
     7    4   30 1   
     8    5    6 1   
     9    5   27 1   
    10    6   28 2   
    11    6   50 1   
    12    7    8 2   
    13    7    9 2   
    14    7   10 1   
    15    7   28 1   
    16   10   11 1   
    17   10   31 1   
    18   11   12 1   
    19   11   14 1   
    20   11   32 1   
    21   12   13 1   
    22   12   33 1   
    23   12   34 1   
    24   13   16 1   
    25   13   35 1   
    26   13   36 1   
    27   14   15 2   
    28   14   16 1   
    29   16   17 1   
    30   17   18 1   
    31   17   19 1   
    32   17   37 1   
    33   18   38 1   
    34   18   39 1   
    35   18   40 1   
    36   19   20 2   
    37   19   21 1   
    38   21   22 1   
    39   21   26 1   
    40   22   23 1   
    41   22   41 1   
    42   22   42 1   
    43   23   24 1   
    44   23   45 1   
    45   23   46 1   
    46   24   25 1   
    47   25   26 1   
    48   25   47 1   
    49   25   48 1   
    50   26   43 1   
    51   26   44 1   
    52   28   49 1   
@<TRIPOS>SUBSTRUCTURE
     1 895         1 TEMP              0 ****  ****    0 ROOT
