@<TRIPOS>MOLECULE
896
   55    56     1     0     0
SMALL
bcc


@<TRIPOS>ATOM
      1 O2          2.1500   -3.3120    0.2690 o         1 896     -0.600100
      2 C21         3.3780   -3.3890    0.0570 c         1 896      0.668700
      3 N2          3.9120   -4.5290   -0.5280 n         1 896     -0.468800
      4 C6          3.0130   -5.6160   -0.8630 c3        1 896      0.096000
      5 C5          2.1500   -5.3970   -2.0970 c3        1 896     -0.119100
      6 C22         5.2920   -4.6100   -0.9770 c3        1 896      0.103700
      7 C24         5.4340   -4.8640   -2.4810 c3        1 896     -0.109100
      8 C23         6.0990   -5.6740   -0.2260 c3        1 896     -0.109100
      9 C17         4.2780   -2.2660    0.4640 ca        1 896     -0.089600
     10 C16         4.0460   -1.0020   -0.0910 ca        1 896     -0.170000
     11 C14         4.8370    0.0700    0.3320 ca        1 896      0.123100
     12 C15         5.8430   -0.1050    1.3000 ca        1 896     -0.142000
     13 C19         6.0540   -1.3700    1.8470 ca        1 896     -0.050300
     14 C20         7.0920   -1.5730    2.8850 c3        1 896     -0.057800
     15 C18         5.2690   -2.4540    1.4250 ca        1 896     -0.137000
     16 O3          4.7260    1.3590   -0.1570 os        1 896     -0.339900
     17 C1          3.5710    1.6230   -0.9600 c3        1 896      0.107400
     18 C7          3.5430    3.1500   -1.1940 c3        1 896      0.203500
     19 C8          2.2290    3.4660   -1.9140 c3        1 896     -0.102100
     20 N3          4.7050    3.6150   -1.9350 nh        1 896     -0.728600
     21 C9          5.2540    4.8640   -1.6380 ca        1 896      0.190600
     22 C10         6.6030    5.1450   -1.9820 ca        1 896     -0.310800
     23 C11         7.1010    6.4350   -1.7660 ca        1 896      0.422700
     24 N4          6.3840    7.4450   -1.2350 nb        1 896     -0.696000
     25 C12         5.1090    7.1710   -0.9030 ca        1 896      0.422700
     26 C13         4.4990    5.9210   -1.0760 ca        1 896     -0.310800
     27 H6C1        3.6300   -6.5480   -1.0030 h1        1 896      0.054200
     28 H6C2        2.3280   -5.7760    0.0210 h1        1 896      0.054200
     29 H22         5.7820   -3.6110   -0.7640 h1        1 896      0.065700
     30 H5C1        1.4940   -4.5030   -1.9600 hc        1 896      0.043700
     31 H5C2        2.7760   -5.2470   -3.0090 hc        1 896      0.043700
     32 H5C3        1.5050   -6.2950   -2.2480 hc        1 896      0.043700
     33 H241        6.5170   -4.8220   -2.7500 hc        1 896      0.042200
     34 H242        5.0360   -5.8690   -2.7590 hc        1 896      0.042200
     35 H243        4.8890   -4.0880   -3.0710 hc        1 896      0.042200
     36 H231        6.0490   -5.5080    0.8760 hc        1 896      0.042200
     37 H232        7.1660   -5.6080   -0.5490 hc        1 896      0.042200
     38 H233        5.7250   -6.7010   -0.4490 hc        1 896      0.042200
     39 H16         3.2420   -0.8740   -0.8290 ha        1 896      0.152000
     40 H18         5.4360   -3.4510    1.8590 ha        1 896      0.144000
     41 H15         6.4470    0.7580    1.6130 ha        1 896      0.153000
     42 H201        7.8350   -0.7380    2.8830 hc        1 896      0.049367
     43 H202        6.6140   -1.6170    3.8960 hc        1 896      0.049367
     44 H203        7.6380   -2.5340    2.7150 hc        1 896      0.049367
     45 H1C1        2.6420    1.3140   -0.4140 h1        1 896      0.055200
     46 H1C2        3.6520    1.0600   -1.9260 h1        1 896      0.055200
     47 H7          3.5170    3.6430   -0.1730 h1        1 896      0.061700
     48 H8C1        1.3740    3.1540   -1.2680 hc        1 896      0.047700
     49 H8C2        2.1670    2.9230   -2.8870 hc        1 896      0.047700
     50 H8C3        2.1460    4.5610   -2.1150 hc        1 896      0.047700
     51 H3          5.3890    2.9000   -2.0830 hn        1 896      0.412800
     52 H10         7.2500    4.3730   -2.4170 ha        1 896      0.141500
     53 H13         3.4490    5.7840   -0.7860 ha        1 896      0.141500
     54 H11         8.1460    6.6790   -2.0320 h4        1 896      0.018100
     55 H12         4.5370    8.0110   -0.4680 h4        1 896      0.018100
@<TRIPOS>BOND
     1    1    2 2   
     2    2    3 1   
     3    2    9 1   
     4    3    4 1   
     5    3    6 1   
     6    4    5 1   
     7    4   27 1   
     8    4   28 1   
     9    5   30 1   
    10    5   31 1   
    11    5   32 1   
    12    6    7 1   
    13    6    8 1   
    14    6   29 1   
    15    7   33 1   
    16    7   34 1   
    17    7   35 1   
    18    8   36 1   
    19    8   37 1   
    20    8   38 1   
    21    9   10 ar  
    22    9   15 ar  
    23   10   11 ar  
    24   10   39 1   
    25   11   12 ar  
    26   11   16 1   
    27   12   13 ar  
    28   12   41 1   
    29   13   14 1   
    30   13   15 ar  
    31   14   42 1   
    32   14   43 1   
    33   14   44 1   
    34   15   40 1   
    35   16   17 1   
    36   17   18 1   
    37   17   45 1   
    38   17   46 1   
    39   18   19 1   
    40   18   20 1   
    41   18   47 1   
    42   19   48 1   
    43   19   49 1   
    44   19   50 1   
    45   20   21 1   
    46   20   51 1   
    47   21   22 ar  
    48   21   26 ar  
    49   22   23 ar  
    50   22   52 1   
    51   23   24 ar  
    52   23   54 1   
    53   24   25 ar  
    54   25   26 ar  
    55   25   55 1   
    56   26   53 1   
@<TRIPOS>SUBSTRUCTURE
     1 896         1 TEMP              0 ****  ****    0 ROOT
