@<TRIPOS>MOLECULE
896
   55    51     1     0     0
SMALL
bcc


@<TRIPOS>ATOM
      1 O2          0.3790    1.8430    3.9450 o         1 896     -0.358000
      2 C21        -0.2640    2.1220    2.9660 c1        1 896      0.346000
      3 N2         -1.6620    2.4660    3.0940 n2        1 896     -0.327000
      4 C6         -2.0530    3.8520    3.2240 c3        1 896     -0.022000
      5 C5         -2.4350    4.4030    1.8560 c3        1 896     -0.240000
      6 C22        -2.6490    1.4170    3.2730 c3        1 896      0.019000
      7 C24        -3.3430    1.5950    4.6230 c3        1 896     -0.225000
      8 C23        -3.6810    1.4960    2.1580 c3        1 896     -0.225000
      9 C17         0.3810    2.0310    1.5740 c2        1 896     -0.066000
     10 C16         0.4380    0.6970    0.8560 c2        1 896     -0.131000
     11 C14         1.3490    0.5230   -0.3470 c1        1 896      0.086000
     12 C15         2.1020    1.7120   -0.9020 c1        1 896     -0.196000
     13 C19         1.9970    3.0610   -0.2170 c1        1 896     -0.035000
     14 C20         2.8380    4.2260   -0.7040 c2        1 896     -0.182000
     15 C18         1.1090    3.2250    1.0040 c2        1 896     -0.141000
     16 O3          1.5840   -0.7830   -0.8790 os        1 896     -0.216000
     17 C1          0.9370   -1.0240   -2.1290 c3        1 896     -0.029000
     18 C7          1.4760   -2.3110   -2.7410 c3        1 896      0.007000
     19 C8          1.4070   -2.2190   -4.2390 c3        1 896     -0.236000
     20 N3          0.6930   -3.4160   -2.2960 n3        1 896     -0.301000
     21 C9          1.1510   -4.7610   -2.5250 c2        1 896      0.108000
     22 C10         0.3050   -5.7060   -3.2610 c2        1 896     -0.253000
     23 C11         0.6520   -7.1830   -3.2680 c1        1 896     -0.044000
     24 N4          1.8780   -7.6500   -2.6230 n1        1 896     -0.169000
     25 C12         2.7220   -6.7120   -1.8910 c1        1 896     -0.046000
     26 C13         2.3820   -5.2330   -1.8800 c1        1 896     -0.232000
     27 H6C1       -2.8220    3.9190    3.8300 h1        1 896      0.089500
     28 H6C2       -1.2990    4.3740    3.5910 h1        1 896      0.089500
     29 H22        -2.2010    0.5340    3.2470 h1        1 896      0.130000
     30 H5C1       -2.3140    3.7100    1.1820 hc        1 896      0.083667
     31 H5C2       -1.8610    5.1740    1.6410 hc        1 896      0.083667
     32 H5C3       -3.3640    4.6840    1.8680 hc        1 896      0.083667
     33 H241       -3.6360    0.7200    4.9580 hc        1 896      0.079333
     34 H242       -4.1150    2.1770    4.5160 hc        1 896      0.079333
     35 H243       -2.7210    1.9950    5.2580 hc        1 896      0.079333
     36 H231       -3.2190    1.5220    1.2840 hc        1 896      0.079333
     37 H232       -4.2200    2.3080    2.2680 hc        1 896      0.079333
     38 H233       -4.2690    0.7010    2.1960 hc        1 896      0.079333
     39 H16        -0.0490   -0.0730    1.2150 ha        1 896      0.158000
     40 H18         1.0420    4.0890    1.4430 ha        1 896      0.143000
     41 H15         2.6860    1.6010   -1.6720 ha        1 896      0.138000
     42 H201        2.5120    5.0520   -0.3030 ha        1 896      0.087000
     43 H202        3.7670    4.0850   -0.4460 ha        1 896      0.087000
     44 H203        2.7760    4.2890   -1.6780 ha        1 896      0.087000
     45 H1C1        1.1110   -0.2780   -2.7340 h1        1 896      0.089000
     46 H1C2       -0.0300   -1.1100   -1.9850 h1        1 896      0.089000
     47 H7          2.4040   -2.4380   -2.4660 h1        1 896      0.118000
     48 H8C1        1.9150   -1.4410   -4.5420 hc        1 896      0.087667
     49 H8C2        1.7860   -3.0300   -4.6340 hc        1 896      0.087667
     50 H8C3        0.4750   -2.1270   -4.5170 hc        1 896      0.087667
     51 H3         -0.1040   -3.2710   -1.8880 hn        1 896      0.202000
     52 H10        -0.5170   -5.3940   -3.6940 ha        1 896      0.137000
     53 H13         2.9470   -4.6060   -1.3900 ha        1 896      0.162000
     54 H11         0.0890   -7.8130   -3.7580 ha        1 896      0.155000
     55 H12         3.5380   -7.0250   -1.4630 ha        1 896      0.156000
@<TRIPOS>BOND
     1    1    2 1   
     2    2    9 1   
     3    3    4 1   
     4    3    6 1   
     5    4    5 1   
     6    4   27 1   
     7    4   28 1   
     8    5   30 1   
     9    5   31 1   
    10    5   32 1   
    11    6    7 1   
    12    6    8 1   
    13    6   29 1   
    14    7   33 1   
    15    7   34 1   
    16    7   35 1   
    17    8   36 1   
    18    8   37 1   
    19    8   38 1   
    20    9   10 1   
    21    9   15 1   
    22   10   11 1   
    23   10   39 1   
    24   11   16 1   
    25   12   13 1   
    26   12   41 1   
    27   13   15 1   
    28   14   42 1   
    29   14   43 1   
    30   14   44 1   
    31   15   40 1   
    32   16   17 1   
    33   17   18 1   
    34   17   45 1   
    35   17   46 1   
    36   18   19 1   
    37   18   20 1   
    38   18   47 1   
    39   19   48 1   
    40   19   49 1   
    41   19   50 1   
    42   20   21 1   
    43   20   51 1   
    44   21   22 1   
    45   21   26 1   
    46   22   23 1   
    47   22   52 1   
    48   23   54 1   
    49   24   25 1   
    50   25   55 1   
    51   26   53 1   
@<TRIPOS>SUBSTRUCTURE
     1 896         1 TEMP              0 ****  ****    0 ROOT
