@<TRIPOS>MOLECULE
896
   56    57     1     0     0
SMALL
bcc


@<TRIPOS>ATOM
      1 O2          1.0350    1.4670    0.1150 o         1 896     -0.430100
      2 C21         1.8950    0.6010    0.0140 c         1 896      0.573700
      3 N2          2.1940   -0.2060    1.2720 n4        1 896     -0.601200
      4 C6          0.9330   -0.6560    1.9410 c3        1 896      0.109800
      5 C5          0.2220   -1.7600    1.1870 c3        1 896     -0.131100
      6 C22         3.0880    0.5980    2.1990 c3        1 896      0.139500
      7 C24         3.8730   -0.3090    3.1380 c3        1 896     -0.128600
      8 C23         2.3290    1.6510    2.9920 c3        1 896     -0.128600
      9 C17         2.6470    0.2240   -1.1870 ca        1 896     -0.165600
     10 C16         3.9600   -0.2740   -1.1290 ca        1 896     -0.198000
     11 C14         4.6050   -0.5970   -2.3240 ca        1 896      0.155100
     12 C15         3.9540   -0.4380   -3.5690 ca        1 896     -0.088000
     13 C19         2.6560    0.0620   -3.6120 ca        1 896     -0.036300
     14 C20         1.9660    0.2640   -4.9070 c3        1 896     -0.071800
     15 C18         2.0020    0.4020   -2.4150 ca        1 896     -0.079000
     16 O3          5.8630   -1.1440   -2.3950 os        1 896     -0.318900
     17 C1          6.7740   -0.8030   -1.3380 c3        1 896      0.119400
     18 C7          8.1910   -0.8770   -1.9630 c3        1 896      0.199500
     19 C8          9.1770   -1.1730   -0.8330 c3        1 896     -0.121100
     20 N3          8.5000    0.3400   -2.6900 nh        1 896     -0.742600
     21 C9          8.6070    0.3090   -4.0880 ca        1 896      0.174600
     22 C10         9.4730    1.2120   -4.7540 ca        1 896     -0.305300
     23 C11         9.4890    1.2220   -6.1560 ca        1 896      0.423700
     24 N4          8.7350    0.4120   -6.9250 nb        1 896     -0.678000
     25 C12         7.9190   -0.4450   -6.2860 ca        1 896      0.423700
     26 C13         7.8090   -0.5380   -4.8900 ca        1 896     -0.305300
     27 H6C1        0.2580    0.2450    2.0410 hx        1 896      0.107700
     28 H6C2        1.2070   -1.0150    2.9750 hx        1 896      0.107700
     29 H22         3.8220    1.1240    1.5110 hx        1 896      0.095700
     30 H5C1        0.8570   -2.6750    1.0910 hc        1 896      0.075367
     31 H5C2       -0.0910   -1.4260    0.1670 hc        1 896      0.075367
     32 H5C3       -0.7000   -2.0340    1.7620 hc        1 896      0.075367
     33 H241        4.5790    0.3310    3.7270 hc        1 896      0.075867
     34 H242        3.2040   -0.8380    3.8580 hc        1 896      0.075867
     35 H243        4.4740   -1.0640    2.5750 hc        1 896      0.075867
     36 H231        1.6880    2.2830    2.3280 hc        1 896      0.075867
     37 H232        3.0780    2.3150    3.4930 hc        1 896      0.075867
     38 H233        1.6900    1.1860    3.7810 hc        1 896      0.075867
     39 H16         4.4980   -0.3830   -0.1770 ha        1 896      0.130000
     40 H18         0.9810    0.8170   -2.4500 ha        1 896      0.166000
     41 H15         4.4960   -0.7070   -4.4910 ha        1 896      0.180000
     42 H201        0.8900   -0.0330   -4.8340 hc        1 896      0.067700
     43 H202        2.0120    1.3460   -5.1960 hc        1 896      0.067700
     44 H203        2.4460   -0.3360   -5.7190 hc        1 896      0.067700
     45 H1C1        6.5540    0.2130   -0.9260 h1        1 896      0.047200
     46 H1C2        6.6660   -1.5810   -0.5370 h1        1 896      0.047200
     47 H7          8.1930   -1.7620   -2.6710 h1        1 896      0.083700
     48 H8C1        9.1450   -0.3780   -0.0500 hc        1 896      0.053367
     49 H8C2       10.2190   -1.2400   -1.2310 hc        1 896      0.053367
     50 H8C3        8.9200   -2.1520   -0.3620 hc        1 896      0.053367
     51 H3          9.2060    0.8940   -2.2490 hn        1 896      0.407800
     52 H10        10.1220    1.9000   -4.1970 ha        1 896      0.145500
     53 H13         7.1000   -1.2490   -4.4430 ha        1 896      0.145500
     54 H11        10.1530    1.9190   -6.7010 h4        1 896      0.026100
     55 H12         7.3140   -1.1030   -6.9360 h4        1 896      0.026100
     56 H21         2.7160   -1.0460    0.9870 hn        1 896      0.450800
@<TRIPOS>BOND
     1    1    2 2   
     2    2    3 1   
     3    2    9 1   
     4    3    4 1   
     5    3    6 1   
     6    3   56 1   
     7    4    5 1   
     8    4   27 1   
     9    4   28 1   
    10    5   30 1   
    11    5   31 1   
    12    5   32 1   
    13    6    7 1   
    14    6    8 1   
    15    6   29 1   
    16    7   33 1   
    17    7   34 1   
    18    7   35 1   
    19    8   36 1   
    20    8   37 1   
    21    8   38 1   
    22    9   10 ar  
    23    9   15 ar  
    24   10   11 ar  
    25   10   39 1   
    26   11   12 ar  
    27   11   16 1   
    28   12   13 ar  
    29   12   41 1   
    30   13   14 1   
    31   13   15 ar  
    32   14   42 1   
    33   14   43 1   
    34   14   44 1   
    35   15   40 1   
    36   16   17 1   
    37   17   18 1   
    38   17   45 1   
    39   17   46 1   
    40   18   19 1   
    41   18   20 1   
    42   18   47 1   
    43   19   48 1   
    44   19   49 1   
    45   19   50 1   
    46   20   21 1   
    47   20   51 1   
    48   21   22 ar  
    49   21   26 ar  
    50   22   23 ar  
    51   22   52 1   
    52   23   24 ar  
    53   23   54 1   
    54   24   25 ar  
    55   25   26 ar  
    56   25   55 1   
    57   26   53 1   
@<TRIPOS>SUBSTRUCTURE
     1 896         1 TEMP              0 ****  ****    0 ROOT
