@<TRIPOS>MOLECULE
896
   56    57     1     0     0
SMALL
bcc


@<TRIPOS>ATOM
      1 O2          1.5340    1.7550    0.0530 o         1 896     -0.432100
      2 C21         2.1980    0.7270    0.0880 c         1 896      0.575700
      3 N2          2.0590   -0.1310    1.3410 nx        1 896     -0.602200
      4 C6          0.6220   -0.3110    1.7170 c3        1 896      0.109800
      5 C5         -0.1250   -1.2400    0.7830 c3        1 896     -0.131100
      6 C22         2.8850    0.4630    2.4670 c3        1 896      0.140500
      7 C24         3.2610   -0.5940    3.4980 c3        1 896     -0.129100
      8 C23         2.2060    1.6450    3.1440 c3        1 896     -0.129100
      9 C17         3.0880    0.1990   -0.9500 ca        1 896     -0.189600
     10 C16         4.2320   -0.5540   -0.6490 ca        1 896     -0.146000
     11 C14         5.0190   -1.0310   -1.7030 ca        1 896      0.129100
     12 C15         4.6840   -0.7590   -3.0390 ca        1 896     -0.057000
     13 C19         3.5510    0.0080   -3.3290 ca        1 896     -0.051300
     14 C20         3.2060    0.3240   -4.7340 c3        1 896     -0.070800
     15 C18         2.7570    0.4920   -2.2820 ca        1 896     -0.066000
     16 O3          6.0650   -1.8960   -1.4310 os        1 896     -0.340900
     17 C1          7.2720   -1.2780   -0.9700 c3        1 896      0.132400
     18 C7          8.2070   -0.9380   -2.1510 c3        1 896      0.159500
     19 C8          9.6150   -0.7420   -1.5860 c3        1 896     -0.130100
     20 N3          7.7010    0.2020   -2.9000 nu        1 896     -0.729600
     21 C9          7.8770    0.2320   -4.2970 ca        1 896      0.156600
     22 C10         8.1710    1.4530   -4.9510 ca        1 896     -0.304300
     23 C11         8.2200    1.4790   -6.3520 ca        1 896      0.424200
     24 N4          8.0120    0.4000   -7.1320 nb        1 896     -0.673000
     25 C12         7.7420   -0.7600   -6.5060 ca        1 896      0.424200
     26 C13         7.6580   -0.9030   -5.1120 ca        1 896     -0.304300
     27 H6C1        0.1380    0.7100    1.7210 hx        1 896      0.107200
     28 H6C2        0.5960   -0.7240    2.7670 hx        1 896      0.107200
     29 H22         3.8360    0.8310    1.9680 hx        1 896      0.094700
     30 H5C1       -0.1440   -0.8440   -0.2620 hc        1 896      0.075033
     31 H5C2        0.3180   -2.2660    0.7740 hc        1 896      0.075033
     32 H5C3       -1.1820   -1.3190    1.1460 hc        1 896      0.075033
     33 H241        3.9410   -0.1190    4.2500 hc        1 896      0.076367
     34 H242        3.8040   -1.4510    3.0300 hc        1 896      0.076367
     35 H243        2.3650   -0.9820    4.0390 hc        1 896      0.076367
     36 H231        1.3380    1.3150    3.7650 hc        1 896      0.076367
     37 H232        1.8560    2.4000    2.3970 hc        1 896      0.076367
     38 H233        2.9530    2.1350    3.8180 hc        1 896      0.076367
     39 H16         4.5450   -0.7650    0.3830 ha        1 896      0.134000
     40 H18         1.8700    1.1090   -2.5030 ha        1 896      0.164000
     41 H15         5.3310   -1.1410   -3.8500 ha        1 896      0.182000
     42 H201        2.1320    0.6190   -4.8330 hc        1 896      0.066700
     43 H202        3.3940   -0.5590   -5.3950 hc        1 896      0.066700
     44 H203        3.8400    1.1730   -5.0990 hc        1 896      0.066700
     45 H1C1        7.7480   -2.0850   -0.3490 h1        1 896      0.061200
     46 H1C2        7.0490   -0.3820   -0.3390 h1        1 896      0.061200
     47 H7          8.2240   -1.8450   -2.8270 h1        1 896      0.087700
     48 H8C1        9.9520   -1.6820   -1.0850 hc        1 896      0.053367
     49 H8C2       10.3360   -0.5050   -2.4060 hc        1 896      0.053367
     50 H8C3        9.6380    0.0880   -0.8400 hc        1 896      0.053367
     51 H3          7.9680    1.0680   -2.4710 hn        1 896      0.390800
     52 H10         8.3600    2.3750   -4.3840 ha        1 896      0.144000
     53 H13         7.4280   -1.8880   -4.6870 ha        1 896      0.144000
     54 H11         8.4470    2.4200   -6.8860 h4        1 896      0.030100
     55 H12         7.5830   -1.6340   -7.1650 h4        1 896      0.030100
     56 H21         2.4480   -1.0600    1.1270 hn        1 896      0.451800
@<TRIPOS>BOND
     1    1    2 2   
     2    2    3 1   
     3    2    9 1   
     4    3    4 1   
     5    3    6 1   
     6    3   56 1   
     7    4    5 1   
     8    4   27 1   
     9    4   28 1   
    10    5   30 1   
    11    5   31 1   
    12    5   32 1   
    13    6    7 1   
    14    6    8 1   
    15    6   29 1   
    16    7   33 1   
    17    7   34 1   
    18    7   35 1   
    19    8   36 1   
    20    8   37 1   
    21    8   38 1   
    22    9   10 ar  
    23    9   15 ar  
    24   10   11 ar  
    25   10   39 1   
    26   11   12 ar  
    27   11   16 1   
    28   12   13 ar  
    29   12   41 1   
    30   13   14 1   
    31   13   15 ar  
    32   14   42 1   
    33   14   43 1   
    34   14   44 1   
    35   15   40 1   
    36   16   17 1   
    37   17   18 1   
    38   17   45 1   
    39   17   46 1   
    40   18   19 1   
    41   18   20 1   
    42   18   47 1   
    43   19   48 1   
    44   19   49 1   
    45   19   50 1   
    46   20   21 1   
    47   20   51 1   
    48   21   22 ar  
    49   21   26 ar  
    50   22   23 ar  
    51   22   52 1   
    52   23   24 ar  
    53   23   54 1   
    54   24   25 ar  
    55   25   26 ar  
    56   25   55 1   
    57   26   53 1   
@<TRIPOS>SUBSTRUCTURE
     1 896         1 TEMP              0 ****  ****    0 ROOT
