@<TRIPOS>MOLECULE
896
   57    58     1     0     0
SMALL
bcc


@<TRIPOS>ATOM
      1 O2          3.9050    0.3660    1.9070 o         1 896     -0.415100
      2 C21         3.0580   -0.0600    1.1320 c         1 896      0.563700
      3 N2          1.8670   -0.7770    1.7320 n4        1 896     -0.598200
      4 C6          1.1410    0.1110    2.7000 c3        1 896      0.107800
      5 C5          0.3570    1.2140    2.0220 c3        1 896     -0.138100
      6 C22         2.3050   -2.0900    2.3690 c3        1 896      0.148500
      7 C24         1.1500   -3.0820    2.4230 c3        1 896     -0.132600
      8 C23         2.9120   -1.9120    3.7520 c3        1 896     -0.132600
      9 C17         3.1050    0.0380   -0.3390 ca        1 896     -0.152600
     10 C16         4.3710   -0.0150   -0.9370 ca        1 896     -0.086000
     11 C14         4.4570    0.1160   -2.3320 ca        1 896      0.116100
     12 C15         3.3150    0.2990   -3.1170 ca        1 896     -0.138000
     13 C19         2.0580    0.3730   -2.5020 ca        1 896     -0.011300
     14 C20         0.8460    0.6040   -3.3230 c3        1 896     -0.079800
     15 C18         1.9570    0.2460   -1.1120 ca        1 896     -0.121000
     16 O3          5.7390    0.0040   -2.8570 os        1 896     -0.365900
     17 C1          5.9400    0.6340   -4.1270 c3        1 896      0.098400
     18 C7          7.4510    0.9040   -4.2550 c3        1 896      0.129500
     19 C8          7.7120    1.6420   -5.5590 c3        1 896     -0.135100
     20 N3          8.2390   -0.3850   -4.1640 n4        1 896     -0.638400
     21 C9          9.6730   -0.1540   -3.9550 ca        1 896     -0.010400
     22 C10        10.5720   -0.2790   -5.0270 ca        1 896     -0.233300
     23 C11        11.9410   -0.0670   -4.7560 ca        1 896      0.443200
     24 N4         12.4200    0.2490   -3.5400 nb        1 896     -0.594000
     25 C12        11.5400    0.3650   -2.5280 ca        1 896      0.443200
     26 C13        10.1510    0.1760   -2.6750 ca        1 896     -0.233300
     27 H6C1        0.4410   -0.5430    3.2970 hx        1 896      0.115700
     28 H6C2        1.9100    0.5480    3.4030 hx        1 896      0.115700
     29 H22         3.1000   -2.4990    1.6720 hx        1 896      0.090700
     30 H5C1        1.0190    1.8920    1.4310 hc        1 896      0.077700
     31 H5C2       -0.1400    1.8240    2.8210 hc        1 896      0.077700
     32 H5C3       -0.4410    0.8070    1.3530 hc        1 896      0.077700
     33 H241        0.3420   -2.7410    3.1150 hc        1 896      0.081367
     34 H242        1.5490   -4.0540    2.8110 hc        1 896      0.081367
     35 H243        0.7120   -3.2670    1.4120 hc        1 896      0.081367
     36 H231        3.7220   -1.1400    3.7530 hc        1 896      0.081367
     37 H232        2.1380   -1.6310    4.5070 hc        1 896      0.081367
     38 H233        3.3600   -2.8910    4.0610 hc        1 896      0.081367
     39 H16         5.2810   -0.1480   -0.3320 ha        1 896      0.175000
     40 H18         0.9630    0.3540   -0.6460 ha        1 896      0.148000
     41 H15         3.3850    0.3890   -4.2130 ha        1 896      0.164000
     42 H201       -0.0720    0.2280   -2.8080 hc        1 896      0.074033
     43 H202        0.7180    1.7020   -3.5090 hc        1 896      0.074033
     44 H203        0.9290    0.0900   -4.3130 hc        1 896      0.074033
     45 H1C1        5.5690   -0.0520   -4.9350 h1        1 896      0.087700
     46 H1C2        5.4020    1.6180   -4.1820 h1        1 896      0.087700
     47 H7          7.7900    1.5350   -3.3770 hx        1 896      0.125700
     48 H8C1        7.2910    1.0890   -6.4340 hc        1 896      0.086700
     49 H8C2        7.2220    2.6470   -5.5050 hc        1 896      0.086700
     50 H8C3        8.8080    1.8000   -5.7200 hc        1 896      0.086700
     51 H3          8.1070   -0.9230   -5.0290 hn        1 896      0.462300
     52 H10        10.2530   -0.5370   -6.0480 ha        1 896      0.168000
     53 H13         9.4890    0.2840   -1.8040 ha        1 896      0.168000
     54 H11        12.6930   -0.1580   -5.5670 h4        1 896      0.070100
     55 H12        11.9700    0.6250   -1.5380 h4        1 896      0.070100
     56 H21         1.2170   -1.0160    0.9710 hn        1 896      0.449800
     57 H32         7.8710   -0.9320   -3.3720 hn        1 896      0.462300
@<TRIPOS>BOND
     1    1    2 2   
     2    2    3 1   
     3    2    9 1   
     4    3    4 1   
     5    3    6 1   
     6    3   56 1   
     7    4    5 1   
     8    4   27 1   
     9    4   28 1   
    10    5   30 1   
    11    5   31 1   
    12    5   32 1   
    13    6    7 1   
    14    6    8 1   
    15    6   29 1   
    16    7   33 1   
    17    7   34 1   
    18    7   35 1   
    19    8   36 1   
    20    8   37 1   
    21    8   38 1   
    22    9   10 ar  
    23    9   15 ar  
    24   10   11 ar  
    25   10   39 1   
    26   11   12 ar  
    27   11   16 1   
    28   12   13 ar  
    29   12   41 1   
    30   13   14 1   
    31   13   15 ar  
    32   14   42 1   
    33   14   43 1   
    34   14   44 1   
    35   15   40 1   
    36   16   17 1   
    37   17   18 1   
    38   17   45 1   
    39   17   46 1   
    40   18   19 1   
    41   18   20 1   
    42   18   47 1   
    43   19   48 1   
    44   19   49 1   
    45   19   50 1   
    46   20   21 1   
    47   20   51 1   
    48   20   57 1   
    49   21   22 ar  
    50   21   26 ar  
    51   22   23 ar  
    52   22   52 1   
    53   23   24 ar  
    54   23   54 1   
    55   24   25 ar  
    56   25   26 ar  
    57   25   55 1   
    58   26   53 1   
@<TRIPOS>SUBSTRUCTURE
     1 896         1 TEMP              0 ****  ****    0 ROOT
