@<TRIPOS>MOLECULE
897
   73    74     1     0     0
SMALL
bcc


@<TRIPOS>ATOM
      1 C8          0.3030    0.1260    0.8830 c3        1 897     -0.104100
      2 C7          1.7820   -0.0360    0.5290 c3        1 897      0.135500
      3 N3          2.1900   -1.4440    0.5310 nh        1 897     -0.757600
      4 C9          2.0550   -2.1510   -0.6940 ca        1 897      0.089600
      5 C10         2.7340   -3.3860   -0.8490 ca        1 897     -0.321300
      6 C11         2.5350   -4.1280   -2.0240 ca        1 897      0.434700
      7 N4          1.7200   -3.7430   -3.0240 nb        1 897     -0.643000
      8 C12         1.0850   -2.5660   -2.8790 ca        1 897      0.434700
      9 C13         1.2080   -1.7410   -1.7440 ca        1 897     -0.321300
     10 C1          2.5790    0.8390    1.5260 c3        1 897      0.114400
     11 O3          3.9820    0.5820    1.4150 os        1 897     -0.316900
     12 C14         4.6130    0.0850    2.5390 ca        1 897      0.132100
     13 C15         5.9390    0.5290    2.7400 ca        1 897     -0.072000
     14 C19         6.6820    0.0140    3.7980 ca        1 897     -0.024300
     15 C20         8.0730    0.4620    4.0390 c3        1 897     -0.080800
     16 C18         6.1040   -0.9410    4.6580 ca        1 897     -0.053000
     17 C16         4.0340   -0.8600    3.3840 ca        1 897     -0.210000
     18 C17         4.7890   -1.3730    4.4540 ca        1 897     -0.173600
     19 C21         4.2820   -2.3970    5.3740 c         1 897      0.574700
     20 O2          4.9320   -3.1110    6.1200 o         1 897     -0.398100
     21 N2          2.7550   -2.5860    5.3890 n4        1 897     -0.604200
     22 C22         2.1680   -2.9520    6.7460 c3        1 897      0.149500
     23 C23         2.3420   -1.7970    7.7250 c3        1 897     -0.130600
     24 C24         2.7110   -4.2320    7.3620 c3        1 897     -0.130600
     25 C6          2.3720   -3.5520    4.3200 c3        1 897      0.105800
     26 C5          1.0910   -3.1790    3.5650 c3        1 897     -0.182400
     27 C4          0.9460   -4.1170    2.3900 c         1 897      0.550100
     28 O1          1.4600   -5.2260    2.3170 o         1 897     -0.403100
     29 N1          0.1350   -3.6420    1.2330 n4        1 897     -0.676800
     30 C3         -1.2380   -4.3360    1.1180 c3        1 897      0.166200
     31 C25        -2.0960   -3.5280    0.1420 c3        1 897     -0.135100
     32 C26        -1.0540   -5.7550    0.5820 c3        1 897     -0.135100
     33 C2         -1.9160   -4.3760    2.4850 c3        1 897     -0.135100
     34 H8C1        0.0850   -0.2730    1.9040 hc        1 897      0.046700
     35 H8C2       -0.3480   -0.4030    0.1460 hc        1 897      0.046700
     36 H8C3        0.0410    1.2130    0.8640 hc        1 897      0.046700
     37 H7          1.9550    0.4170   -0.4970 h1        1 897      0.092700
     38 H3          3.1430   -1.5180    0.8570 hn        1 897      0.397800
     39 H1C1        2.4630    1.9170    1.2200 h1        1 897      0.074200
     40 H1C2        2.2070    0.7080    2.5720 h1        1 897      0.074200
     41 H10         3.4630   -3.7390   -0.1060 ha        1 897      0.154500
     42 H13         0.6710   -0.7820   -1.7240 ha        1 897      0.154500
     43 H11         3.0720   -5.0850   -2.1830 h4        1 897      0.055100
     44 H12         0.4470   -2.2540   -3.7300 h4        1 897      0.055100
     45 H15         6.3680    1.2750    2.0470 ha        1 897      0.192000
     46 H16         3.0110   -1.1980    3.1780 ha        1 897      0.111000
     47 H201        8.7520   -0.4190    4.1700 hc        1 897      0.078700
     48 H202        8.1200    1.0810    4.9720 hc        1 897      0.078700
     49 H203        8.4560    1.0790    3.1890 hc        1 897      0.078700
     50 H18         6.7020   -1.3490    5.4930 ha        1 897      0.181000
     51 H22         1.0620   -3.0950    6.5350 hx        1 897      0.076700
     52 H6C1        3.2240   -3.6130    3.5770 hx        1 897      0.129200
     53 H6C2        2.2510   -4.5800    4.7750 hx        1 897      0.129200
     54 H231        1.8690   -0.8560    7.3520 hc        1 897      0.084200
     55 H232        1.8410   -2.0800    8.6870 hc        1 897      0.084200
     56 H233        3.4220   -1.6090    7.9430 hc        1 897      0.084200
     57 H241        2.7590   -5.0780    6.6360 hc        1 897      0.084200
     58 H242        3.7310   -4.0780    7.7940 hc        1 897      0.084200
     59 H243        2.0210   -4.5260    8.1950 hc        1 897      0.084200
     60 H5C1        0.1850   -3.3060    4.2230 hc        1 897      0.112200
     61 H5C2        1.1190   -2.1100    3.2150 hc        1 897      0.112200
     62 H1         -0.0150   -2.6270    1.2950 hn        1 897      0.476800
     63 H251       -3.0880   -4.0410    0.0430 hc        1 897      0.082478
     64 H252       -1.6310   -3.4850   -0.8740 hc        1 897      0.082478
     65 H253       -2.2780   -2.4900    0.5130 hc        1 897      0.082478
     66 H261       -0.6310   -5.7470   -0.4530 hc        1 897      0.082478
     67 H262       -0.3910   -6.3640    1.2460 hc        1 897      0.082478
     68 H263       -2.0580   -6.2490    0.5410 hc        1 897      0.082478
     69 H2C1       -1.3420   -5.0090    3.2050 hc        1 897      0.082478
     70 H2C2       -2.0530   -3.3520    2.9080 hc        1 897      0.082478
     71 H2C3       -2.9310   -4.8350    2.3600 hc        1 897      0.082478
     72 H21         2.3610   -1.6630    5.1620 hn        1 897      0.444800
     73 H121        0.6620   -3.8380    0.3600 hn        1 897      0.476800
@<TRIPOS>BOND
     1    1    2 1   
     2    1   34 1   
     3    1   35 1   
     4    1   36 1   
     5    2    3 1   
     6    2   10 1   
     7    2   37 1   
     8    3    4 1   
     9    3   38 1   
    10    4    5 ar  
    11    4    9 ar  
    12    5    6 ar  
    13    5   41 1   
    14    6    7 ar  
    15    6   43 1   
    16    7    8 ar  
    17    8    9 ar  
    18    8   44 1   
    19    9   42 1   
    20   10   11 1   
    21   10   39 1   
    22   10   40 1   
    23   11   12 1   
    24   12   13 ar  
    25   12   17 ar  
    26   13   14 ar  
    27   13   45 1   
    28   14   15 1   
    29   14   16 ar  
    30   15   47 1   
    31   15   48 1   
    32   15   49 1   
    33   16   18 ar  
    34   16   50 1   
    35   17   18 ar  
    36   17   46 1   
    37   18   19 1   
    38   19   20 2   
    39   19   21 1   
    40   21   22 1   
    41   21   25 1   
    42   21   72 1   
    43   22   23 1   
    44   22   24 1   
    45   22   51 1   
    46   23   54 1   
    47   23   55 1   
    48   23   56 1   
    49   24   57 1   
    50   24   58 1   
    51   24   59 1   
    52   25   26 1   
    53   25   52 1   
    54   25   53 1   
    55   26   27 1   
    56   26   60 1   
    57   26   61 1   
    58   27   28 2   
    59   27   29 1   
    60   29   30 1   
    61   29   62 1   
    62   29   73 1   
    63   30   31 1   
    64   30   32 1   
    65   30   33 1   
    66   31   63 1   
    67   31   64 1   
    68   31   65 1   
    69   32   66 1   
    70   32   67 1   
    71   32   68 1   
    72   33   69 1   
    73   33   70 1   
    74   33   71 1   
@<TRIPOS>SUBSTRUCTURE
     1 897         1 TEMP              0 ****  ****    0 ROOT
