@<TRIPOS>MOLECULE
897
   74    75     1     0     0
SMALL
bcc


@<TRIPOS>ATOM
      1 C8          1.5680    1.3900   -2.0520 c3        1 897     -0.135100
      2 C7          2.9100    0.7690   -1.6940 c3        1 897      0.127500
      3 N3          3.5780    0.1330   -2.8920 n4        1 897     -0.636400
      4 C9          4.0930    1.1270   -3.8420 ca        1 897     -0.015400
      5 C10         3.3660    1.4350   -5.0040 ca        1 897     -0.235300
      6 C11         3.9280    2.3780   -5.8920 ca        1 897      0.447200
      7 N4          5.1060    2.9910   -5.6800 nb        1 897     -0.588000
      8 C12         5.7850    2.6810   -4.5600 ca        1 897      0.447200
      9 C13         5.3260    1.7560   -3.6000 ca        1 897     -0.235300
     10 C1          2.6970   -0.2530   -0.5590 c3        1 897      0.099400
     11 O3          3.9870   -0.7800   -0.2310 os        1 897     -0.357900
     12 C14         4.1800   -1.1940    1.0780 ca        1 897      0.120100
     13 C15         5.5100   -1.1180    1.5270 ca        1 897     -0.069000
     14 C19         5.8330   -1.5860    2.8040 ca        1 897     -0.017300
     15 C20         7.2350   -1.5210    3.2790 c3        1 897     -0.084800
     16 C18         4.8280   -2.1190    3.6240 ca        1 897     -0.110000
     17 C16         3.1720   -1.7300    1.8830 ca        1 897     -0.118000
     18 C17         3.5050   -2.1990    3.1720 ca        1 897     -0.162600
     19 C21         2.3980   -2.7710    3.9490 c         1 897      0.587700
     20 O2          1.2290   -2.8660    3.5860 o         1 897     -0.470100
     21 N2          2.6990   -3.3490    5.3270 n4        1 897     -0.602200
     22 C22         2.4660   -2.3350    6.4470 c3        1 897      0.141500
     23 C23         1.3720   -1.3330    6.1160 c3        1 897     -0.138600
     24 C24         3.7530   -1.6010    6.8030 c3        1 897     -0.138600
     25 C6          1.9990   -4.6490    5.5620 c3        1 897      0.117800
     26 C5          0.4970   -4.5870    5.8550 c3        1 897     -0.177400
     27 C4          0.0080   -5.9930    6.1120 c         1 897      0.537100
     28 O1          0.6690   -7.0080    5.9360 o         1 897     -0.394100
     29 N1         -1.3800   -6.1510    6.6370 n4        1 897     -0.682800
     30 C3         -2.3930   -6.6850    5.5900 c3        1 897      0.172200
     31 C25        -3.7980   -6.4950    6.1670 c3        1 897     -0.139100
     32 C26        -2.2530   -5.8990    4.2920 c3        1 897     -0.139100
     33 C2         -2.1340   -8.1710    5.3460 c3        1 897     -0.139100
     34 H8C1        1.6690    2.0960   -2.9150 hc        1 897      0.087033
     35 H8C2        1.1960    1.9750   -1.1730 hc        1 897      0.087033
     36 H8C3        0.8100    0.6100   -2.3080 hc        1 897      0.087033
     37 H7          3.6230    1.5740   -1.3360 hx        1 897      0.127700
     38 H3          4.3640   -0.4430   -2.5580 hn        1 897      0.462300
     39 H1C1        2.0400   -1.1040   -0.8810 h1        1 897      0.083700
     40 H1C2        2.2360    0.2820    0.3120 h1        1 897      0.083700
     41 H10         2.3990    0.9710   -5.2460 ha        1 897      0.166500
     42 H13         5.9360    1.5460   -2.7100 ha        1 897      0.166500
     43 H11         3.3970    2.6530   -6.8280 h4        1 897      0.074600
     44 H12         6.7550    3.2020   -4.4210 h4        1 897      0.074600
     45 H15         6.2910   -0.6990    0.8700 ha        1 897      0.185000
     46 H16         2.1320   -1.7960    1.5230 ha        1 897      0.169000
     47 H201        7.2990   -1.6110    4.3910 hc        1 897      0.080700
     48 H202        7.8290   -2.3570    2.8240 hc        1 897      0.080700
     49 H203        7.7120   -0.5540    2.9770 hc        1 897      0.080700
     50 H18         5.1340   -2.4530    4.6280 ha        1 897      0.141000
     51 H22         2.1530   -2.9470    7.3480 hx        1 897      0.096700
     52 H6C1        2.5170   -5.1530    6.4340 hx        1 897      0.123700
     53 H6C2        2.1600   -5.2900    4.6430 hx        1 897      0.123700
     54 H231        0.4260   -1.8350    5.8010 hc        1 897      0.085200
     55 H232        1.6930   -0.6300    5.3070 hc        1 897      0.085200
     56 H233        1.1650   -0.7270    7.0360 hc        1 897      0.085200
     57 H241        4.0910   -0.9350    5.9720 hc        1 897      0.085200
     58 H242        3.5460   -0.9580    7.6990 hc        1 897      0.085200
     59 H243        4.5760   -2.3060    7.0750 hc        1 897      0.085200
     60 H5C1        0.2860   -3.9340    6.7460 hc        1 897      0.125200
     61 H5C2       -0.0650   -4.1630    4.9710 hc        1 897      0.125200
     62 H1         -1.7320   -5.2560    6.9890 hn        1 897      0.468800
     63 H251       -4.5340   -6.9140    5.4320 hc        1 897      0.086256
     64 H252       -4.0410   -5.4150    6.3190 hc        1 897      0.086256
     65 H253       -3.9290   -7.0480    7.1290 hc        1 897      0.086256
     66 H261       -3.0280   -6.2750    3.5720 hc        1 897      0.086256
     67 H262       -2.4340   -4.8080    4.4460 hc        1 897      0.086256
     68 H263       -1.2500   -6.0550    3.8260 hc        1 897      0.086256
     69 H2C1       -2.8580   -8.5300    4.5690 hc        1 897      0.086256
     70 H2C2       -2.3030   -8.7730    6.2740 hc        1 897      0.086256
     71 H2C3       -1.0980   -8.3550    4.9700 hc        1 897      0.086256
     72 H32         2.9040   -0.4730   -3.3750 hn        1 897      0.462300
     73 H21         3.7060   -3.5820    5.3450 hn        1 897      0.467800
     74 H121       -1.3690   -6.8350    7.4090 hn        1 897      0.468800
@<TRIPOS>BOND
     1    1    2 1   
     2    1   34 1   
     3    1   35 1   
     4    1   36 1   
     5    2    3 1   
     6    2   10 1   
     7    2   37 1   
     8    3    4 1   
     9    3   38 1   
    10    3   72 1   
    11    4    5 ar  
    12    4    9 ar  
    13    5    6 ar  
    14    5   41 1   
    15    6    7 ar  
    16    6   43 1   
    17    7    8 ar  
    18    8    9 ar  
    19    8   44 1   
    20    9   42 1   
    21   10   11 1   
    22   10   39 1   
    23   10   40 1   
    24   11   12 1   
    25   12   13 ar  
    26   12   17 ar  
    27   13   14 ar  
    28   13   45 1   
    29   14   15 1   
    30   14   16 ar  
    31   15   47 1   
    32   15   48 1   
    33   15   49 1   
    34   16   18 ar  
    35   16   50 1   
    36   17   18 ar  
    37   17   46 1   
    38   18   19 1   
    39   19   20 2   
    40   19   21 1   
    41   21   22 1   
    42   21   25 1   
    43   21   73 1   
    44   22   23 1   
    45   22   24 1   
    46   22   51 1   
    47   23   54 1   
    48   23   55 1   
    49   23   56 1   
    50   24   57 1   
    51   24   58 1   
    52   24   59 1   
    53   25   26 1   
    54   25   52 1   
    55   25   53 1   
    56   26   27 1   
    57   26   60 1   
    58   26   61 1   
    59   27   28 2   
    60   27   29 1   
    61   29   30 1   
    62   29   62 1   
    63   29   74 1   
    64   30   31 1   
    65   30   32 1   
    66   30   33 1   
    67   31   63 1   
    68   31   64 1   
    69   31   65 1   
    70   32   66 1   
    71   32   67 1   
    72   32   68 1   
    73   33   69 1   
    74   33   70 1   
    75   33   71 1   
@<TRIPOS>SUBSTRUCTURE
     1 897         1 TEMP              0 ****  ****    0 ROOT
