@<TRIPOS>MOLECULE
897
   71    72     1     0     0
SMALL
bcc


@<TRIPOS>ATOM
      1 C8          9.3020    7.3810   -2.9250 c3        1 897     -0.102100
      2 C7         10.1500    6.2460   -3.5040 c3        1 897      0.202500
      3 N3         10.4640    6.4520   -4.9100 nh        1 897     -0.727600
      4 C9         11.6670    7.0690   -5.2610 ca        1 897      0.189600
      5 C10        12.2100    6.8760   -6.5580 ca        1 897     -0.309800
      6 C11        13.3620    7.5830   -6.9220 ca        1 897      0.422700
      7 N4         14.0120    8.4420   -6.1110 nb        1 897     -0.696000
      8 C12        13.4980    8.6140   -4.8790 ca        1 897      0.422700
      9 C13        12.3490    7.9660   -4.4040 ca        1 897     -0.309800
     10 C1          9.3700    4.9340   -3.2660 c3        1 897      0.108400
     11 O3         10.2320    3.8700   -3.6810 os        1 897     -0.339900
     12 C14         9.8070    2.5930   -3.3580 ca        1 897      0.122100
     13 C15        10.7780    1.5900   -3.5330 ca        1 897     -0.141000
     14 C19        10.4500    0.2640   -3.2550 ca        1 897     -0.045300
     15 C20        11.4530   -0.8120   -3.4300 c3        1 897     -0.058800
     16 C18         9.1590   -0.0580   -2.8090 ca        1 897     -0.134000
     17 C16         8.5180    2.2820   -2.9150 ca        1 897     -0.176000
     18 C17         8.2050    0.9450   -2.6480 ca        1 897     -0.092600
     19 C21         6.8470    0.6290   -2.1020 c         1 897      0.671700
     20 O2          6.5160    1.0670   -0.9820 o         1 897     -0.596100
     21 N2          5.9910   -0.1770   -2.8430 n         1 897     -0.468800
     22 C22         4.6680   -0.5200   -2.3220 c3        1 897      0.112700
     23 C23         3.7580    0.6890   -2.0970 c3        1 897     -0.113100
     24 C24         4.7330   -1.3370   -1.0300 c3        1 897     -0.113100
     25 C6          6.2410   -0.4890   -4.2280 c3        1 897      0.098000
     26 C5          5.5510    0.4460   -5.2280 c3        1 897     -0.184400
     27 C4          5.8220   -0.0350   -6.6460 c         1 897      0.666100
     28 O1          6.4100   -1.1140   -6.8650 o         1 897     -0.617100
     29 N1          5.3720    0.7800   -7.6600 n         1 897     -0.572900
     30 C3          5.5380    0.4940   -9.0830 c3        1 897      0.127400
     31 C25         4.9160    1.6260   -9.9210 c3        1 897     -0.108433
     32 C26         7.0220    0.3830   -9.4730 c3        1 897     -0.108433
     33 C2          4.8450   -0.8210   -9.4830 c3        1 897     -0.108433
     34 H8C1        9.1560    7.2080   -1.8320 hc        1 897      0.047367
     35 H8C2        8.3030    7.4250   -3.4220 hc        1 897      0.047367
     36 H8C3        9.8100    8.3640   -3.0690 hc        1 897      0.047367
     37 H7         11.1100    6.1770   -2.9040 h1        1 897      0.061700
     38 H3         10.2390    5.6630   -5.4810 hn        1 897      0.412800
     39 H1C1        9.1320    4.8370   -2.1750 h1        1 897      0.054200
     40 H1C2        8.4250    4.9050   -3.8680 h1        1 897      0.054200
     41 H10        11.7400    6.1900   -7.2740 ha        1 897      0.141500
     42 H13        11.9930    8.1700   -3.3860 ha        1 897      0.141500
     43 H11        13.8000    7.4530   -7.9290 h4        1 897      0.018100
     44 H12        14.0450    9.3210   -4.2280 h4        1 897      0.018100
     45 H15        11.7830    1.8670   -3.8830 ha        1 897      0.153000
     46 H16         7.7590    3.0600   -2.7540 ha        1 897      0.148000
     47 H201       11.5170   -1.4390   -2.5060 hc        1 897      0.051033
     48 H202       11.1580   -1.4750   -4.2820 hc        1 897      0.051033
     49 H203       12.4660   -0.3930   -3.6440 hc        1 897      0.051033
     50 H18         8.9060   -1.1050   -2.5820 ha        1 897      0.147000
     51 H22         4.1750   -1.1720   -3.1090 h1        1 897      0.047700
     52 H6C1        7.3490   -0.4690   -4.4340 h1        1 897      0.075700
     53 H6C2        5.8890   -1.5430   -4.4300 h1        1 897      0.075700
     54 H231        2.7520    0.3290   -1.7750 hc        1 897      0.046867
     55 H232        4.1760    1.3520   -1.3010 hc        1 897      0.046867
     56 H233        3.6420    1.2810   -3.0360 hc        1 897      0.046867
     57 H241        5.3460   -2.2590   -1.1720 hc        1 897      0.046867
     58 H242        3.6970   -1.6370   -0.7440 hc        1 897      0.046867
     59 H243        5.1760   -0.7320   -0.2030 hc        1 897      0.046867
     60 H5C1        5.9290    1.4930   -5.1010 hc        1 897      0.066700
     61 H5C2        4.4430    0.4540   -5.0520 hc        1 897      0.066700
     62 H1          4.9200    1.6310   -7.4280 hn        1 897      0.308500
     63 H251        5.4150    2.6010   -9.7080 hc        1 897      0.046144
     64 H252        5.0520    1.3870  -11.0020 hc        1 897      0.046144
     65 H253        3.8230    1.7230   -9.7150 hc        1 897      0.046144
     66 H261        7.5100   -0.4470   -8.9040 hc        1 897      0.046144
     67 H262        7.5600    1.3360   -9.2590 hc        1 897      0.046144
     68 H263        7.0970    0.1650  -10.5640 hc        1 897      0.046144
     69 H2C1        3.7500   -0.7690   -9.2760 hc        1 897      0.046144
     70 H2C2        4.9960   -0.9950  -10.5740 hc        1 897      0.046144
     71 H2C3        5.2840   -1.6770   -8.9150 hc        1 897      0.046144
@<TRIPOS>BOND
     1    1    2 1   
     2    1   34 1   
     3    1   35 1   
     4    1   36 1   
     5    2    3 1   
     6    2   10 1   
     7    2   37 1   
     8    3    4 1   
     9    3   38 1   
    10    4    5 ar  
    11    4    9 ar  
    12    5    6 ar  
    13    5   41 1   
    14    6    7 ar  
    15    6   43 1   
    16    7    8 ar  
    17    8    9 ar  
    18    8   44 1   
    19    9   42 1   
    20   10   11 1   
    21   10   39 1   
    22   10   40 1   
    23   11   12 1   
    24   12   13 ar  
    25   12   17 ar  
    26   13   14 ar  
    27   13   45 1   
    28   14   15 1   
    29   14   16 ar  
    30   15   47 1   
    31   15   48 1   
    32   15   49 1   
    33   16   18 ar  
    34   16   50 1   
    35   17   18 ar  
    36   17   46 1   
    37   18   19 1   
    38   19   20 2   
    39   19   21 1   
    40   21   22 1   
    41   21   25 1   
    42   22   23 1   
    43   22   24 1   
    44   22   51 1   
    45   23   54 1   
    46   23   55 1   
    47   23   56 1   
    48   24   57 1   
    49   24   58 1   
    50   24   59 1   
    51   25   26 1   
    52   25   52 1   
    53   25   53 1   
    54   26   27 1   
    55   26   60 1   
    56   26   61 1   
    57   27   28 2   
    58   27   29 1   
    59   29   30 1   
    60   29   62 1   
    61   30   31 1   
    62   30   32 1   
    63   30   33 1   
    64   31   63 1   
    65   31   64 1   
    66   31   65 1   
    67   32   66 1   
    68   32   67 1   
    69   32   68 1   
    70   33   69 1   
    71   33   70 1   
    72   33   71 1   
@<TRIPOS>SUBSTRUCTURE
     1 897         1 TEMP              0 ****  ****    0 ROOT
