@<TRIPOS>MOLECULE
897
   73    74     1     0     0
SMALL
bcc


@<TRIPOS>ATOM
      1 C8          0.3140    0.1170    0.8550 c3        1 897     -0.104100
      2 C7          1.7920   -0.0580    0.5010 c3        1 897      0.135500
      3 N3          2.1910   -1.4690    0.5190 nu        1 897     -0.757600
      4 C9          2.0490   -2.1890   -0.6980 ca        1 897      0.089600
      5 C10         2.7210   -3.4300   -0.8380 ca        1 897     -0.321300
      6 C11         2.5160   -4.1840   -2.0050 ca        1 897      0.434700
      7 N4          1.7020   -3.8050   -3.0080 nb        1 897     -0.643000
      8 C12         1.0750   -2.6230   -2.8760 ca        1 897      0.434700
      9 C13         1.2040   -1.7860   -1.7520 ca        1 897     -0.321300
     10 C1          2.5950    0.8230    1.4870 c3        1 897      0.114400
     11 O3          3.9960    0.5570    1.3770 os        1 897     -0.316900
     12 C14         4.6260    0.0690    2.5060 ca        1 897      0.132100
     13 C15         5.9540    0.5090    2.6990 ca        1 897     -0.072000
     14 C19         6.6960    0.0010    3.7630 ca        1 897     -0.024300
     15 C20         8.0900    0.4430    3.9970 c3        1 897     -0.080800
     16 C18         6.1140   -0.9400    4.6340 ca        1 897     -0.053000
     17 C16         4.0420   -0.8630    3.3620 ca        1 897     -0.210000
     18 C17         4.7960   -1.3670    4.4370 ca        1 897     -0.173600
     19 C21         4.2850   -2.3780    5.3700 c         1 897      0.574700
     20 O2          4.9310   -3.0880    6.1220 o         1 897     -0.398100
     21 N2          2.7560   -2.5570    5.3890 nx        1 897     -0.604200
     22 C22         2.1690   -2.9030    6.7510 c3        1 897      0.149500
     23 C23         2.3520   -1.7390    7.7170 c3        1 897     -0.130600
     24 C24         2.7050   -4.1800    7.3810 c3        1 897     -0.130600
     25 C6          2.3650   -3.5330    4.3320 c3        1 897      0.105800
     26 C5          1.0850   -3.1600    3.5750 c3        1 897     -0.182400
     27 C4          0.9320   -4.1110    2.4110 c         1 897      0.550100
     28 O1          1.4400   -5.2230    2.3490 o         1 897     -0.403100
     29 N1          0.1230   -3.6440    1.2500 ny        1 897     -0.676800
     30 C3         -1.2560   -4.3300    1.1460 c3        1 897      0.166200
     31 C25        -2.1100   -3.5280    0.1620 c3        1 897     -0.135100
     32 C26        -1.0810   -5.7560    0.6260 c3        1 897     -0.135100
     33 C2         -1.9310   -4.3490    2.5150 c3        1 897     -0.135100
     34 H8C1       -0.3420   -0.4160    0.1250 hc        1 897      0.046700
     35 H8C2        0.0950   -0.2680    1.8800 hc        1 897      0.046700
     36 H8C3        0.0590    1.2060    0.8230 hc        1 897      0.046700
     37 H7          1.9660    0.3820   -0.5300 h1        1 897      0.092700
     38 H3          3.1430   -1.5440    0.8440 hn        1 897      0.397800
     39 H1C1        2.4850    1.8980    1.1690 h1        1 897      0.074200
     40 H1C2        2.2230    0.7070    2.5350 h1        1 897      0.074200
     41 H10         3.4490   -3.7780   -0.0930 ha        1 897      0.154500
     42 H13         0.6730   -0.8240   -1.7420 ha        1 897      0.154500
     43 H11         3.0470   -5.1460   -2.1530 h4        1 897      0.055100
     44 H12         0.4370   -2.3180   -3.7310 h4        1 897      0.055100
     45 H15         6.3860    1.2440    1.9980 ha        1 897      0.192000
     46 H16         3.0170   -1.1960    3.1610 ha        1 897      0.111000
     47 H201        8.4710    1.0590    3.1450 hc        1 897      0.078700
     48 H202        8.7660   -0.4400    4.1240 hc        1 897      0.078700
     49 H203        8.1450    1.0620    4.9300 hc        1 897      0.078700
     50 H18         6.7100   -1.3430    5.4730 ha        1 897      0.181000
     51 H22         1.0620   -3.0420    6.5440 hx        1 897      0.076700
     52 H6C1        3.2160   -3.6080    3.5890 hx        1 897      0.129200
     53 H6C2        2.2390   -4.5550    4.7990 hx        1 897      0.129200
     54 H231        1.8860   -0.7990    7.3340 hc        1 897      0.084200
     55 H232        1.8510   -2.0070    8.6830 hc        1 897      0.084200
     56 H233        3.4340   -1.5550    7.9310 hc        1 897      0.084200
     57 H241        2.0160   -4.4600    8.2190 hc        1 897      0.084200
     58 H242        3.7280   -4.0280    7.8090 hc        1 897      0.084200
     59 H243        2.7460   -5.0350    6.6650 hc        1 897      0.084200
     60 H5C1        1.1190   -2.0950    3.2120 hc        1 897      0.112200
     61 H5C2        0.1790   -3.2740    4.2360 hc        1 897      0.112200
     62 H1         -0.0200   -2.6270    1.3000 hn        1 897      0.476800
     63 H251       -3.1050   -4.0350    0.0710 hc        1 897      0.082478
     64 H252       -1.6470   -3.5000   -0.8550 hc        1 897      0.082478
     65 H253       -2.2840   -2.4850    0.5210 hc        1 897      0.082478
     66 H261       -0.4220   -6.3620    1.2950 hc        1 897      0.082478
     67 H262       -2.0890   -6.2440    0.5930 hc        1 897      0.082478
     68 H263       -0.6610   -5.7640   -0.4100 hc        1 897      0.082478
     69 H2C1       -1.3600   -4.9780    3.2400 hc        1 897      0.082478
     70 H2C2       -2.9500   -4.8030    2.3970 hc        1 897      0.082478
     71 H2C3       -2.0610   -3.3190    2.9260 hc        1 897      0.082478
     72 H21         2.3670   -1.6340    5.1520 hn        1 897      0.444800
     73 H121        0.6460   -3.8530    0.3790 hn        1 897      0.476800
@<TRIPOS>BOND
     1    1    2 1   
     2    1   34 1   
     3    1   35 1   
     4    1   36 1   
     5    2    3 1   
     6    2   10 1   
     7    2   37 1   
     8    3    4 1   
     9    3   38 1   
    10    4    5 ar  
    11    4    9 ar  
    12    5    6 ar  
    13    5   41 1   
    14    6    7 ar  
    15    6   43 1   
    16    7    8 ar  
    17    8    9 ar  
    18    8   44 1   
    19    9   42 1   
    20   10   11 1   
    21   10   39 1   
    22   10   40 1   
    23   11   12 1   
    24   12   13 ar  
    25   12   17 ar  
    26   13   14 ar  
    27   13   45 1   
    28   14   15 1   
    29   14   16 ar  
    30   15   47 1   
    31   15   48 1   
    32   15   49 1   
    33   16   18 ar  
    34   16   50 1   
    35   17   18 ar  
    36   17   46 1   
    37   18   19 1   
    38   19   20 2   
    39   19   21 1   
    40   21   22 1   
    41   21   25 1   
    42   21   72 1   
    43   22   23 1   
    44   22   24 1   
    45   22   51 1   
    46   23   54 1   
    47   23   55 1   
    48   23   56 1   
    49   24   57 1   
    50   24   58 1   
    51   24   59 1   
    52   25   26 1   
    53   25   52 1   
    54   25   53 1   
    55   26   27 1   
    56   26   60 1   
    57   26   61 1   
    58   27   28 2   
    59   27   29 1   
    60   29   30 1   
    61   29   62 1   
    62   29   73 1   
    63   30   31 1   
    64   30   32 1   
    65   30   33 1   
    66   31   63 1   
    67   31   64 1   
    68   31   65 1   
    69   32   66 1   
    70   32   67 1   
    71   32   68 1   
    72   33   69 1   
    73   33   70 1   
    74   33   71 1   
@<TRIPOS>SUBSTRUCTURE
     1 897         1 TEMP              0 ****  ****    0 ROOT
