@<TRIPOS>MOLECULE
897
   71    68     1     0     0
SMALL
bcc


@<TRIPOS>ATOM
      1 C8          5.3150   -4.4970   -1.5160 c3        1 897     -0.232000
      2 C7          4.0300   -4.3160   -0.7730 c3        1 897      0.010000
      3 N3          3.4440   -5.5870   -0.5250 n3        1 897     -0.308000
      4 C9          3.5900   -6.2060    0.7620 c2        1 897      0.114000
      5 C10         3.0520   -5.5480    1.9570 c2        1 897     -0.248000
      6 C11         3.1260   -6.2430    3.2990 c1        1 897     -0.040000
      7 N4          3.7410   -7.5710    3.4080 n1        1 897     -0.170000
      8 C12         4.2780   -8.2300    2.2200 c1        1 897     -0.039000
      9 C13         4.2080   -7.5400    0.8740 c1        1 897     -0.252000
     10 C1          3.0700   -3.4670   -1.6100 c3        1 897     -0.032000
     11 O3          3.4660   -2.0750   -1.5390 os        1 897     -0.223000
     12 C14         2.4160   -1.1410   -1.9280 c2        1 897      0.082000
     13 C15         1.7110   -1.3070   -3.2640 c2        1 897     -0.192000
     14 C19         0.6190   -0.3270   -3.6760 c1        1 897     -0.032000
     15 C20        -0.1540   -0.5510   -4.9600 c2        1 897     -0.184000
     16 C18         0.2610    0.8440   -2.7640 c2        1 897     -0.136000
     17 C16         2.1150    0.0710   -1.0560 c1        1 897     -0.139000
     18 C17         1.0230    1.0550   -1.4670 c1        1 897     -0.072000
     19 C21         0.6570    2.2570   -0.5290 c2        1 897      0.345000
     20 O2          1.2690    2.4240    0.5110 o         1 897     -0.352000
     21 N2         -0.5000    3.0940   -0.8340 n         1 897     -0.326000
     22 C22        -0.3070    4.4100   -1.4500 c3        1 897      0.037000
     23 C23         1.0390    4.9870   -1.0110 c3        1 897     -0.231000
     24 C24        -0.3290    4.2680   -2.9780 c3        1 897     -0.231000
     25 C6         -1.8170    2.7050   -0.3620 c3        1 897     -0.018000
     26 C5         -2.0610    3.3050    1.0490 c3        1 897     -0.215000
     27 C4         -3.4910    2.9370    1.5300 c2        1 897      0.310000
     28 O1         -4.0780    1.9930    1.0300 o         1 897     -0.380000
     29 N1         -4.1040    3.6790    2.6100 n         1 897     -0.380000
     30 C3         -5.2020    3.1110    3.3370 c3        1 897      0.090000
     31 C25        -5.3100    3.7850    4.7050 c3        1 897     -0.226333
     32 C26        -4.9680    1.5930    3.5260 c3        1 897     -0.226333
     33 C2         -6.4950    3.3320    2.5600 c3        1 897     -0.226333
     34 H8C1        5.9570   -4.9790   -0.9470 hc        1 897      0.091000
     35 H8C2        5.6830   -3.6180   -1.7540 hc        1 897      0.091000
     36 H8C3        5.1500   -5.0140   -2.3320 hc        1 897      0.091000
     37 H7          4.2060   -3.8670    0.0770 h1        1 897      0.107000
     38 H3          2.9750   -6.0090   -1.1830 hn        1 897      0.212000
     39 H1C1        3.0970   -3.7680   -2.5470 h1        1 897      0.092000
     40 H1C2        2.1610   -3.5650   -1.2620 h1        1 897      0.092000
     41 H10         2.6430   -4.6640    1.8860 ha        1 897      0.146000
     42 H13         4.5650   -7.9800    0.0830 ha        1 897      0.140000
     43 H11         2.7680   -5.8050    4.0940 ha        1 897      0.156000
     44 H12         4.6860   -9.1110    2.2950 ha        1 897      0.157000
     45 H15         1.9340   -2.0640   -3.8450 ha        1 897      0.143000
     46 H16         2.6050    0.2060   -0.2220 ha        1 897      0.154000
     47 H201        0.4430   -0.9420   -5.6390 ha        1 897      0.089000
     48 H202       -0.9000   -1.1630   -4.7890 ha        1 897      0.089000
     49 H203       -0.5020    0.3070   -5.2870 ha        1 897      0.089000
     50 H18        -0.4360    1.4700   -3.0270 ha        1 897      0.147000
     51 H22        -1.0270    5.0100   -1.1680 h1        1 897      0.089000
     52 H6C1       -2.4990    3.0400   -0.9820 h1        1 897      0.114500
     53 H6C2       -1.8710    1.7300   -0.3140 h1        1 897      0.114500
     54 H231        1.0610    5.0580   -0.0320 hc        1 897      0.086333
     55 H232        1.7610    4.3980   -1.3120 hc        1 897      0.086333
     56 H233        1.1580    5.8830   -1.4090 hc        1 897      0.086333
     57 H241       -1.1360    3.7880   -3.2480 hc        1 897      0.086333
     58 H242        0.4630    3.7680   -3.2720 hc        1 897      0.086333
     59 H243       -0.3250    5.1660   -3.3930 hc        1 897      0.086333
     60 H5C1       -1.4060    2.9430    1.6720 hc        1 897      0.108000
     61 H5C2       -1.9700    4.2810    1.0100 hc        1 897      0.108000
     62 H1         -3.7820    4.5030    2.8380 hn        1 897      0.223000
     63 H251       -4.4680    3.6750    5.1910 hc        1 897      0.085111
     64 H252       -5.4960    4.7440    4.5850 hc        1 897      0.085111
     65 H253       -6.0370    3.3730    5.2150 hc        1 897      0.085111
     66 H261       -5.5320    1.2630    4.2650 hc        1 897      0.085111
     67 H262       -5.2050    1.1210    2.6980 hc        1 897      0.085111
     68 H263       -4.0200    1.4300    3.7370 hc        1 897      0.085111
     69 H2C1       -6.5170    4.2560    2.2140 hc        1 897      0.085111
     70 H2C2       -6.5390    2.7060    1.8180 hc        1 897      0.085111
     71 H2C3       -7.2620    3.1880    3.1550 hc        1 897      0.085111
@<TRIPOS>BOND
     1    1    2 1   
     2    1   34 1   
     3    1   35 1   
     4    1   36 1   
     5    2    3 1   
     6    2   10 1   
     7    2   37 1   
     8    3    4 1   
     9    3   38 1   
    10    4    5 1   
    11    4    9 1   
    12    5    6 1   
    13    5   41 1   
    14    6   43 1   
    15    7    8 1   
    16    8   44 1   
    17    9   42 1   
    18   10   11 1   
    19   10   39 1   
    20   10   40 1   
    21   11   12 1   
    22   12   13 1   
    23   12   17 1   
    24   13   14 1   
    25   13   45 1   
    26   14   16 1   
    27   15   47 1   
    28   15   48 1   
    29   15   49 1   
    30   16   18 1   
    31   16   50 1   
    32   17   46 1   
    33   18   19 1   
    34   19   20 1   
    35   19   21 1   
    36   21   22 1   
    37   21   25 1   
    38   22   23 1   
    39   22   24 1   
    40   22   51 1   
    41   23   54 1   
    42   23   55 1   
    43   23   56 1   
    44   24   57 1   
    45   24   58 1   
    46   24   59 1   
    47   25   26 1   
    48   25   52 1   
    49   25   53 1   
    50   26   27 1   
    51   26   60 1   
    52   26   61 1   
    53   27   28 1   
    54   27   29 1   
    55   29   30 1   
    56   29   62 1   
    57   30   31 1   
    58   30   32 1   
    59   30   33 1   
    60   31   63 1   
    61   31   64 1   
    62   31   65 1   
    63   32   66 1   
    64   32   67 1   
    65   32   68 1   
    66   33   69 1   
    67   33   70 1   
    68   33   71 1   
@<TRIPOS>SUBSTRUCTURE
     1 897         1 TEMP              0 ****  ****    0 ROOT
