@<TRIPOS>MOLECULE
898
   53    55     1     0     0
SMALL
bcc


@<TRIPOS>ATOM
      1 CL1         3.7660   -5.1130   -1.3460 cl        1 898     -0.020400
      2 C1          4.2720   -3.5240   -1.4600 cc        1 898     -0.038700
      3 C2          5.3420   -3.0900   -2.2360 cd        1 898     -0.163000
      4 C3          5.5220   -1.6880   -2.1240 cd        1 898     -0.105000
      5 S2          3.5410   -2.2640   -0.6460 ss        1 898      0.155200
      6 C4          4.5840   -1.1100   -1.2700 cc        1 898     -0.165900
      7 C5          4.5260    0.2870   -0.9650 ce        1 898      0.143800
      8 C6          3.6360    0.8570   -0.1350 cf        1 898     -0.533100
      9 S1          3.5740    2.4630    0.2670 sy        1 898      1.524800
     10 O2          3.7100    2.6110    1.6620 o         1 898     -0.657800
     11 O1          4.4910    3.1730   -0.5400 o         1 898     -0.657800
     12 N1          2.0620    2.9020   -0.1690 n3        1 898     -0.890100
     13 C12         0.9390    2.8840    0.7080 c3        1 898      0.171500
     14 C13        -0.0330    4.0770    0.5640 c3        1 898     -0.104400
     15 C14        -1.4460    3.4680    0.5480 c3        1 898      0.086000
     16 C50         0.0320    1.6300    0.5080 c         1 898      0.677500
     17 O3          0.4600    0.4680    0.4640 o         1 898     -0.622500
     18 N2         -1.3040    2.0240    0.4240 n         1 898     -0.377000
     19 C15        -2.3980    1.1850    0.1570 ca        1 898      0.046600
     20 C21        -3.7330    1.5400    0.5170 ca        1 898      0.078900
     21 F1         -4.0090    2.7130    1.1430 f         1 898     -0.146900
     22 C22        -2.2120   -0.0600   -0.4860 ca        1 898     -0.136000
     23 C26        -3.2830   -0.9010   -0.7550 ca        1 898     -0.120000
     24 C27        -4.5880   -0.5380   -0.4080 ca        1 898     -0.079300
     25 C24        -4.8070    0.6820    0.2250 ca        1 898     -0.118000
     26 C28        -5.7430   -1.4520   -0.7530 c3        1 898      0.230800
     27 C8         -6.4910   -0.8370   -1.9400 c3        1 898     -0.093100
     28 N3         -6.6010   -1.7030    0.4150 n3        1 898     -0.735600
     29 C9         -7.8720   -2.3000    0.0740 c3        1 898      0.154100
     30 C7         -5.9060   -2.4310    1.4540 c3        1 898      0.154100
     31 H2          5.9690   -3.7360   -2.8550 ha        1 898      0.169000
     32 H3          6.3060   -1.1360   -2.6480 ha        1 898      0.163000
     33 H51C        5.2930    0.9140   -1.4700 ha        1 898      0.154000
     34 H61C        2.8730    0.2080    0.3470 h4        1 898      0.196000
     35 H1          1.8500    3.1670   -1.1010 hn        1 898      0.447800
     36 H12         1.3160    2.8350    1.7770 h1        1 898      0.114700
     37 H131        0.0830    4.7760    1.4270 hc        1 898      0.069700
     38 H132        0.1460    4.6560   -0.3750 hc        1 898      0.069700
     39 H141       -1.9820    3.7140    1.5080 h1        1 898      0.065200
     40 H142       -2.0560    3.8680   -0.3060 h1        1 898      0.065200
     41 H22        -1.1960   -0.3840   -0.7690 ha        1 898      0.166000
     42 H24        -5.8260    0.9860    0.5150 ha        1 898      0.165000
     43 H26        -3.0930   -1.8660   -1.2510 ha        1 898      0.139000
     44 H28        -5.3030   -2.4380   -1.1150 h1        1 898      0.025700
     45 H81C       -7.0330    0.0890   -1.6350 hc        1 898      0.043700
     46 H82C       -5.7520   -0.5730   -2.7340 hc        1 898      0.043700
     47 H83C       -7.2220   -1.5650   -2.3650 hc        1 898      0.043700
     48 H91C       -7.7750   -3.2330   -0.5460 h1        1 898      0.033700
     49 H92C       -8.4220   -2.5570    1.0170 h1        1 898      0.033700
     50 H93C       -8.4820   -1.5510   -0.4970 h1        1 898      0.033700
     51 H71C       -4.9550   -1.8930    1.7060 h1        1 898      0.033700
     52 H72C       -6.5560   -2.4600    2.3680 h1        1 898      0.033700
     53 H73C       -5.6520   -3.4880    1.1630 h1        1 898      0.033700
@<TRIPOS>BOND
     1    1    2 1   
     2    2    3 2   
     3    2    5 1   
     4    3    4 1   
     5    3   31 1   
     6    4    6 2   
     7    4   32 1   
     8    5    6 1   
     9    6    7 1   
    10    7    8 2   
    11    7   33 1   
    12    8    9 1   
    13    8   34 1   
    14    9   10 2   
    15    9   11 2   
    16    9   12 1   
    17   12   13 1   
    18   12   35 1   
    19   13   14 1   
    20   13   16 1   
    21   13   36 1   
    22   14   15 1   
    23   14   37 1   
    24   14   38 1   
    25   15   18 1   
    26   15   39 1   
    27   15   40 1   
    28   16   17 2   
    29   16   18 1   
    30   18   19 1   
    31   19   20 ar  
    32   19   22 ar  
    33   20   21 1   
    34   20   25 ar  
    35   22   23 ar  
    36   22   41 1   
    37   23   24 ar  
    38   23   43 1   
    39   24   25 ar  
    40   24   26 1   
    41   25   42 1   
    42   26   27 1   
    43   26   28 1   
    44   26   44 1   
    45   27   45 1   
    46   27   46 1   
    47   27   47 1   
    48   28   29 1   
    49   28   30 1   
    50   29   48 1   
    51   29   49 1   
    52   29   50 1   
    53   30   51 1   
    54   30   52 1   
    55   30   53 1   
@<TRIPOS>SUBSTRUCTURE
     1 898         1 TEMP              0 ****  ****    0 ROOT
