@<TRIPOS>MOLECULE
898
   55    56     1     0     0
SMALL
bcc


@<TRIPOS>ATOM
      1 Cl1         3.2860    4.3720    2.8200 cl        1 898      0.085600
      2 C1          4.4970    3.5340    2.0620 cc        1 898      0.042300
      3 C2          5.7300    3.2210    2.6800 cd        1 898     -0.177000
      4 C3          6.5700    2.5150    1.8230 cd        1 898     -0.009000
      5 S2          4.4180    2.9700    0.5130 ss        1 898      0.226200
      6 C4          5.9670    2.2910    0.5480 cc        1 898     -0.258900
      7 C5          6.6010    1.6300   -0.4920 ce        1 898      0.296800
      8 C6          6.0570    1.4040   -1.7540 c2        1 898     -0.865300
      9 S1          6.7060    0.7900   -2.9700 s4        1 898      1.703100
     10 O2          6.0610    0.8810   -4.1650 o         1 898     -0.455900
     11 O1          8.0060    0.3910   -2.8790 o         1 898     -0.455900
     12 N1          5.9420   -1.4880   -2.6660 n8        1 898     -0.983800
     13 C12         5.5360   -2.0860   -3.9290 c3        1 898      0.063500
     14 C13         6.6740   -2.6230   -4.8180 c3        1 898     -0.104400
     15 C14         6.1300   -3.9300   -5.4240 c3        1 898      0.081000
     16 C50         4.5830   -3.3010   -3.7590 c         1 898      0.680500
     17 O3          3.6630   -3.3210   -2.9330 o         1 898     -0.594500
     18 N2          4.9390   -4.3070   -4.6620 n         1 898     -0.371000
     19 C15         4.2980   -5.5400   -4.8220 ca        1 898      0.092600
     20 C21         4.5290   -6.3740   -5.9640 ca        1 898      0.096900
     21 F1          5.3720   -6.0010   -6.9570 f         1 898     -0.120900
     22 C22         3.3860   -6.0220   -3.8520 ca        1 898     -0.138000
     23 C26         2.7470   -7.2470   -3.9990 ca        1 898     -0.083000
     24 C27         2.9970   -8.0570   -5.1100 ca        1 898     -0.175300
     25 C24         3.8890   -7.6170   -6.0870 ca        1 898     -0.128000
     26 C28         2.3530   -9.4100   -5.2120 c3        1 898      0.199800
     27 C8          3.4120  -10.4980   -5.3370 c3        1 898     -0.127100
     28 N3          1.3620   -9.4330   -6.3730 nx        1 898     -0.685400
     29 C9          0.8860  -10.8070   -6.6690 c3        1 898      0.081600
     30 C7          0.2100   -8.5360   -6.0950 c3        1 898      0.081600
     31 H2          5.9860    3.5080    3.7080 ha        1 898      0.207000
     32 H3          7.5780    2.1720    2.0860 ha        1 898      0.188000
     33 H51C        7.6370    1.2650   -0.2960 ha        1 898      0.164000
     34 H61C        5.0100    1.7820   -1.8580 h4        1 898      0.229000
     35 H1          5.1610   -1.5090   -2.0260 hn        1 898      0.403300
     36 H12         4.9540   -1.2960   -4.4980 h1        1 898      0.129700
     37 H131        6.9210   -1.8920   -5.6280 hc        1 898      0.088700
     38 H132        7.6090   -2.8270   -4.2390 hc        1 898      0.088700
     39 H141        6.8950   -4.7520   -5.3680 h1        1 898      0.085200
     40 H142        5.8530   -3.7690   -6.5040 h1        1 898      0.085200
     41 H22         3.1640   -5.4210   -2.9510 ha        1 898      0.191000
     42 H24         4.1270   -8.2370   -6.9660 ha        1 898      0.155000
     43 H26         2.0510   -7.5790   -3.2110 ha        1 898      0.155000
     44 H28         1.7350   -9.6110   -4.2830 hx        1 898      0.107700
     45 H81C        4.1650  -10.3410   -4.5220 hc        1 898      0.080033
     46 H82C        2.9680  -11.5150   -5.2050 hc        1 898      0.080033
     47 H83C        3.9470  -10.4520   -6.3160 hc        1 898      0.080033
     48 H91C        0.0630  -10.7580   -7.4330 hx        1 898      0.106033
     49 H92C        0.4970  -11.2820   -5.7290 hx        1 898      0.106033
     50 H93C        1.7340  -11.4210   -7.0780 hx        1 898      0.106033
     51 H71C       -0.4090   -8.9670   -5.2630 hx        1 898      0.106033
     52 H72C        0.5910   -7.5230   -5.7930 hx        1 898      0.106033
     53 H73C       -0.4200   -8.4440   -7.0200 hx        1 898      0.106033
     54 H121        6.7070   -2.0030   -2.2600 hn        1 898      0.403300
     55 H31         1.8570   -9.0740   -7.2010 hn        1 898      0.446800
@<TRIPOS>BOND
     1    1    2 1   
     2    2    3 2   
     3    2    5 1   
     4    3    4 1   
     5    3   31 1   
     6    4    6 2   
     7    4   32 1   
     8    5    6 1   
     9    6    7 1   
    10    7    8 2   
    11    7   33 1   
    12    8    9 1   
    13    8   34 1   
    14    9   10 1   
    15    9   11 1   
    16   12   13 1   
    17   12   35 1   
    18   12   54 1   
    19   13   14 1   
    20   13   16 1   
    21   13   36 1   
    22   14   15 1   
    23   14   37 1   
    24   14   38 1   
    25   15   18 1   
    26   15   39 1   
    27   15   40 1   
    28   16   17 2   
    29   16   18 1   
    30   18   19 1   
    31   19   20 ar  
    32   19   22 ar  
    33   20   21 1   
    34   20   25 ar  
    35   22   23 ar  
    36   22   41 1   
    37   23   24 ar  
    38   23   43 1   
    39   24   25 ar  
    40   24   26 1   
    41   25   42 1   
    42   26   27 1   
    43   26   28 1   
    44   26   44 1   
    45   27   45 1   
    46   27   46 1   
    47   27   47 1   
    48   28   29 1   
    49   28   30 1   
    50   28   55 1   
    51   29   48 1   
    52   29   49 1   
    53   29   50 1   
    54   30   51 1   
    55   30   52 1   
    56   30   53 1   
@<TRIPOS>SUBSTRUCTURE
     1 898         1 TEMP              0 ****  ****    0 ROOT
