@<TRIPOS>MOLECULE
898
   53    48     1     0     0
SMALL
bcc


@<TRIPOS>ATOM
      1 CL1        -7.0800   -4.6720    3.8050 cl        1 898      0.047000
      2 C1         -6.0620   -3.4450    4.5490 c2        1 898     -0.441000
      3 C2         -5.0990   -3.6650    5.6140 c1        1 898     -0.177000
      4 C3         -4.4860   -2.2420    6.0410 c1        1 898     -0.098000
      5 S2         -6.1100   -1.9140    4.2520 ss        1 898      0.878000
      6 C4         -5.1030   -1.2140    5.2150 c1        1 898     -0.503000
      7 C5         -4.9380    0.2770    5.3850 c1        1 898     -0.417500
      8 C6         -4.4320    1.0360    4.3480 c1        1 898     -0.417500
      9 S1         -3.9660    0.2420    2.7950 ss        1 898      2.874000
     10 O2         -3.4420   -1.1090    3.0230 o         1 898     -0.942000
     11 O1         -5.1100   -0.0400    1.9930 o         1 898     -0.942000
     12 N1         -2.8660    1.1860    1.9690 n2        1 898     -0.863000
     13 C12        -2.4870    0.8370    0.6810 c3        1 898      0.030000
     14 C13        -2.7390    1.8860   -0.1750 c3        1 898     -0.189000
     15 C14        -1.5720    1.8620   -1.2160 c3        1 898     -0.030000
     16 C50        -0.8860    0.7220    0.6000 c2        1 898      0.286000
     17 O3         -0.1390    0.3720    1.5060 o         1 898     -0.327000
     18 N2         -0.5440    0.9120   -0.6650 n         1 898     -0.284000
     19 C15         0.7240    0.5970   -1.2590 c2        1 898      0.055000
     20 C21         0.8560   -0.5300   -2.0500 c2        1 898      0.044000
     21 F1         -0.2370   -1.2830   -2.3460 f         1 898     -0.113000
     22 C22         1.8170    1.4010   -1.0140 c1        1 898     -0.138000
     23 C26         3.0570    1.0800   -1.5640 c1        1 898     -0.095000
     24 C27         3.1920   -0.0350   -2.3490 c1        1 898     -0.071000
     25 C24         2.0840   -0.8500   -2.5970 c1        1 898     -0.144000
     26 C28         4.5660   -0.4270   -2.8820 c3        1 898      0.026000
     27 C8          5.5600   -0.3760   -1.7760 c3        1 898     -0.211000
     28 N3          4.9670    0.5100   -3.9490 n3        1 898     -0.261000
     29 C9          6.4140    0.5400   -4.0500 c3        1 898     -0.121000
     30 C7          4.4360    0.0990   -5.1460 c3        1 898     -0.121000
     31 H2         -4.8630   -4.5350    6.0060 DU        1 898      0.159000
     32 H3         -3.8010   -2.0900    6.7490 DU        1 898      0.159000
     33 H51C       -5.1950    0.7090    6.2360 ha        1 898      0.155000
     34 H61C       -4.3260    1.9870    4.4530 ha        1 898      0.155000
     35 H1         -2.5130    1.9200    2.3620 hn        1 898      0.245000
     36 H12        -2.9840    0.0470    0.5570 h1        1 898      0.144000
     37 H131       -3.5990    1.7570   -0.6290 hc        1 898      0.109500
     38 H132       -2.7370    2.7480    0.3280 hc        1 898      0.109500
     39 H141       -1.1850    2.7650   -1.3120 h1        1 898      0.103500
     40 H142       -1.8980    1.5410   -2.0820 h1        1 898      0.103500
     41 H22         1.7220    2.1990   -0.4530 ha        1 898      0.167000
     42 H24         2.1810   -1.6810   -3.1800 ha        1 898      0.149000
     43 H26         3.8120    1.6360   -1.3950 ha        1 898      0.155000
     44 H28         4.5290   -1.3230   -3.2390 h1        1 898      0.064000
     45 H81C        6.3470   -0.9260   -2.0140 hc        1 898      0.083667
     46 H82C        5.8400    0.5470   -1.6330 hc        1 898      0.083667
     47 H83C        5.1440   -0.7330   -0.9350 hc        1 898      0.083667
     48 H91C        6.6880    1.1180   -4.8440 h1        1 898      0.072500
     49 H92C        6.7900    0.9140   -3.2310 h1        1 898      0.072500
     50 H93C        6.7560   -0.3830   -4.1790 h1        1 898      0.072500
     51 H71C        3.5290    0.5080   -5.2690 h1        1 898      0.072500
     52 H72C        5.0320    0.3840   -5.8880 h1        1 898      0.072500
     53 H73C        4.3580   -0.8640   -5.1480 h1        1 898      0.072500
@<TRIPOS>BOND
     1    1    2 1   
     2    2    3 1   
     3    2    5 1   
     4    3    4 1   
     5    4    6 1   
     6    5    6 1   
     7    7    8 1   
     8    7   33 1   
     9    8   34 1   
    10    9   10 1   
    11    9   11 1   
    12   12   13 1   
    13   12   35 1   
    14   13   14 1   
    15   13   16 1   
    16   13   36 1   
    17   14   15 1   
    18   14   37 1   
    19   14   38 1   
    20   15   18 1   
    21   15   39 1   
    22   15   40 1   
    23   16   17 1   
    24   16   18 1   
    25   18   19 1   
    26   19   20 1   
    27   19   22 1   
    28   20   21 1   
    29   20   25 1   
    30   22   41 1   
    31   23   24 1   
    32   23   43 1   
    33   24   26 1   
    34   25   42 1   
    35   26   27 1   
    36   26   28 1   
    37   26   44 1   
    38   27   45 1   
    39   27   46 1   
    40   27   47 1   
    41   28   29 1   
    42   28   30 1   
    43   29   48 1   
    44   29   49 1   
    45   29   50 1   
    46   30   51 1   
    47   30   52 1   
    48   30   53 1   
@<TRIPOS>SUBSTRUCTURE
     1 898         1 TEMP              0 ****  ****    0 ROOT
