@<TRIPOS>MOLECULE
898
   55    56     1     0     0
SMALL
bcc


@<TRIPOS>ATOM
      1 CL1         3.4120    4.3090    2.9260 cl        1 898      0.085600
      2 C1          4.6070    3.4860    2.1260 cc        1 898      0.042300
      3 C2          5.8600    3.1780    2.7060 cd        1 898     -0.177000
      4 C3          6.6800    2.4850    1.8180 cd        1 898     -0.009000
      5 S2          4.4880    2.9360    0.5750 ss        1 898      0.226200
      6 C4          6.0430    2.2670    0.5590 cc        1 898     -0.258900
      7 C5          6.6510    1.6200   -0.5040 ce        1 898      0.296800
      8 C6          6.0720    1.4020   -1.7520 c2        1 898     -0.865300
      9 S1          6.6910    0.8030   -2.9910 s4        1 898      1.703100
     10 O2          6.0110    0.9000   -4.1670 o         1 898     -0.455900
     11 O1          7.9950    0.4130   -2.9420 o         1 898     -0.455900
     12 N1          5.9510   -1.4820   -2.6860 n3        1 898     -0.983800
     13 C12         5.5170   -2.0730   -3.9430 c3        1 898      0.063500
     14 C13         6.6350   -2.5960   -4.8650 c3        1 898     -0.104400
     15 C14         6.0830   -3.9020   -5.4670 c3        1 898      0.081000
     16 C50         4.5760   -3.2950   -3.7580 c         1 898      0.680500
     17 O3          3.6770   -3.3270   -2.9090 o         1 898     -0.594500
     18 N2          4.9150   -4.2930   -4.6780 n         1 898     -0.371000
     19 C15         4.2770   -5.5290   -4.8300 ca        1 898      0.092600
     20 C21         4.4850   -6.3530   -5.9840 ca        1 898      0.096900
     21 F1          5.3010   -5.9680   -6.9950 f         1 898     -0.120900
     22 C22         3.3920   -6.0230   -3.8430 ca        1 898     -0.138000
     23 C26         2.7570   -7.2500   -3.9820 ca        1 898     -0.083000
     24 C27         2.9830   -8.0510   -5.1050 ca        1 898     -0.175300
     25 C24         3.8490   -7.5990   -6.1000 ca        1 898     -0.128000
     26 C28         2.3450   -9.4070   -5.2010 c3        1 898      0.199800
     27 C8          3.4070  -10.4880   -5.3590 c3        1 898     -0.127100
     28 N3          1.3270   -9.4270   -6.3390 n4        1 898     -0.685400
     29 C9          0.8520  -10.8030   -6.6330 c3        1 898      0.081600
     30 C7          0.1760   -8.5390   -6.0270 c3        1 898      0.081600
     31 H2          6.1430    3.4580    3.7280 ha        1 898      0.207000
     32 H3          7.6970    2.1480    2.0490 ha        1 898      0.188000
     33 H51C        7.6940    1.2620   -0.3420 ha        1 898      0.164000
     34 H61C        5.0200    1.7730   -1.8230 h4        1 898      0.229000
     35 H1          5.1880   -1.5140   -2.0260 hn        1 898      0.403300
     36 H12         4.9150   -1.2820   -4.4910 h1        1 898      0.129700
     37 H131        7.5860   -2.7990   -4.3120 hc        1 898      0.088700
     38 H132        6.8560   -1.8580   -5.6760 hc        1 898      0.088700
     39 H141        6.8540   -4.7200   -5.4360 h1        1 898      0.085200
     40 H142        5.7780   -3.7360   -6.5380 h1        1 898      0.085200
     41 H22         3.1880   -5.4300   -2.9320 ha        1 898      0.191000
     42 H24         4.0690   -8.2110   -6.9900 ha        1 898      0.155000
     43 H26         2.0820   -7.5920   -3.1800 ha        1 898      0.155000
     44 H28         1.7500   -9.6170   -4.2590 hx        1 898      0.107700
     45 H81C        2.9720  -11.5080   -5.2240 hc        1 898      0.080033
     46 H82C        3.9180  -10.4320   -6.3500 hc        1 898      0.080033
     47 H83C        4.1780  -10.3320   -4.5610 hc        1 898      0.080033
     48 H91C        0.0100  -10.7530   -7.3760 hx        1 898      0.106033
     49 H92C        0.4870  -11.2860   -5.6880 hx        1 898      0.106033
     50 H93C        1.6930  -11.4090   -7.0660 hx        1 898      0.106033
     51 H71C        0.5600   -7.5260   -5.7280 hx        1 898      0.106033
     52 H72C       -0.4760   -8.4440   -6.9360 hx        1 898      0.106033
     53 H73C       -0.4200   -8.9790   -5.1840 hx        1 898      0.106033
     54 H121        6.7300   -1.9950   -2.3040 hn        1 898      0.403300
     55 H31         1.8000   -9.0600   -7.1760 hn        1 898      0.446800
@<TRIPOS>BOND
     1    1    2 1   
     2    2    3 2   
     3    2    5 1   
     4    3    4 1   
     5    3   31 1   
     6    4    6 2   
     7    4   32 1   
     8    5    6 1   
     9    6    7 1   
    10    7    8 2   
    11    7   33 1   
    12    8    9 1   
    13    8   34 1   
    14    9   10 1   
    15    9   11 1   
    16   12   13 1   
    17   12   35 1   
    18   12   54 1   
    19   13   14 1   
    20   13   16 1   
    21   13   36 1   
    22   14   15 1   
    23   14   37 1   
    24   14   38 1   
    25   15   18 1   
    26   15   39 1   
    27   15   40 1   
    28   16   17 2   
    29   16   18 1   
    30   18   19 1   
    31   19   20 ar  
    32   19   22 ar  
    33   20   21 1   
    34   20   25 ar  
    35   22   23 ar  
    36   22   41 1   
    37   23   24 ar  
    38   23   43 1   
    39   24   25 ar  
    40   24   26 1   
    41   25   42 1   
    42   26   27 1   
    43   26   28 1   
    44   26   44 1   
    45   27   45 1   
    46   27   46 1   
    47   27   47 1   
    48   28   29 1   
    49   28   30 1   
    50   28   55 1   
    51   29   48 1   
    52   29   49 1   
    53   29   50 1   
    54   30   51 1   
    55   30   52 1   
    56   30   53 1   
@<TRIPOS>SUBSTRUCTURE
     1 898         1 TEMP              0 ****  ****    0 ROOT
