@<TRIPOS>MOLECULE
89I
   54    57     1     0     0
SMALL
bcc


@<TRIPOS>ATOM
      1 C1          7.6650   -2.7370    7.1740 ca        1 89I      0.667900
      2 N2          6.5310   -2.7040    6.4380 nb        1 89I     -0.719000
      3 C3          6.6180   -2.0400    5.2450 ca        1 89I      0.602300
      4 C4          7.8160   -1.4250    4.8110 cp        1 89I     -0.305600
      5 C5          8.9680   -1.5520    5.6730 ca        1 89I      0.685200
      6 N6          8.8740   -2.2040    6.8800 nb        1 89I     -0.764000
      7 C8          7.9020   -0.6900    3.5570 cp        1 89I     -0.087000
      8 C9          7.1750    0.4930    3.3700 ca        1 89I     -0.079000
      9 C10         7.2550    1.2040    2.1810 ca        1 89I     -0.196500
     10 C11         8.0640    0.7450    1.1120 ca        1 89I      0.167600
     11 C12         8.8030   -0.4470    1.3150 ca        1 89I     -0.196500
     12 C13         8.7150   -1.1450    2.5120 ca        1 89I     -0.079000
     13 C18         2.0870   -2.3780    3.4170 ca        1 89I      0.456200
     14 N19         0.9580   -2.3810    2.7010 nb        1 89I     -0.716000
     15 C20         1.0010   -1.9020    1.4140 ca        1 89I      0.631200
     16 C21         2.2230   -1.4230    0.8500 ca        1 89I     -0.273300
     17 C22         3.3810   -1.4380    1.6150 ca        1 89I     -0.047000
     18 C23         3.3380   -1.9230    2.9330 ca        1 89I     -0.133300
     19 C27        -0.1300   -2.4320   -0.6650 c3        1 89I      0.149800
     20 C28        -1.3770   -2.1280   -1.5060 c3        1 89I      0.122400
     21 O29        -2.5730   -2.4520   -0.8100 os        1 89I     -0.412600
     22 C30        -2.6620   -1.7800    0.4420 c3        1 89I      0.122400
     23 C31        -1.4480   -2.0720    1.3350 c3        1 89I      0.149800
     24 N32        -0.1930   -1.7950    0.6460 nh        1 89I     -0.729300
     25 C41         5.4620   -1.9840    4.4280 cg        1 89I     -0.212000
     26 C42         4.4780   -1.9610    3.7430 ch        1 89I     -0.055000
     27 N43         8.0750    1.4080   -0.1290 nh        1 89I     -0.657000
     28 C44         7.6110    2.7720   -0.1540 c3        1 89I      0.185100
     29 C48         9.1320    1.0780   -1.0490 c3        1 89I      0.185100
     30 N52        10.1970   -1.0620    5.2640 nh        1 89I     -0.946500
     31 H1          7.5990   -3.2670    8.1490 h5        1 89I      0.053100
     32 H9          6.5270    0.8660    4.1800 ha        1 89I      0.140000
     33 H10         6.6680    2.1300    2.0850 ha        1 89I      0.136000
     34 H12         9.4550   -0.8470    0.5240 ha        1 89I      0.136000
     35 H13         9.2920   -2.0750    2.6390 ha        1 89I      0.140000
     36 H21         2.2510   -1.0250   -0.1740 ha        1 89I      0.149000
     37 H22         4.3290   -1.0690    1.1930 ha        1 89I      0.152000
     38 H311       -1.5080   -1.4120    2.2430 h1        1 89I      0.055950
     39 H312       -1.5040   -3.1470    1.6730 h1        1 89I      0.055950
     40 H301       -3.5900   -2.1920    0.9160 h1        1 89I      0.056700
     41 H302       -2.7730   -0.6770    0.2680 h1        1 89I      0.056700
     42 H281       -1.3980   -1.0480   -1.8100 h1        1 89I      0.056700
     43 H282       -1.3930   -2.7860   -2.4150 h1        1 89I      0.056700
     44 H271       -0.0310   -3.5520   -0.5650 h1        1 89I      0.055950
     45 H272        0.7710   -2.0490   -1.2180 h1        1 89I      0.055950
     46 H441        7.7760    3.2140   -1.1710 h1        1 89I      0.038700
     47 H442        8.1310    3.4170    0.6060 h1        1 89I      0.038700
     48 H443        6.5080    2.7850    0.0590 h1        1 89I      0.038700
     49 H481       10.1530    1.2020   -0.5960 h1        1 89I      0.038700
     50 H482        9.0630    1.7310   -1.9590 h1        1 89I      0.038700
     51 H483        9.0110    0.0100   -1.3760 h1        1 89I      0.038700
     52 H521       10.9210   -0.9840    5.9380 hn        1 89I      0.429800
     53 H522       10.1830   -0.3910    4.5320 hn        1 89I      0.429800
     54 H18         1.9960   -2.7720    4.4470 h4        1 89I      0.034100
@<TRIPOS>BOND
     1    1    2 ar  
     2    1    6 ar  
     3    1   31 1   
     4    2    3 ar  
     5    3    4 ar  
     6    3   25 1   
     7    4    5 ar  
     8    4    7 1   
     9    5    6 ar  
    10    5   30 1   
    11    7    8 ar  
    12    7   12 ar  
    13    8    9 ar  
    14    8   32 1   
    15    9   10 ar  
    16    9   33 1   
    17   10   11 ar  
    18   10   27 1   
    19   11   12 ar  
    20   11   34 1   
    21   12   35 1   
    22   13   14 ar  
    23   13   18 ar  
    24   13   54 1   
    25   14   15 ar  
    26   15   16 ar  
    27   15   24 1   
    28   16   17 ar  
    29   16   36 1   
    30   17   18 ar  
    31   17   37 1   
    32   18   26 1   
    33   19   20 1   
    34   19   24 1   
    35   19   44 1   
    36   19   45 1   
    37   20   21 1   
    38   20   42 1   
    39   20   43 1   
    40   21   22 1   
    41   22   23 1   
    42   22   40 1   
    43   22   41 1   
    44   23   24 1   
    45   23   38 1   
    46   23   39 1   
    47   25   26 3   
    48   27   28 1   
    49   27   29 1   
    50   28   46 1   
    51   28   47 1   
    52   28   48 1   
    53   29   49 1   
    54   29   50 1   
    55   29   51 1   
    56   30   52 1   
    57   30   53 1   
@<TRIPOS>SUBSTRUCTURE
     1 89I         1 TEMP              0 ****  ****    0 ROOT
