@<TRIPOS>MOLECULE
89I
   56    59     1     0     0
SMALL
bcc


@<TRIPOS>ATOM
      1 C1          0.0720   -0.4060   -0.1410 ca        1 89I      0.713900
      2 N2          1.4080   -0.5760   -0.0760 nb        1 89I     -0.639000
      3 C3          2.0080   -0.4080    1.1420 ca        1 89I      0.694300
      4 C4          1.2300   -0.0780    2.3130 cp        1 89I     -0.301600
      5 C5         -0.1580    0.0750    2.0950 ca        1 89I      0.519200
      6 N6         -0.7610   -0.0800    0.8890 nb        1 89I     -0.703000
      7 C8          1.8660    0.0720    3.6170 cp        1 89I     -0.017000
      8 C9          1.9970    1.3360    4.2110 ca        1 89I     -0.100500
      9 C10         2.6560    1.4870    5.4290 ca        1 89I     -0.095500
     10 C11         3.1930    0.3570    6.0730 ca        1 89I     -0.030400
     11 C12         3.0610   -0.9150    5.4900 ca        1 89I     -0.095500
     12 C13         2.4030   -1.0490    4.2690 ca        1 89I     -0.100500
     13 C18         6.4870   -1.3570   -0.2390 ca        1 89I      0.535200
     14 N19         7.7740   -1.5390   -0.4860 nb        1 89I     -0.731000
     15 C20         8.7010   -1.2070    0.4980 ca        1 89I      0.730200
     16 C21         8.2390   -0.7200    1.7800 ca        1 89I     -0.335300
     17 C22         6.8910   -0.5470    2.0010 ca        1 89I      0.004000
     18 C23         5.9570   -0.8560    0.9890 ca        1 89I     -0.282300
     19 C27        11.0160   -1.0980    1.2660 c3        1 89I      0.166800
     20 C28        12.4640   -0.9550    0.7720 c3        1 89I      0.113900
     21 O29        12.7910   -1.9300   -0.2030 os        1 89I     -0.387600
     22 C30        11.9500   -1.8180   -1.3430 c3        1 89I      0.113900
     23 C31        10.4750   -2.0300   -0.9830 c3        1 89I      0.166800
     24 N32        10.0430   -1.3180    0.2120 nh        1 89I     -0.720300
     25 C41         3.3920   -0.5570    1.2210 cg        1 89I     -0.400000
     26 C42         4.5910   -0.6890    1.1310 ch        1 89I      0.141000
     27 N43         3.9110    0.5260    7.3500 n4        1 89I     -0.553800
     28 C44         5.3440    0.1350    7.2170 c3        1 89I      0.086600
     29 C48         3.2530   -0.2310    8.4520 c3        1 89I      0.086600
     30 N52        -1.0600    0.4100    3.2230 n4        1 89I     -0.830300
     31 H1         -0.4160   -0.5410   -1.1380 h5        1 89I      0.112100
     32 H9          1.6240    2.2360    3.6910 ha        1 89I      0.179000
     33 H10         2.7570    2.5000    5.8570 ha        1 89I      0.171500
     34 H12         3.4790   -1.8160    5.9730 ha        1 89I      0.171500
     35 H13         2.3270   -2.0480    3.8030 ha        1 89I      0.179000
     36 H22         6.5380   -0.1670    2.9710 ha        1 89I      0.118000
     37 H311        9.8610   -1.6920   -1.8660 h1        1 89I      0.068450
     38 H312       10.2930   -3.1330   -0.8240 h1        1 89I      0.068450
     39 H301       12.1000   -0.8190   -1.8320 h1        1 89I      0.073700
     40 H302       12.2910   -2.6390   -2.0290 h1        1 89I      0.073700
     41 H281       12.6340    0.0750    0.3570 h1        1 89I      0.073700
     42 H282       13.1700   -1.1510    1.6220 h1        1 89I      0.073700
     43 H271       10.9640   -1.9550    1.9970 h1        1 89I      0.068450
     44 H272       10.7620   -0.1430    1.8090 h1        1 89I      0.068450
     45 H441        5.4160   -0.9580    6.9700 hx        1 89I      0.111033
     46 H442        5.8190    0.7390    6.3980 hx        1 89I      0.111033
     47 H443        5.8670    0.3360    8.1920 hx        1 89I      0.111033
     48 H481        2.1850    0.1020    8.5460 hx        1 89I      0.111033
     49 H482        3.2870   -1.3310    8.2290 hx        1 89I      0.111033
     50 H483        3.8010   -0.0260    9.4120 hx        1 89I      0.111033
     51 H521       -0.5110    0.8170    3.9860 hn        1 89I      0.475800
     52 H522       -1.5310   -0.4450    3.5450 hn        1 89I      0.475800
     53 H18         5.8040   -1.6310   -1.0690 h4        1 89I      0.045100
     54 H431        3.8810    1.5290    7.5950 hn        1 89I      0.460800
     55 H523       -1.7800    1.0830    2.9140 hn        1 89I      0.475800
     56 H21         8.9530   -0.4920    2.5840 ha        1 89I      0.153000
@<TRIPOS>BOND
     1    1    2 ar  
     2    1    6 ar  
     3    1   31 1   
     4    2    3 ar  
     5    3    4 ar  
     6    3   25 1   
     7    4    5 ar  
     8    4    7 1   
     9    5    6 ar  
    10    5   30 1   
    11    7    8 ar  
    12    7   12 ar  
    13    8    9 ar  
    14    8   32 1   
    15    9   10 ar  
    16    9   33 1   
    17   10   11 ar  
    18   10   27 1   
    19   11   12 ar  
    20   11   34 1   
    21   12   35 1   
    22   13   14 ar  
    23   13   18 ar  
    24   13   53 1   
    25   14   15 ar  
    26   15   16 ar  
    27   15   24 1   
    28   16   17 ar  
    29   16   56 1   
    30   17   18 ar  
    31   17   36 1   
    32   18   26 1   
    33   19   20 1   
    34   19   24 1   
    35   19   43 1   
    36   19   44 1   
    37   20   21 1   
    38   20   41 1   
    39   20   42 1   
    40   21   22 1   
    41   22   23 1   
    42   22   39 1   
    43   22   40 1   
    44   23   24 1   
    45   23   37 1   
    46   23   38 1   
    47   25   26 3   
    48   27   28 1   
    49   27   29 1   
    50   27   54 1   
    51   28   45 1   
    52   28   46 1   
    53   28   47 1   
    54   29   48 1   
    55   29   49 1   
    56   29   50 1   
    57   30   51 1   
    58   30   52 1   
    59   30   55 1   
@<TRIPOS>SUBSTRUCTURE
     1 89I         1 TEMP              0 ****  ****    0 ROOT
