@<TRIPOS>MOLECULE
89I
   54    57     1     0     0
SMALL
bcc


@<TRIPOS>ATOM
      1 C1         -0.2990   -0.5310    0.0230 ca        1 89I      0.669900
      2 N2          1.0020   -0.1630   -0.0200 nb        1 89I     -0.724000
      3 C3          1.6310   -0.0660    1.1910 ca        1 89I      0.604300
      4 C4          0.9610   -0.3230    2.4090 cp        1 89I     -0.312600
      5 C5         -0.4310   -0.7010    2.3280 ca        1 89I      0.698200
      6 N6         -1.0580   -0.8150    1.1070 nb        1 89I     -0.769000
      7 C8          1.6250   -0.2170    3.7020 cp        1 89I     -0.084000
      8 C9          1.9360    1.0340    4.2500 ca        1 89I     -0.080500
      9 C10         2.5620    1.1390    5.4840 ca        1 89I     -0.195500
     10 C11         2.9170   -0.0180    6.2220 ca        1 89I      0.170600
     11 C12         2.5850   -1.2780    5.6650 ca        1 89I     -0.195500
     12 C13         1.9570   -1.3660    4.4290 ca        1 89I     -0.080500
     13 C18         6.2560    0.9960    2.4090 ca        1 89I      0.454200
     14 N19         7.5470    1.3310    2.4880 nb        1 89I     -0.716000
     15 C20         8.2140    1.6350    1.3260 ca        1 89I      0.630200
     16 C21         7.5430    1.6040    0.0650 ca        1 89I     -0.272300
     17 C22         6.1980    1.2600    0.0150 ca        1 89I     -0.046000
     18 C23         5.5160    0.9460    1.2030 ca        1 89I     -0.132300
     19 C27         9.9990    3.1550    0.7050 c3        1 89I      0.149800
     20 C28        11.5240    3.2960    0.6060 c3        1 89I      0.122400
     21 O29        12.1520    3.1240    1.8700 os        1 89I     -0.413600
     22 C30        11.8230    1.8730    2.4640 c3        1 89I      0.122400
     23 C31        10.3060    1.6930    2.6120 c3        1 89I      0.149800
     24 N32         9.6120    1.9030    1.3470 nh        1 89I     -0.729300
     25 C41         3.0000    0.2960    1.2050 cg        1 89I     -0.210000
     26 C42         4.1610    0.5950    1.2000 ch        1 89I     -0.056000
     27 N43         3.6340    0.0790    7.4270 nh        1 89I     -0.659000
     28 C44         3.6490    1.3560    8.0930 c3        1 89I      0.187100
     29 C48         3.6790   -1.0860    8.2720 c3        1 89I      0.187100
     30 N52        -1.1580   -0.9070    3.4810 nv        1 89I     -0.958500
     31 H1         -0.8140   -0.6170   -0.9580 h5        1 89I      0.052100
     32 H9          1.6800    1.9490    3.6940 ha        1 89I      0.136500
     33 H10         2.7840    2.1440    5.8730 ha        1 89I      0.135500
     34 H12         2.8290   -2.2100    6.1950 ha        1 89I      0.135500
     35 H13         1.7260   -2.3590    4.0130 ha        1 89I      0.136500
     36 H21         8.0830    1.8280   -0.8650 ha        1 89I      0.149000
     37 H22         5.6690    1.2270   -0.9500 ha        1 89I      0.150000
     38 H311        9.9370    2.4020    3.4070 h1        1 89I      0.055700
     39 H312       10.1050    0.6400    2.9560 h1        1 89I      0.055700
     40 H301       12.2670    1.0410    1.8560 h1        1 89I      0.056450
     41 H302       12.3020    1.9100    3.4770 h1        1 89I      0.056450
     42 H281       11.7910    4.3420    0.3000 h1        1 89I      0.056450
     43 H282       11.9450    2.5580   -0.1270 h1        1 89I      0.056450
     44 H271        9.5950    4.0420    1.2750 h1        1 89I      0.055700
     45 H272        9.5740    3.1820   -0.3350 h1        1 89I      0.055700
     46 H441        4.1760    1.2660    9.0790 h1        1 89I      0.038867
     47 H442        2.6150    1.7580    8.2740 h1        1 89I      0.038867
     48 H443        4.2150    2.0910    7.4600 h1        1 89I      0.038867
     49 H481        4.2070   -0.8420    9.2310 h1        1 89I      0.038867
     50 H482        4.2600   -1.8930    7.7490 h1        1 89I      0.038867
     51 H483        2.6550   -1.4800    8.5160 h1        1 89I      0.038867
     52 H521       -2.0670   -1.2960    3.4240 hn        1 89I      0.437300
     53 H522       -0.6530   -1.0020    4.3290 hn        1 89I      0.437300
     54 H18         5.7700    0.7550    3.3750 h4        1 89I      0.035100
@<TRIPOS>BOND
     1    1    2 ar  
     2    1    6 ar  
     3    1   31 1   
     4    2    3 ar  
     5    3    4 ar  
     6    3   25 1   
     7    4    5 ar  
     8    4    7 1   
     9    5    6 ar  
    10    5   30 1   
    11    7    8 ar  
    12    7   12 ar  
    13    8    9 ar  
    14    8   32 1   
    15    9   10 ar  
    16    9   33 1   
    17   10   11 ar  
    18   10   27 1   
    19   11   12 ar  
    20   11   34 1   
    21   12   35 1   
    22   13   14 ar  
    23   13   18 ar  
    24   13   54 1   
    25   14   15 ar  
    26   15   16 ar  
    27   15   24 1   
    28   16   17 ar  
    29   16   36 1   
    30   17   18 ar  
    31   17   37 1   
    32   18   26 1   
    33   19   20 1   
    34   19   24 1   
    35   19   44 1   
    36   19   45 1   
    37   20   21 1   
    38   20   42 1   
    39   20   43 1   
    40   21   22 1   
    41   22   23 1   
    42   22   40 1   
    43   22   41 1   
    44   23   24 1   
    45   23   38 1   
    46   23   39 1   
    47   25   26 3   
    48   27   28 1   
    49   27   29 1   
    50   28   46 1   
    51   28   47 1   
    52   28   48 1   
    53   29   49 1   
    54   29   50 1   
    55   29   51 1   
    56   30   52 1   
    57   30   53 1   
@<TRIPOS>SUBSTRUCTURE
     1 89I         1 TEMP              0 ****  ****    0 ROOT
