@<TRIPOS>MOLECULE
89P
   58    62     1     0     0
SMALL
bcc


@<TRIPOS>ATOM
      1 C1          0.3610    0.0480    0.2660 c3        1 89P     -0.090600
      2 C2          1.8710   -0.0820    0.1990 c3        1 89P     -0.107000
      3 C3          2.4570   -0.2440    1.5900 c3        1 89P     -0.090600
      4 C4          2.2600   -1.2120   -0.6690 cc        1 89P      0.303000
      5 O5          1.8890   -2.5150   -0.2490 os        1 89P     -0.118100
      6 N6          2.3050   -3.4120   -1.1170 nc        1 89P     -0.334300
      7 C7          2.9530   -2.7870   -2.1220 cd        1 89P      0.363800
      8 C8          2.9430   -1.3400   -1.8650 cd        1 89P     -0.303900
      9 C9          3.5270   -0.3260   -2.7600 c3        1 89P      0.207700
     10 O10         3.9070    0.8070   -1.9670 os        1 89P     -0.339900
     11 C11         4.6760    1.7540   -2.6270 ca        1 89P      0.102100
     12 C12         5.2980    2.6970   -1.7910 ca        1 89P     -0.176500
     13 C13         6.0610    3.7090   -2.3580 ca        1 89P     -0.098000
     14 C14         6.2230    3.7980   -3.7510 cp        1 89P     -0.029000
     15 C15         5.5950    2.8470   -4.5660 ca        1 89P     -0.098000
     16 C16         4.8220    1.8270   -4.0160 ca        1 89P     -0.176500
     17 C17         7.0300    4.8630   -4.3380 cp        1 89P     -0.083000
     18 C18         8.2410    5.2600   -3.7120 ca        1 89P     -0.133000
     19 C19         9.0240    6.2530   -4.2420 ca        1 89P     -0.169300
     20 C20         8.6400    6.9270   -5.4460 ca        1 89P      0.411600
     21 N21         9.4470    7.9270   -5.9610 nb        1 89P     -0.666000
     22 C22         9.0590    8.5270   -7.0760 ca        1 89P      0.406800
     23 C23         7.8390    8.1850   -7.7680 ca        1 89P     -0.209300
     24 C24         7.0350    7.1990   -7.2690 ca        1 89P     -0.124000
     25 C25         7.4190    6.5260   -6.0700 ca        1 89P     -0.171300
     26 C26         6.6360    5.4960   -5.5030 ca        1 89P     -0.087000
     27 C27         9.9050    9.6570   -7.7220 c         1 89P      0.826100
     28 O28        10.7410    9.3000   -8.5890 o         1 89P     -0.801800
     29 O29         9.6390   10.8300   -7.3620 o         1 89P     -0.801800
     30 C30         3.5620   -3.4400   -3.2740 ca        1 89P     -0.117500
     31 C31         4.9220   -3.7940   -3.2620 ca        1 89P      0.045900
     32 Cl32        5.8780   -3.4920   -1.8930 cl        1 89P     -0.066900
     33 C33         5.5110   -4.4000   -4.3760 ca        1 89P     -0.131000
     34 C34         4.7430   -4.6640   -5.5080 ca        1 89P     -0.104000
     35 C35         3.3900   -4.3310   -5.5360 ca        1 89P     -0.131000
     36 C36         2.8020   -3.7240   -4.4220 ca        1 89P      0.045900
     37 Cl37        1.1510   -3.3310   -4.4790 cl        1 89P     -0.066900
     38 H1         -0.0920   -0.8790    0.6920 hc        1 89P      0.043200
     39 H1A        -0.0630    0.2170   -0.7530 hc        1 89P      0.043200
     40 H1B         0.0870    0.9140    0.9150 hc        1 89P      0.043200
     41 H2          2.3020    0.8530   -0.2710 hc        1 89P      0.095700
     42 H3          3.5710   -0.2890    1.5390 hc        1 89P      0.043200
     43 H3A         2.1620    0.6250    2.2250 hc        1 89P      0.043200
     44 H3B         2.0820   -1.1820    2.0640 hc        1 89P      0.043200
     45 H9          2.7670    0.0050   -3.5210 h1        1 89P      0.055700
     46 H9A         4.4290   -0.7440   -3.2860 h1        1 89P      0.055700
     47 H12         5.1690    2.6240   -0.7020 ha        1 89P      0.135000
     48 H13         6.5440    4.4560   -1.7090 ha        1 89P      0.140500
     49 H15         5.7190    2.9040   -5.6590 ha        1 89P      0.140500
     50 H16         4.3390    1.0960   -4.6790 ha        1 89P      0.135000
     51 H18         8.5520    4.7450   -2.7900 ha        1 89P      0.119000
     52 H19         9.9640    6.5470   -3.7490 ha        1 89P      0.143000
     53 H23         7.5960    8.7380   -8.6860 ha        1 89P      0.147000
     54 H24         6.0980    6.9070   -7.7640 ha        1 89P      0.114000
     55 H26         5.6970    5.2120   -6.0030 ha        1 89P      0.119000
     56 H33         6.5790   -4.6670   -4.3580 ha        1 89P      0.153000
     57 H34         5.2070   -5.1390   -6.3850 ha        1 89P      0.144000
     58 H35         2.7860   -4.5450   -6.4310 ha        1 89P      0.153000
@<TRIPOS>BOND
     1    1    2 1   
     2    1   38 1   
     3    1   39 1   
     4    1   40 1   
     5    2    3 1   
     6    2    4 1   
     7    2   41 1   
     8    3   42 1   
     9    3   43 1   
    10    3   44 1   
    11    4    5 1   
    12    4    8 2   
    13    5    6 1   
    14    6    7 2   
    15    7    8 1   
    16    7   30 1   
    17    8    9 1   
    18    9   10 1   
    19    9   45 1   
    20    9   46 1   
    21   10   11 1   
    22   11   12 ar  
    23   11   16 ar  
    24   12   13 ar  
    25   12   47 1   
    26   13   14 ar  
    27   13   48 1   
    28   14   15 ar  
    29   14   17 1   
    30   15   16 ar  
    31   15   49 1   
    32   16   50 1   
    33   17   18 ar  
    34   17   26 ar  
    35   18   19 ar  
    36   18   51 1   
    37   19   20 ar  
    38   19   52 1   
    39   20   21 ar  
    40   20   25 ar  
    41   21   22 ar  
    42   22   23 ar  
    43   22   27 1   
    44   23   24 ar  
    45   23   53 1   
    46   24   25 ar  
    47   24   54 1   
    48   25   26 ar  
    49   26   55 1   
    50   27   28 1   
    51   27   29 1   
    52   30   31 ar  
    53   30   36 ar  
    54   31   32 1   
    55   31   33 ar  
    56   33   34 ar  
    57   33   56 1   
    58   34   35 ar  
    59   34   57 1   
    60   35   36 ar  
    61   35   58 1   
    62   36   37 1   
@<TRIPOS>SUBSTRUCTURE
     1 89P         1 TEMP              0 ****  ****    0 ROOT
