@<TRIPOS>MOLECULE
89P
   58    51     1     0     0
SMALL
bcc


@<TRIPOS>ATOM
      1 C1         -0.6650    1.3860    5.7770 c3        1 89P     -0.208500
      2 C2         -0.0420    1.1430    4.3920 c3        1 89P     -0.052000
      3 C3          1.4100    0.6740    4.5590 c3        1 89P     -0.208500
      4 C4         -0.0690    2.4530    3.5780 c2        1 89P      0.014000
      5 O5          0.0380    3.7090    4.0850 os        1 89P     -0.061000
      6 N6          0.0590    4.6070    3.0140 n2        1 89P      0.002000
      7 C7         -0.0340    3.8940    1.8660 c2        1 89P     -0.072000
      8 C8         -0.1150    2.5520    2.2010 c1        1 89P     -0.166000
      9 C9         -0.2470    1.3810    1.2150 c2        1 89P      0.050000
     10 O10        -0.8350    1.8440    0.0060 os        1 89P     -0.223000
     11 C11        -0.8980    0.8580   -1.0190 c2        1 89P      0.058000
     12 C12         0.2740    0.3800   -1.5940 c2        1 89P     -0.198000
     13 C13         0.2230   -0.6600   -2.5170 c1        1 89P     -0.096000
     14 C14        -1.0020   -1.2230   -2.8660 c1        1 89P     -0.029000
     15 C15        -2.1750   -0.7440   -2.2890 c1        1 89P     -0.099000
     16 C16        -2.1240    0.2960   -1.3660 c1        1 89P     -0.155000
     17 C17        -1.0370   -2.3770   -3.6610 c1        1 89P     -0.083000
     18 C18        -0.5920   -3.1340   -4.7460 c1        1 89P     -0.118000
     19 C19         0.0840   -4.3330   -4.5290 c1        1 89P     -0.118000
     20 C20         0.3200   -4.7830   -3.2090 c1        1 89P      0.018000
     21 N21         0.9940   -5.9770   -2.9920 n2        1 89P     -0.140000
     22 C22         1.2240   -6.4140   -1.7140 c1        1 89P     -0.011000
     23 C23         0.7800   -5.6590   -0.6280 c2        1 89P     -0.144000
     24 C24         0.1150   -4.4790   -0.8390 c1        1 89P     -0.124000
     25 C25        -0.1190   -4.0350   -2.1370 c1        1 89P     -0.106000
     26 C26        -0.8040   -2.8200   -2.3580 c2        1 89P     -0.087000
     27 C27         2.1120   -7.3270   -0.8860 c1        1 89P      0.385000
     28 O28         3.3560   -7.1210   -0.8360 o         1 89P     -0.536000
     29 O29         1.6000   -8.2600   -0.2080 o         1 89P     -0.536000
     30 C30        -0.0090    4.4220    0.5600 c1        1 89P     -0.010000
     31 C31         1.1800    4.4270   -0.1630 c1        1 89P     -0.033000
     32 CL32        2.6150    3.6940    0.5130 cl        1 89P      0.007000
     33 C33         1.2450    5.0740   -1.3930 c1        1 89P     -0.132000
     34 C34         0.1200    5.7150   -1.9010 c1        1 89P     -0.118000
     35 C35        -1.0680    5.7110   -1.1800 c1        1 89P     -0.118000
     36 C36        -1.1340    5.0650    0.0510 c1        1 89P     -0.032000
     37 CL37       -2.6030    5.1270    0.9920 cl        1 89P      0.016000
     38 H1         -1.1690    0.5870    6.0540 hc        1 89P      0.082500
     39 H1A        -1.2710    2.1570    5.7330 hc        1 89P      0.082500
     40 H1B         0.0490    1.5660    6.4300 hc        1 89P      0.082500
     41 H2         -0.5570    0.4530    3.9180 hc        1 89P      0.136000
     42 H3          1.9220    1.3600    5.0420 hc        1 89P      0.082500
     43 H3A         1.8110    0.5280    3.6740 hc        1 89P      0.082500
     44 H3B         1.4260   -0.1680    5.0690 hc        1 89P      0.082500
     45 H9          0.6430    1.0100    1.0260 h4        1 89P      0.094500
     46 H9A        -0.8160    0.6830    1.6100 h4        1 89P      0.094500
     47 H12         1.1360    0.7830   -1.3570 ha        1 89P      0.130000
     48 H13         1.0480   -0.9750   -2.9470 ha        1 89P      0.140000
     49 H15        -3.0440   -1.1110   -2.5670 ha        1 89P      0.141000
     50 H16        -2.9420    0.5830   -0.9060 ha        1 89P      0.140000
     51 H18        -0.7440   -2.8150   -5.6630 ha        1 89P      0.139750
     52 H19         0.3970   -4.8650   -5.2920 ha        1 89P      0.139750
     53 H23         0.9450   -5.9720    0.2890 ha        1 89P      0.147000
     54 H24        -0.2180   -3.9600   -0.0760 ha        1 89P      0.115000
     55 H26        -1.1790   -2.3250   -1.6000 ha        1 89P      0.120000
     56 H33         2.0840    5.0770   -1.9030 ha        1 89P      0.152000
     57 H34         0.1660    6.1720   -2.7700 ha        1 89P      0.139750
     58 H35        -1.8630    6.1650   -1.5390 ha        1 89P      0.139750
@<TRIPOS>BOND
     1    1    2 1   
     2    1   38 1   
     3    1   39 1   
     4    1   40 1   
     5    2    3 1   
     6    2    4 1   
     7    2   41 1   
     8    3   42 1   
     9    3   43 1   
    10    3   44 1   
    11    4    5 1   
    12    4    8 1   
    13    5    6 1   
    14    6    7 1   
    15    7    8 1   
    16    7   30 1   
    17    9   10 1   
    18    9   45 1   
    19    9   46 1   
    20   10   11 1   
    21   11   12 1   
    22   11   16 1   
    23   12   13 1   
    24   12   47 1   
    25   13   48 1   
    26   14   15 1   
    27   15   49 1   
    28   16   50 1   
    29   17   26 1   
    30   18   19 1   
    31   18   51 1   
    32   19   52 1   
    33   20   21 1   
    34   20   25 1   
    35   21   22 1   
    36   22   23 1   
    37   23   24 1   
    38   23   53 1   
    39   24   54 1   
    40   25   26 1   
    41   26   55 1   
    42   27   28 1   
    43   27   29 1   
    44   30   36 1   
    45   31   32 1   
    46   31   33 1   
    47   33   56 1   
    48   34   35 1   
    49   34   57 1   
    50   35   58 1   
    51   36   37 1   
@<TRIPOS>SUBSTRUCTURE
     1 89P         1 TEMP              0 ****  ****    0 ROOT
