@<TRIPOS>MOLECULE
89P
   58    62     1     0     0
SMALL
bcc


@<TRIPOS>ATOM
      1 C1          0.3500    0.0570    0.2470 c3        1 89P     -0.090600
      2 C2          1.8620   -0.0710    0.1920 c3        1 89P     -0.107000
      3 C3          2.4380   -0.2250    1.5870 c3        1 89P     -0.090600
      4 C4          2.2580   -1.2060   -0.6670 cc        1 89P      0.303000
      5 O5          1.8860   -2.5080   -0.2420 os        1 89P     -0.118100
      6 N6          2.3090   -3.4090   -1.1020 nc        1 89P     -0.334300
      7 C7          2.9630   -2.7880   -2.1060 cd        1 89P      0.363800
      8 C8          2.9490   -1.3400   -1.8580 cd        1 89P     -0.303900
      9 C9          3.5390   -0.3310   -2.7540 c3        1 89P      0.207700
     10 O10         3.9090    0.8090   -1.9660 os        1 89P     -0.339900
     11 C11         4.6760    1.7550   -2.6280 ca        1 89P      0.102100
     12 C12         5.2820    2.7110   -1.7940 ca        1 89P     -0.176500
     13 C13         6.0430    3.7250   -2.3640 ca        1 89P     -0.098000
     14 C14         6.2170    3.8030   -3.7550 cp        1 89P     -0.029000
     15 C15         5.6050    2.8390   -4.5680 ca        1 89P     -0.098000
     16 C16         4.8350    1.8170   -4.0160 ca        1 89P     -0.176500
     17 C17         7.0210    4.8690   -4.3450 cp        1 89P     -0.083000
     18 C18         8.2220    5.2820   -3.7100 ca        1 89P     -0.133000
     19 C19         9.0020    6.2770   -4.2420 ca        1 89P     -0.169300
     20 C20         8.6240    6.9360   -5.4560 ca        1 89P      0.411600
     21 N21         9.4270    7.9380   -5.9730 nb        1 89P     -0.666000
     22 C22         9.0450    8.5250   -7.0970 ca        1 89P      0.406800
     23 C23         7.8350    8.1650   -7.7980 ca        1 89P     -0.209300
     24 C24         7.0350    7.1770   -7.2980 ca        1 89P     -0.124000
     25 C25         7.4130    6.5190   -6.0890 ca        1 89P     -0.171300
     26 C26         6.6330    5.4880   -5.5190 ca        1 89P     -0.087000
     27 C27         9.8880    9.6550   -7.7460 c         1 89P      0.826100
     28 O28        10.7370    9.2980   -8.5990 o         1 89P     -0.801800
     29 O29         9.6070   10.8290   -7.4020 o         1 89P     -0.801800
     30 C30         3.5810   -3.4470   -3.2500 ca        1 89P     -0.117500
     31 C31         4.9410   -3.7990   -3.2270 ca        1 89P      0.045900
     32 CL32        5.8870   -3.4880   -1.8530 cl        1 89P     -0.066900
     33 C33         5.5390   -4.4110   -4.3330 ca        1 89P     -0.131000
     34 C34         4.7790   -4.6830   -5.4680 ca        1 89P     -0.104000
     35 C35         3.4260   -4.3520   -5.5080 ca        1 89P     -0.131000
     36 C36         2.8290   -3.7390   -4.4010 ca        1 89P      0.045900
     37 CL37        1.1780   -3.3490   -4.4720 cl        1 89P     -0.066900
     38 H1         -0.1040   -0.8690    0.6750 hc        1 89P      0.043200
     39 H1A        -0.0660    0.2190   -0.7760 hc        1 89P      0.043200
     40 H1B         0.0710    0.9260    0.8890 hc        1 89P      0.043200
     41 H2          2.2940    0.8610   -0.2810 hc        1 89P      0.095700
     42 H3          3.5520   -0.2690    1.5450 hc        1 89P      0.043200
     43 H3A         2.1370    0.6480    2.2160 hc        1 89P      0.043200
     44 H3B         2.0600   -1.1610    2.0640 hc        1 89P      0.043200
     45 H9          2.7840   -0.0070   -3.5240 h1        1 89P      0.055700
     46 H9A         4.4460   -0.7500   -3.2690 h1        1 89P      0.055700
     47 H12         5.1440    2.6470   -0.7060 ha        1 89P      0.135000
     48 H13         6.5130    4.4810   -1.7160 ha        1 89P      0.140500
     49 H15         5.7390    2.8870   -5.6600 ha        1 89P      0.140500
     50 H16         4.3650    1.0760   -4.6770 ha        1 89P      0.135000
     51 H18         8.5280    4.7790   -2.7810 ha        1 89P      0.119000
     52 H19         9.9340    6.5840   -3.7420 ha        1 89P      0.143000
     53 H23         7.5970    8.7070   -8.7230 ha        1 89P      0.147000
     54 H24         6.1050    6.8730   -7.7980 ha        1 89P      0.114000
     55 H26         5.7020    5.1910   -6.0260 ha        1 89P      0.119000
     56 H33         6.6070   -4.6760   -4.3060 ha        1 89P      0.153000
     57 H34         5.2500   -5.1620   -6.3400 ha        1 89P      0.144000
     58 H35         2.8280   -4.5720   -6.4050 ha        1 89P      0.153000
@<TRIPOS>BOND
     1    1    2 1   
     2    1   38 1   
     3    1   39 1   
     4    1   40 1   
     5    2    3 1   
     6    2    4 1   
     7    2   41 1   
     8    3   42 1   
     9    3   43 1   
    10    3   44 1   
    11    4    5 1   
    12    4    8 2   
    13    5    6 1   
    14    6    7 2   
    15    7    8 1   
    16    7   30 1   
    17    8    9 1   
    18    9   10 1   
    19    9   45 1   
    20    9   46 1   
    21   10   11 1   
    22   11   12 ar  
    23   11   16 ar  
    24   12   13 ar  
    25   12   47 1   
    26   13   14 ar  
    27   13   48 1   
    28   14   15 ar  
    29   14   17 1   
    30   15   16 ar  
    31   15   49 1   
    32   16   50 1   
    33   17   18 ar  
    34   17   26 ar  
    35   18   19 ar  
    36   18   51 1   
    37   19   20 ar  
    38   19   52 1   
    39   20   21 ar  
    40   20   25 ar  
    41   21   22 ar  
    42   22   23 ar  
    43   22   27 1   
    44   23   24 ar  
    45   23   53 1   
    46   24   25 ar  
    47   24   54 1   
    48   25   26 ar  
    49   26   55 1   
    50   27   28 1   
    51   27   29 1   
    52   30   31 ar  
    53   30   36 ar  
    54   31   32 1   
    55   31   33 ar  
    56   33   34 ar  
    57   33   56 1   
    58   34   35 ar  
    59   34   57 1   
    60   35   36 ar  
    61   35   58 1   
    62   36   37 1   
@<TRIPOS>SUBSTRUCTURE
     1 89P         1 TEMP              0 ****  ****    0 ROOT
