@<TRIPOS>MOLECULE
89P
   58    62     1     0     0
SMALL
bcc


@<TRIPOS>ATOM
      1 C1         -4.7390    4.2270   -1.4350 c3        1 89P     -0.090600
      2 C2         -4.1880    3.4840   -0.2320 c3        1 89P     -0.107000
      3 C3         -4.5710    4.1910    1.0550 c3        1 89P     -0.090600
      4 C4         -4.6590    2.0840   -0.2210 cc        1 89P      0.303000
      5 O5         -6.0520    1.8650   -0.0660 os        1 89P     -0.118100
      6 N6         -6.3170    0.5770   -0.0730 nc        1 89P     -0.334300
      7 C7         -5.1650   -0.1100   -0.2230 cd        1 89P      0.363800
      8 C8         -4.0530    0.8450   -0.3270 cd        1 89P     -0.303900
      9 C9         -2.6440    0.4700   -0.5290 c3        1 89P      0.207700
     10 O10        -1.8190    1.4990    0.0350 os        1 89P     -0.339900
     11 C11        -0.4700    1.1890    0.1210 ca        1 89P      0.102100
     12 C12         0.2830    2.0540    0.9330 ca        1 89P     -0.176500
     13 C13         1.6520    1.8500    1.0560 ca        1 89P     -0.098000
     14 C14         2.2880    0.7920    0.3850 cp        1 89P     -0.029000
     15 C15         1.5180   -0.0590   -0.4180 ca        1 89P     -0.098000
     16 C16         0.1440    0.1310   -0.5570 ca        1 89P     -0.176500
     17 C17         3.7260    0.5830    0.5220 cp        1 89P     -0.083000
     18 C18         4.3490    0.7640    1.7860 ca        1 89P     -0.133000
     19 C19         5.6970    0.5700    1.9490 ca        1 89P     -0.169300
     20 C20         6.5220    0.1820    0.8440 ca        1 89P      0.411600
     21 N21         7.8790   -0.0070    1.0330 nb        1 89P     -0.666000
     22 C22         8.6100   -0.3650   -0.0120 ca        1 89P      0.406800
     23 C23         8.0510   -0.5630   -1.3290 ca        1 89P     -0.209300
     24 C24         6.7120   -0.3800   -1.5280 ca        1 89P     -0.124000
     25 C25         5.8900    0.0040   -0.4250 ca        1 89P     -0.171300
     26 C26         4.4980    0.2070   -0.5610 ca        1 89P     -0.087000
     27 C27        10.1390   -0.6010    0.1120 c         1 89P      0.826100
     28 O28        10.5030   -1.7760    0.3630 o         1 89P     -0.801800
     29 O29        10.8760    0.3920   -0.1040 o         1 89P     -0.801800
     30 C30        -5.0450   -1.5620   -0.2750 ca        1 89P     -0.117500
     31 C31        -4.7710   -2.3010    0.8880 ca        1 89P      0.045900
     32 CL32       -4.6010   -1.5190    2.3850 cl        1 89P     -0.066900
     33 C33        -4.6320   -3.6920    0.8340 ca        1 89P     -0.131000
     34 C34        -4.7750   -4.3540   -0.3830 ca        1 89P     -0.104000
     35 C35        -5.0580   -3.6410   -1.5460 ca        1 89P     -0.131000
     36 C36        -5.1950   -2.2500   -1.4910 ca        1 89P      0.045900
     37 CL37       -5.5440   -1.4040   -2.9220 cl        1 89P     -0.066900
     38 H1         -4.3630    5.2770   -1.4330 hc        1 89P      0.043200
     39 H1A        -4.4150    3.7320   -2.3820 hc        1 89P      0.043200
     40 H1B        -5.8560    4.2440   -1.4050 hc        1 89P      0.043200
     41 H2         -3.0600    3.4480   -0.3060 hc        1 89P      0.095700
     42 H3         -5.6810    4.2060    1.1760 hc        1 89P      0.043200
     43 H3A        -4.1220    3.6690    1.9340 hc        1 89P      0.043200
     44 H3B        -4.1960    5.2420    1.0320 hc        1 89P      0.043200
     45 H9         -2.4260   -0.5120   -0.0280 h1        1 89P      0.055700
     46 H9A        -2.4180    0.3910   -1.6290 h1        1 89P      0.055700
     47 H12        -0.2170    2.8810    1.4550 ha        1 89P      0.135000
     48 H13         2.2490    2.5300    1.6830 ha        1 89P      0.140500
     49 H15         2.0050   -0.8950   -0.9440 ha        1 89P      0.140500
     50 H16        -0.4350   -0.5490   -1.1950 ha        1 89P      0.135000
     51 H18         3.7260    1.0550    2.6450 ha        1 89P      0.119000
     52 H19         6.1670    0.7090    2.9350 ha        1 89P      0.143000
     53 H23         8.7340   -0.8590   -2.1370 ha        1 89P      0.147000
     54 H24         6.2460   -0.5190   -2.5130 ha        1 89P      0.114000
     55 H26         4.0400    0.0680   -1.5520 ha        1 89P      0.119000
     56 H33        -4.4110   -4.2600    1.7500 ha        1 89P      0.153000
     57 H34        -4.6650   -5.4490   -0.4260 ha        1 89P      0.144000
     58 H35        -5.1740   -4.1690   -2.5050 ha        1 89P      0.153000
@<TRIPOS>BOND
     1    1    2 1   
     2    1   38 1   
     3    1   39 1   
     4    1   40 1   
     5    2    3 1   
     6    2    4 1   
     7    2   41 1   
     8    3   42 1   
     9    3   43 1   
    10    3   44 1   
    11    4    5 1   
    12    4    8 2   
    13    5    6 1   
    14    6    7 2   
    15    7    8 1   
    16    7   30 1   
    17    8    9 1   
    18    9   10 1   
    19    9   45 1   
    20    9   46 1   
    21   10   11 1   
    22   11   12 ar  
    23   11   16 ar  
    24   12   13 ar  
    25   12   47 1   
    26   13   14 ar  
    27   13   48 1   
    28   14   15 ar  
    29   14   17 1   
    30   15   16 ar  
    31   15   49 1   
    32   16   50 1   
    33   17   18 ar  
    34   17   26 ar  
    35   18   19 ar  
    36   18   51 1   
    37   19   20 ar  
    38   19   52 1   
    39   20   21 ar  
    40   20   25 ar  
    41   21   22 ar  
    42   22   23 ar  
    43   22   27 1   
    44   23   24 ar  
    45   23   53 1   
    46   24   25 ar  
    47   24   54 1   
    48   25   26 ar  
    49   26   55 1   
    50   27   28 1   
    51   27   29 1   
    52   30   31 ar  
    53   30   36 ar  
    54   31   32 1   
    55   31   33 ar  
    56   33   34 ar  
    57   33   56 1   
    58   34   35 ar  
    59   34   57 1   
    60   35   36 ar  
    61   35   58 1   
    62   36   37 1   
@<TRIPOS>SUBSTRUCTURE
     1 89P         1 TEMP              0 ****  ****    0 ROOT
