@<TRIPOS>MOLECULE
8AC
   28    27     1     0     0
SMALL
bcc


@<TRIPOS>ATOM
      1 NAA         0.2120   -1.1400    0.1360 n3        1 8AC     -0.915800
      2 OAB         5.3400    0.2500    6.2630 oh        1 8AC     -0.610100
      3 OAC         5.2080   -1.6970    5.2260 o         1 8AC     -0.552000
      4 CAD         1.5720   -0.6670    0.0310 c3        1 8AC      0.159800
      5 CAE         2.2170   -0.3660    1.3820 c3        1 8AC     -0.083400
      6 CAF         3.6510    0.0770    1.1890 c3        1 8AC     -0.076400
      7 CAG         5.7370    0.8510    2.3230 c3        1 8AC     -0.081400
      8 CAH         4.3070    0.3950    2.5160 c3        1 8AC     -0.087400
      9 CAI         6.4290    1.1780    3.6300 c3        1 8AC     -0.075400
     10 CAJ         6.8540   -0.0470    4.4160 c3        1 8AC     -0.124400
     11 CAK         5.7590   -0.5930    5.2750 c         1 8AC      0.635100
     12 HNAA        4.6360   -0.1770    6.7790 ho        1 8AC      0.444000
     13 HNAB       -0.3340   -0.5410    0.7220 hn        1 8AC      0.347800
     14 HAD         1.6580    0.2620   -0.6110 h1        1 8AC      0.023200
     15 HADA        2.1670   -1.4760   -0.4830 h1        1 8AC      0.023200
     16 HAE         1.6430    0.4390    1.9110 hc        1 8AC      0.049200
     17 HAEA        2.1880   -1.2800    2.0320 hc        1 8AC      0.049200
     18 HAF         3.6830    0.9830    0.5280 hc        1 8AC      0.039200
     19 HAFA        4.2290   -0.7330    0.6690 hc        1 8AC      0.039200
     20 HAG         6.3130    0.0580    1.7760 hc        1 8AC      0.043200
     21 HAGA        5.7440    1.7690    1.6760 hc        1 8AC      0.043200
     22 HAH         4.2880   -0.5150    3.1740 hc        1 8AC      0.047700
     23 HAHA        3.7240    1.1970    3.0410 hc        1 8AC      0.047700
     24 HAI         5.7630    1.8200    4.2660 hc        1 8AC      0.055200
     25 HAIA        7.3520    1.7770    3.4020 hc        1 8AC      0.055200
     26 HAJ         7.7100    0.2230    5.0930 hc        1 8AC      0.078700
     27 HAJA        7.1930   -0.8630    3.7250 hc        1 8AC      0.078700
     28 HAA3       -0.2100   -1.1890   -0.7690 hn        1 8AC      0.347800
@<TRIPOS>BOND
     1    1    4 1   
     2    1   13 1   
     3    1   28 1   
     4    2   11 1   
     5    2   12 1   
     6    3   11 2   
     7    4    5 1   
     8    4   14 1   
     9    4   15 1   
    10    5    6 1   
    11    5   16 1   
    12    5   17 1   
    13    6    8 1   
    14    6   18 1   
    15    6   19 1   
    16    7    8 1   
    17    7    9 1   
    18    7   20 1   
    19    7   21 1   
    20    8   22 1   
    21    8   23 1   
    22    9   10 1   
    23    9   24 1   
    24    9   25 1   
    25   10   11 1   
    26   10   26 1   
    27   10   27 1   
@<TRIPOS>SUBSTRUCTURE
     1 8AC         1 TEMP              0 ****  ****    0 ROOT
