@<TRIPOS>MOLECULE
8AC
   27    26     1     0     0
SMALL
bcc


@<TRIPOS>ATOM
      1 NAA        -6.0100    0.3770   -0.0090 n3        1 8AC     -0.915800
      2 OAB         3.9920    1.0300    1.0400 o         1 8AC     -0.853300
      3 OAC         4.9810   -0.2080   -0.5320 o         1 8AC     -0.853300
      4 CAD        -4.8030   -0.4140    0.0590 c3        1 8AC      0.153800
      5 CAE        -3.5190    0.3990   -0.0910 c3        1 8AC     -0.084400
      6 CAF        -2.3100   -0.5090   -0.0260 c3        1 8AC     -0.078400
      7 CAG        -1.0220    0.2810   -0.1160 c3        1 8AC     -0.078400
      8 CAH         0.1900   -0.6230   -0.0330 c3        1 8AC     -0.078400
      9 CAI         1.4780    0.1720   -0.0720 c3        1 8AC     -0.065400
     10 CAJ         2.6930   -0.7200    0.0000 c3        1 8AC     -0.194400
     11 CAK         3.9820    0.1010    0.1800 c         1 8AC      0.907600
     12 HNAA       -6.7780   -0.1300    0.3840 hn        1 8AC      0.341300
     13 HNAB       -5.9030    1.2380    0.4900 hn        1 8AC      0.341300
     14 HAD        -4.7320   -1.0010    1.0240 h1        1 8AC      0.023200
     15 HADA       -4.8560   -1.1680   -0.7780 h1        1 8AC      0.023200
     16 HAE        -3.5270    0.9490   -1.0680 hc        1 8AC      0.043700
     17 HAEA       -3.4540    1.1670    0.7240 hc        1 8AC      0.043700
     18 HAF        -2.3250   -1.0910    0.9340 hc        1 8AC      0.035700
     19 HAFA       -2.3530   -1.2540   -0.8640 hc        1 8AC      0.035700
     20 HAG        -0.9980    0.8540   -1.0800 hc        1 8AC      0.037200
     21 HAGA       -0.9830    1.0340    0.7150 hc        1 8AC      0.037200
     22 HAH         0.1470   -1.2190    0.9160 hc        1 8AC      0.026200
     23 HAHA        0.1710   -1.3540   -0.8830 hc        1 8AC      0.026200
     24 HAI         1.5150    0.7790   -1.0140 hc        1 8AC      0.044200
     25 HAIA        1.5120    0.8950    0.7880 hc        1 8AC      0.044200
     26 HAJ         2.6060   -1.4140    0.8740 hc        1 8AC      0.018700
     27 HAJA        2.7750   -1.3420   -0.9260 hc        1 8AC      0.018700
@<TRIPOS>BOND
     1    1    4 1   
     2    1   12 1   
     3    1   13 1   
     4    2   11 1   
     5    3   11 1   
     6    4    5 1   
     7    4   14 1   
     8    4   15 1   
     9    5    6 1   
    10    5   16 1   
    11    5   17 1   
    12    6    7 1   
    13    6   18 1   
    14    6   19 1   
    15    7    8 1   
    16    7   20 1   
    17    7   21 1   
    18    8    9 1   
    19    8   22 1   
    20    8   23 1   
    21    9   10 1   
    22    9   24 1   
    23    9   25 1   
    24   10   11 1   
    25   10   26 1   
    26   10   27 1   
@<TRIPOS>SUBSTRUCTURE
     1 8AC         1 TEMP              0 ****  ****    0 ROOT
