@<TRIPOS>MOLECULE
8AC
   28    27     1     0     0
SMALL
bcc


@<TRIPOS>ATOM
      1 NAA         1.1400   -1.6760    1.5060 n8        1 8AC     -0.916800
      2 OAB         4.5460   -2.0530    4.0240 oh        1 8AC     -0.608100
      3 OAC         6.5610   -2.4320    3.1900 o         1 8AC     -0.552000
      4 CAD         1.8830   -0.6200    0.8600 c3        1 8AC      0.158800
      5 CAE         2.8220    0.1280    1.8050 c3        1 8AC     -0.088400
      6 CAF         3.6500    1.1310    1.0310 c3        1 8AC     -0.078400
      7 CAG         5.6660    1.1070    2.5620 c3        1 8AC     -0.084400
      8 CAH         4.5730    1.9390    1.9190 c3        1 8AC     -0.075400
      9 CAI         5.3510    0.7630    4.0040 c3        1 8AC     -0.079400
     10 CAJ         6.2050   -0.3810    4.5120 c3        1 8AC     -0.125400
     11 CAK         5.8440   -1.6740    3.8510 c         1 8AC      0.633100
     12 HNAA        0.7160   -1.3530    2.3530 hn        1 8AC      0.347800
     13 HNAB        0.4290   -2.0240    0.8950 hn        1 8AC      0.347800
     14 HAD         1.2090    0.1410    0.3630 h1        1 8AC      0.024200
     15 HADA        2.4950   -1.0980    0.0420 h1        1 8AC      0.024200
     16 HAE         3.4980   -0.6010    2.3280 hc        1 8AC      0.050200
     17 HAEA        2.2280    0.6580    2.5950 hc        1 8AC      0.050200
     18 HAF         4.2550    0.5940    0.2530 hc        1 8AC      0.040700
     19 HAFA        2.9660    1.8370    0.4880 hc        1 8AC      0.040700
     20 HAG         5.8180    0.1600    1.9770 hc        1 8AC      0.046200
     21 HAGA        6.6360    1.6690    2.5260 hc        1 8AC      0.046200
     22 HAH         3.9710    2.4590    2.7110 hc        1 8AC      0.040700
     23 HAHA        5.0490    2.7400    1.2910 hc        1 8AC      0.040700
     24 HAI         5.5270    1.6610    4.6520 hc        1 8AC      0.056700
     25 HAIA        4.2670    0.4830    4.1030 hc        1 8AC      0.056700
     26 HAJ         7.2920   -0.1790    4.3160 hc        1 8AC      0.077700
     27 HAJA        6.0580   -0.5020    5.6180 hc        1 8AC      0.077700
     28 HAA3        4.3770   -2.8800    3.5420 ho        1 8AC      0.449000
@<TRIPOS>BOND
     1    1    4 1   
     2    1   12 1   
     3    1   13 1   
     4    2   11 1   
     5    2   28 1   
     6    3   11 2   
     7    4    5 1   
     8    4   14 1   
     9    4   15 1   
    10    5    6 1   
    11    5   16 1   
    12    5   17 1   
    13    6    8 1   
    14    6   18 1   
    15    6   19 1   
    16    7    8 1   
    17    7    9 1   
    18    7   20 1   
    19    7   21 1   
    20    8   22 1   
    21    8   23 1   
    22    9   10 1   
    23    9   24 1   
    24    9   25 1   
    25   10   11 1   
    26   10   26 1   
    27   10   27 1   
@<TRIPOS>SUBSTRUCTURE
     1 8AC         1 TEMP              0 ****  ****    0 ROOT
