@<TRIPOS>MOLECULE
8AC
   28    27     1     0     0
SMALL
bcc


@<TRIPOS>ATOM
      1 NAA        -0.0290    0.0000   -0.0120 n4        1 8AC     -0.841600
      2 OAB         7.2070    0.0010    6.7360 o         1 8AC     -0.843300
      3 OAC         9.3200   -0.0010    6.0030 o         1 8AC     -0.843300
      4 CAD         1.4670   -0.0000    0.0360 c3        1 8AC      0.098800
      5 CAE         1.9950    0.0000    1.4630 c3        1 8AC     -0.113400
      6 CAF         3.5120   -0.0000    1.4350 c3        1 8AC     -0.079400
      7 CAG         5.5670   -0.0010    2.8590 c3        1 8AC     -0.080400
      8 CAH         4.0530    0.0000    2.8490 c3        1 8AC     -0.080400
      9 CAI         6.0800    0.0000    4.2840 c3        1 8AC     -0.062400
     10 CAJ         7.5850   -0.0010    4.3500 c3        1 8AC     -0.203400
     11 CAK         8.0720   -0.0000    5.8140 c         1 8AC      0.911600
     12 HNAA       -0.3910    0.8320    0.4650 hn        1 8AC      0.456800
     13 HNAB       -0.3540   -0.0000   -0.9820 hn        1 8AC      0.456800
     14 HAD         1.8280    0.9170   -0.5130 hx        1 8AC      0.110700
     15 HADA        1.8270   -0.9190   -0.5120 hx        1 8AC      0.110700
     16 HAE         1.6350   -0.9070    2.0170 hc        1 8AC      0.068700
     17 HAEA        1.6360    0.9090    2.0160 hc        1 8AC      0.068700
     18 HAF         3.8840   -0.9060    0.8880 hc        1 8AC      0.052700
     19 HAFA        3.8850    0.9040    0.8870 hc        1 8AC      0.052700
     20 HAG         5.9500   -0.9040    2.3170 hc        1 8AC      0.031700
     21 HAGA        5.9510    0.9020    2.3160 hc        1 8AC      0.031700
     22 HAH         3.6780   -0.9030    3.3980 hc        1 8AC      0.046700
     23 HAHA        3.6790    0.9040    3.3970 hc        1 8AC      0.046700
     24 HAI         5.6930    0.9000    4.8310 hc        1 8AC      0.049700
     25 HAIA        5.6920   -0.8990    4.8320 hc        1 8AC      0.049700
     26 HAJ         8.0010   -0.9050    3.8390 hc        1 8AC      0.022700
     27 HAJA        8.0020    0.9020    3.8380 hc        1 8AC      0.022700
     28 HAA3       -0.3910   -0.8310    0.4660 hn        1 8AC      0.456800
@<TRIPOS>BOND
     1    1    4 1   
     2    1   12 1   
     3    1   13 1   
     4    1   28 1   
     5    2   11 1   
     6    3   11 1   
     7    4    5 1   
     8    4   14 1   
     9    4   15 1   
    10    5    6 1   
    11    5   16 1   
    12    5   17 1   
    13    6    8 1   
    14    6   18 1   
    15    6   19 1   
    16    7    8 1   
    17    7    9 1   
    18    7   20 1   
    19    7   21 1   
    20    8   22 1   
    21    8   23 1   
    22    9   10 1   
    23    9   24 1   
    24    9   25 1   
    25   10   11 1   
    26   10   26 1   
    27   10   27 1   
@<TRIPOS>SUBSTRUCTURE
     1 8AC         1 TEMP              0 ****  ****    0 ROOT
