@<TRIPOS>MOLECULE
8AC
   27    26     1     0     0
SMALL
bcc


@<TRIPOS>ATOM
      1 NAA        -4.1980   -0.0050   -2.5140 n3        1 8AC     -0.915800
      2 OAB         4.0140   -1.1010    3.7620 o         1 8AC     -0.853300
      3 OAC         3.9730    1.0780    3.8080 o         1 8AC     -0.853300
      4 CAD        -2.7720   -0.0050   -2.5140 c3        1 8AC      0.153800
      5 CAE        -2.2680   -0.0050   -1.0870 c3        1 8AC     -0.084400
      6 CAF        -0.7550   -0.0010   -1.0870 c3        1 8AC     -0.078400
      7 CAG        -0.2510   -0.0050    0.3390 c3        1 8AC     -0.078400
      8 CAH         1.2620    0.0110    0.3390 c3        1 8AC     -0.078400
      9 CAI         1.7660   -0.0030    1.7650 c3        1 8AC     -0.065400
     10 CAJ         3.2790    0.0170    1.7650 c3        1 8AC     -0.194400
     11 CAK         3.7830   -0.0030    3.1920 c         1 8AC      0.907600
     12 HNAA       -4.5020   -0.7500   -2.9430 hn        1 8AC      0.341300
     13 HNAB       -4.5020    0.7390   -2.9440 hn        1 8AC      0.341300
     14 HAD        -2.4470    0.7920   -2.9740 h1        1 8AC      0.023700
     15 HADA       -2.4470   -0.8020   -2.9740 h1        1 8AC      0.023700
     16 HAE        -2.5960    0.7910   -0.6270 hc        1 8AC      0.043700
     17 HAEA       -2.5910   -0.8030   -0.6280 hc        1 8AC      0.043700
     18 HAF        -0.4280   -0.7960   -1.5500 hc        1 8AC      0.035200
     19 HAFA       -0.4320    0.7980   -1.5450 hc        1 8AC      0.035200
     20 HAG        -0.5680   -0.8080    0.7940 hc        1 8AC      0.037200
     21 HAGA       -0.5850    0.7850    0.8040 hc        1 8AC      0.037200
     22 HAH         1.5790    0.8180   -0.1100 hc        1 8AC      0.026200
     23 HAHA        1.5960   -0.7750   -0.1320 hc        1 8AC      0.026200
     24 HAI         1.4520   -0.8120    2.2130 hc        1 8AC      0.043700
     25 HAIA        1.4300    0.7820    2.2370 hc        1 8AC      0.043700
     26 HAJ         3.6150   -0.7660    1.2900 hc        1 8AC      0.018700
     27 HAJA        3.5930    0.8270    1.3210 hc        1 8AC      0.018700
@<TRIPOS>BOND
     1    1    4 1   
     2    1   12 1   
     3    1   13 1   
     4    2   11 1   
     5    3   11 1   
     6    4    5 1   
     7    4   14 1   
     8    4   15 1   
     9    5    6 1   
    10    5   16 1   
    11    5   17 1   
    12    6    7 1   
    13    6   18 1   
    14    6   19 1   
    15    7    8 1   
    16    7   20 1   
    17    7   21 1   
    18    8    9 1   
    19    8   22 1   
    20    8   23 1   
    21    9   10 1   
    22    9   24 1   
    23    9   25 1   
    24   10   11 1   
    25   10   26 1   
    26   10   27 1   
@<TRIPOS>SUBSTRUCTURE
     1 8AC         1 TEMP              0 ****  ****    0 ROOT
