@<TRIPOS>MOLECULE
8AD
   51    53     1     0     0
SMALL
bcc


@<TRIPOS>ATOM
      1 C1          0.5640   -0.8950   -0.6100 ca        1 8AD      0.026000
      2 C2          1.8970   -0.6560   -0.3410 ca        1 8AD     -0.203000
      3 C3          2.2810   -0.1510    0.9060 ca        1 8AD      0.054000
      4 C4          1.3360    0.1090    1.9010 ca        1 8AD     -0.324900
      5 C5         -3.2430    0.2100    3.4210 ca        1 8AD     -0.233300
      6 C6         -4.5860    0.0090    3.2300 ca        1 8AD     -0.048000
      7 C7         -5.0700   -0.4890    1.9980 ca        1 8AD     -0.138000
      8 C8         -4.1960   -0.7770    0.9790 ca        1 8AD     -0.070000
      9 C9         -1.8430   -0.8780    0.0860 ca        1 8AD      0.340600
     10 N10        -0.9730    0.1310    2.6100 nb        1 8AD     -0.877000
     11 C11        -0.4420   -0.6430    0.3500 ca        1 8AD     -0.283300
     12 C12        -0.0710   -0.1310    1.6470 ca        1 8AD      0.549600
     13 C13        -2.7950   -0.5850    1.1320 ca        1 8AD     -0.243300
     14 C14        -2.3030   -0.0810    2.3770 ca        1 8AD      0.517600
     15 N9         -2.2560   -1.3580   -1.1070 nh        1 8AD     -0.808200
     16 CD1         1.8770    0.6460    3.1390 c         1 8AD      0.588700
     17 OD1         3.0270    1.0380    3.3340 o         1 8AD     -0.485100
     18 ND1         0.9750    0.7190    4.3600 n4        1 8AD     -0.694800
     19 ND2         0.8470    4.1310    9.6680 n4        1 8AD     -0.679400
     20 CD2         1.2490    1.9150    5.1930 c3        1 8AD      0.104800
     21 CD3         0.5960    1.8600    6.5720 c3        1 8AD     -0.099400
     22 CD4         1.0210    3.0810    7.3690 c3        1 8AD     -0.104400
     23 CD5         0.3980    3.0220    8.7600 c3        1 8AD      0.103800
     24 CD7         0.5760    3.7810   11.0900 c3        1 8AD      0.080100
     25 CD8         0.1970    5.4230    9.3190 c3        1 8AD      0.080100
     26 H1          0.3160   -1.2930   -1.6090 ha        1 8AD      0.149000
     27 H2          2.6670   -0.8580   -1.1040 ha        1 8AD      0.177000
     28 H3          3.3520    0.0460    1.1040 ha        1 8AD      0.175000
     29 H5         -2.8710    0.5980    4.3800 ha        1 8AD      0.128000
     30 H6         -5.3050    0.2330    4.0350 ha        1 8AD      0.155000
     31 H7         -6.1530   -0.6420    1.8680 ha        1 8AD      0.165000
     32 H8         -4.6160   -1.1630    0.0360 ha        1 8AD      0.141000
     33 H9A        -3.2190   -1.5200   -1.2890 hn        1 8AD      0.460800
     34 H9B        -1.6140   -1.5640   -1.8350 hn        1 8AD      0.460800
     35 HD1         1.1310   -0.1300    4.9090 hn        1 8AD      0.481300
     36 HD21        0.8770    2.8150    4.6250 hx        1 8AD      0.112200
     37 HD22        2.3700    2.0140    5.3110 hx        1 8AD      0.112200
     38 HD31       -0.5220    1.8390    6.4720 hc        1 8AD      0.073200
     39 HD32        0.9070    0.9280    7.1150 hc        1 8AD      0.073200
     40 HD41        2.1420    3.1070    7.4420 hc        1 8AD      0.077700
     41 HD42        0.6930    4.0110    6.8310 hc        1 8AD      0.077700
     42 HD51       -0.7260    3.0730    8.6850 hx        1 8AD      0.109700
     43 HD52        0.6780    2.0460    9.2540 hx        1 8AD      0.109700
     44 HD71        0.9000    4.6340   11.7480 hx        1 8AD      0.112200
     45 HD72        1.1510    2.8570   11.3670 hx        1 8AD      0.112200
     46 HD73       -0.5230    3.5990   11.2300 hx        1 8AD      0.112200
     47 HD81        0.4150    5.6750    8.2470 hx        1 8AD      0.112200
     48 HD82        0.6040    6.2340    9.9840 hx        1 8AD      0.112200
     49 HD83       -0.9120    5.3420    9.4710 hx        1 8AD      0.112200
     50 HD13       -0.0330    0.7090    4.0200 hn        1 8AD      0.481300
     51 HD23        1.8650    4.2450    9.5540 hn        1 8AD      0.454800
@<TRIPOS>BOND
     1    1    2 ar  
     2    1   11 ar  
     3    1   26 1   
     4    2    3 ar  
     5    2   27 1   
     6    3    4 ar  
     7    3   28 1   
     8    4   12 ar  
     9    4   16 1   
    10    5    6 ar  
    11    5   14 ar  
    12    5   29 1   
    13    6    7 ar  
    14    6   30 1   
    15    7    8 ar  
    16    7   31 1   
    17    8   13 ar  
    18    8   32 1   
    19    9   11 ar  
    20    9   13 ar  
    21    9   15 1   
    22   10   12 ar  
    23   10   14 ar  
    24   11   12 ar  
    25   13   14 ar  
    26   15   33 1   
    27   15   34 1   
    28   16   17 2   
    29   16   18 1   
    30   18   20 1   
    31   18   35 1   
    32   18   50 1   
    33   19   23 1   
    34   19   24 1   
    35   19   25 1   
    36   19   51 1   
    37   20   21 1   
    38   20   36 1   
    39   20   37 1   
    40   21   22 1   
    41   21   38 1   
    42   21   39 1   
    43   22   23 1   
    44   22   40 1   
    45   22   41 1   
    46   23   42 1   
    47   23   43 1   
    48   24   44 1   
    49   24   45 1   
    50   24   46 1   
    51   25   47 1   
    52   25   48 1   
    53   25   49 1   
@<TRIPOS>SUBSTRUCTURE
     1 8AD         1 TEMP              0 ****  ****    0 ROOT
