@<TRIPOS>MOLECULE
8AD
   52    54     1     0     0
SMALL
bcc


@<TRIPOS>ATOM
      1 C1          0.8090   -1.3720    0.1150 ca        1 8AD     -0.089000
      2 C2          1.9760   -0.9830    0.7110 ca        1 8AD     -0.088000
      3 C3          1.9550   -0.2680    1.9370 ca        1 8AD      0.022000
      4 C4          0.7570    0.0780    2.5280 ca        1 8AD     -0.253900
      5 C5         -4.0740   -0.0360    2.6840 ca        1 8AD     -0.178300
      6 C6         -5.2760   -0.4540    2.1960 ca        1 8AD     -0.064000
      7 C7         -5.3450   -1.2460    1.0100 ca        1 8AD     -0.016000
      8 C8         -4.2060   -1.5910    0.3360 ca        1 8AD     -0.183000
      9 C9         -1.7040   -1.4640    0.1450 ca        1 8AD      0.007600
     10 N10        -1.6650    0.0310    2.5300 nb        1 8AD     -0.710000
     11 C11        -0.4590   -1.0610    0.6960 ca        1 8AD     -0.117300
     12 C12        -0.5030   -0.3040    1.9230 ca        1 8AD      0.447600
     13 C13        -2.9210   -1.1700    0.7940 ca        1 8AD     -0.083300
     14 C14        -2.8400   -0.3810    2.0120 ca        1 8AD      0.464600
     15 N9         -1.7300   -2.2080   -1.1160 n4        1 8AD     -0.714000
     16 CD1         0.8500    0.7460    3.8380 c         1 8AD      0.581700
     17 OD1         1.6900    0.5300    4.7010 o         1 8AD     -0.414100
     18 ND1        -0.1470    1.8430    4.1530 n4        1 8AD     -0.662800
     19 ND2         1.6490    4.4500    9.6500 n4        1 8AD     -0.678400
     20 CD2         0.4010    2.9240    5.0310 c3        1 8AD      0.111800
     21 CD3         0.3940    2.5880    6.5210 c3        1 8AD     -0.104400
     22 CD4         0.9770    3.7540    7.3030 c3        1 8AD     -0.103400
     23 CD5         1.0060    3.4030    8.7900 c3        1 8AD      0.103800
     24 CD7         2.0450    3.8690   10.9660 c3        1 8AD      0.079100
     25 CD8         0.7560    5.6230    9.8530 c3        1 8AD      0.079100
     26 H1          0.8790   -1.9510   -0.8220 ha        1 8AD      0.153000
     27 H2          2.9570   -1.2300    0.2600 ha        1 8AD      0.202000
     28 H3          2.9200   -0.0060    2.4140 ha        1 8AD      0.192000
     29 H5         -4.0220    0.5650    3.6080 ha        1 8AD      0.165000
     30 H6         -6.2190   -0.1920    2.7110 ha        1 8AD      0.193000
     31 H7         -6.3370   -1.5790    0.6520 ha        1 8AD      0.194000
     32 H8         -4.3090   -2.2230   -0.5610 ha        1 8AD      0.145000
     33 H9A        -0.9410   -1.9330   -1.7150 hn        1 8AD      0.480467
     34 H9B        -1.6750   -3.2190   -0.9240 hn        1 8AD      0.480467
     35 HD1        -0.9630    1.4090    4.6090 hn        1 8AD      0.475300
     36 HD21       -0.2260    3.8470    4.8490 hx        1 8AD      0.114200
     37 HD22        1.4590    3.1330    4.6960 hx        1 8AD      0.114200
     38 HD31       -0.6540    2.3850    6.8710 hc        1 8AD      0.086200
     39 HD32        1.0060    1.6630    6.7080 hc        1 8AD      0.086200
     40 HD41        0.3550    4.6730    7.1310 hc        1 8AD      0.078200
     41 HD42        2.0160    3.9700    6.9340 hc        1 8AD      0.078200
     42 HD51       -0.0440    3.2440    9.1710 hx        1 8AD      0.112200
     43 HD52        1.5850    2.4430    8.9330 hx        1 8AD      0.112200
     44 HD71        1.1370    3.4590   11.4860 hx        1 8AD      0.115033
     45 HD72        2.5050    4.6770   11.6010 hx        1 8AD      0.115033
     46 HD73        2.7950    3.0490   10.8060 hx        1 8AD      0.115033
     47 HD81        0.4680    6.0530    8.8580 hx        1 8AD      0.115033
     48 HD82       -0.1650    5.3070   10.4130 hx        1 8AD      0.115033
     49 HD83        1.3020    6.4040   10.4540 hx        1 8AD      0.115033
     50 H93        -2.6060   -2.0110   -1.6240 hn        1 8AD      0.480467
     51 HD13       -0.4620    2.2640    3.2690 hn        1 8AD      0.475300
     52 HD23        2.5040    4.7770    9.1770 hn        1 8AD      0.454800
@<TRIPOS>BOND
     1    1    2 ar  
     2    1   11 ar  
     3    1   26 1   
     4    2    3 ar  
     5    2   27 1   
     6    3    4 ar  
     7    3   28 1   
     8    4   12 ar  
     9    4   16 1   
    10    5    6 ar  
    11    5   14 ar  
    12    5   29 1   
    13    6    7 ar  
    14    6   30 1   
    15    7    8 ar  
    16    7   31 1   
    17    8   13 ar  
    18    8   32 1   
    19    9   11 ar  
    20    9   13 ar  
    21    9   15 1   
    22   10   12 ar  
    23   10   14 ar  
    24   11   12 ar  
    25   13   14 ar  
    26   15   33 1   
    27   15   34 1   
    28   15   50 1   
    29   16   17 2   
    30   16   18 1   
    31   18   20 1   
    32   18   35 1   
    33   18   51 1   
    34   19   23 1   
    35   19   24 1   
    36   19   25 1   
    37   19   52 1   
    38   20   21 1   
    39   20   36 1   
    40   20   37 1   
    41   21   22 1   
    42   21   38 1   
    43   21   39 1   
    44   22   23 1   
    45   22   40 1   
    46   22   41 1   
    47   23   42 1   
    48   23   43 1   
    49   24   44 1   
    50   24   45 1   
    51   24   46 1   
    52   25   47 1   
    53   25   48 1   
    54   25   49 1   
@<TRIPOS>SUBSTRUCTURE
     1 8AD         1 TEMP              0 ****  ****    0 ROOT
