@<TRIPOS>MOLECULE
8AD
   49    51     1     0     0
SMALL
bcc


@<TRIPOS>ATOM
      1 C1         -1.1900   -1.4640   -2.1090 ca        1 8AD     -0.078000
      2 C2         -0.0140   -1.6550   -2.7790 ca        1 8AD     -0.161000
      3 C3          1.0050   -2.4690   -2.2190 ca        1 8AD     -0.047000
      4 C4          0.8380   -3.0500   -0.9910 ca        1 8AD     -0.202900
      5 C5         -1.7930   -3.9360    2.9470 ca        1 8AD     -0.192300
      6 C6         -2.9340   -3.8110    3.6810 ca        1 8AD     -0.103000
      7 C7         -4.0320   -3.0550    3.1890 ca        1 8AD     -0.150000
      8 C8         -3.9570   -2.4420    1.9700 ca        1 8AD     -0.093000
      9 C9         -2.6590   -1.9150   -0.1210 ca        1 8AD      0.265600
     10 N10        -0.5170   -3.4610    0.9640 nb        1 8AD     -0.736000
     11 C11        -1.4280   -2.0670   -0.8390 ca        1 8AD     -0.235300
     12 C12        -0.3900   -2.8670   -0.2440 ca        1 8AD      0.485600
     13 C13        -2.7860   -2.5410    1.1590 ca        1 8AD     -0.231300
     14 C14        -1.6730   -3.3030    1.6510 ca        1 8AD      0.472600
     15 N9         -3.6790   -1.1500   -0.6320 nh        1 8AD     -0.850200
     16 CD1         1.9290   -3.9300   -0.4660 c         1 8AD      0.675700
     17 OD1         2.3870   -4.8540   -1.1690 o         1 8AD     -0.608100
     18 ND1         2.4820   -3.6050    0.7620 n         1 8AD     -0.530900
     19 ND2         1.3850   -5.1900    5.9800 n3        1 8AD     -0.739600
     20 CD2         3.3850   -4.5060    1.4290 c3        1 8AD      0.079000
     21 CD3         2.7510   -5.4570    2.4440 c3        1 8AD     -0.108400
     22 CD4         2.2250   -4.7310    3.6620 c3        1 8AD     -0.085400
     23 CD5         1.6480   -5.7380    4.6560 c3        1 8AD      0.169800
     24 CD7         1.0220   -6.2180    6.9300 c3        1 8AD      0.156600
     25 CD8         0.4620   -4.0800    5.9760 c3        1 8AD      0.156600
     26 H1         -1.9530   -0.8210   -2.5730 ha        1 8AD      0.121000
     27 H2          0.1620   -1.1880   -3.7590 ha        1 8AD      0.140000
     28 H3          1.9340   -2.6390   -2.7890 ha        1 8AD      0.155000
     29 H5         -0.9350   -4.5190    3.3230 ha        1 8AD      0.153000
     30 H6         -3.0200   -4.2920    4.6680 ha        1 8AD      0.136000
     31 H7         -4.9380   -2.9710    3.8070 ha        1 8AD      0.135000
     32 H8         -4.8230   -1.8570    1.6260 ha        1 8AD      0.119000
     33 H9A        -3.6500   -0.8790   -1.5840 hn        1 8AD      0.428300
     34 H9B        -4.5720   -1.1940   -0.2080 hn        1 8AD      0.428300
     35 HD1         1.9550   -3.0080    1.3590 hn        1 8AD      0.311500
     36 HD21        3.9140   -5.1230    0.6460 h1        1 8AD      0.061700
     37 HD22        4.1540   -3.8720    1.9580 h1        1 8AD      0.061700
     38 HD31        1.9230   -6.0390    1.9600 hc        1 8AD      0.052200
     39 HD32        3.5400   -6.1920    2.7550 hc        1 8AD      0.052200
     40 HD41        3.0520   -4.1430    4.1390 hc        1 8AD      0.049200
     41 HD42        1.4240   -4.0070    3.3570 hc        1 8AD      0.049200
     42 HD51        0.7140   -6.1850    4.2020 h1        1 8AD      0.029700
     43 HD52        2.3920   -6.5760    4.7880 h1        1 8AD      0.029700
     44 HD71        1.8380   -6.9860    6.9680 h1        1 8AD      0.029700
     45 HD72        0.0570   -6.7380    6.6760 h1        1 8AD      0.029700
     46 HD73        0.9190   -5.7540    7.9460 h1        1 8AD      0.029700
     47 HD81        0.8990   -3.2470    5.3650 h1        1 8AD      0.029700
     48 HD82        0.3210   -3.7150    7.0270 h1        1 8AD      0.029700
     49 HD83       -0.5490   -4.3400    5.5520 h1        1 8AD      0.029700
@<TRIPOS>BOND
     1    1    2 ar  
     2    1   11 ar  
     3    1   26 1   
     4    2    3 ar  
     5    2   27 1   
     6    3    4 ar  
     7    3   28 1   
     8    4   12 ar  
     9    4   16 1   
    10    5    6 ar  
    11    5   14 ar  
    12    5   29 1   
    13    6    7 ar  
    14    6   30 1   
    15    7    8 ar  
    16    7   31 1   
    17    8   13 ar  
    18    8   32 1   
    19    9   11 ar  
    20    9   13 ar  
    21    9   15 1   
    22   10   12 ar  
    23   10   14 ar  
    24   11   12 ar  
    25   13   14 ar  
    26   15   33 1   
    27   15   34 1   
    28   16   17 2   
    29   16   18 1   
    30   18   20 1   
    31   18   35 1   
    32   19   23 1   
    33   19   24 1   
    34   19   25 1   
    35   20   21 1   
    36   20   36 1   
    37   20   37 1   
    38   21   22 1   
    39   21   38 1   
    40   21   39 1   
    41   22   23 1   
    42   22   40 1   
    43   22   41 1   
    44   23   42 1   
    45   23   43 1   
    46   24   44 1   
    47   24   45 1   
    48   24   46 1   
    49   25   47 1   
    50   25   48 1   
    51   25   49 1   
@<TRIPOS>SUBSTRUCTURE
     1 8AD         1 TEMP              0 ****  ****    0 ROOT
