@<TRIPOS>MOLECULE
8AD
   49    43     1     0     0
SMALL
bcc


@<TRIPOS>ATOM
      1 C1         -3.0620    1.1720   -0.7720 c1        1 8AD     -0.123500
      2 C2         -2.9500    1.5400    0.5920 c1        1 8AD     -0.123500
      3 C3         -1.7220    1.9660    1.1040 c1        1 8AD     -0.049000
      4 C4         -0.6170    2.0280    0.2820 c1        1 8AD     -0.116000
      5 C5          1.3960    1.4950   -4.1060 c1        1 8AD     -0.122000
      6 C6          1.2960    1.1680   -5.4450 c1        1 8AD     -0.123500
      7 C7          0.0720    0.7400   -5.9720 c1        1 8AD     -0.123500
      8 C8         -1.0550    0.6430   -5.1380 c1        1 8AD     -0.095000
      9 C9         -2.0570    0.8910   -2.9560 c1        1 8AD      0.181000
     10 N10         0.3710    1.7380   -1.9230 n1        1 8AD     -0.205000
     11 C11        -1.9440    1.2340   -1.6070 c1        1 8AD     -0.039000
     12 C12        -0.7280    1.6550   -1.1000 c1        1 8AD     -0.039000
     13 C13        -0.9510    0.9750   -3.7820 c1        1 8AD     -0.165000
     14 C14         0.2640    1.3990   -3.2650 c1        1 8AD      0.078000
     15 N9         -3.3920    0.5350   -3.4240 n3        1 8AD     -0.357000
     16 CD1         0.5960    2.0770    1.2590 c2        1 8AD      0.357000
     17 OD1         1.7800    2.1380    0.8010 o         1 8AD     -0.374000
     18 ND1         0.3770    2.0590    2.6710 n         1 8AD     -0.353000
     19 ND2         1.9940   -2.8560    2.3850 n3        1 8AD     -0.265000
     20 CD2         1.0070    1.0570    3.4760 c3        1 8AD     -0.033000
     21 CD3         0.1170   -0.1730    3.5420 c3        1 8AD     -0.175000
     22 CD4         0.9250   -1.3540    3.9860 c3        1 8AD     -0.160000
     23 CD5         0.7360   -2.5260    2.9850 c3        1 8AD     -0.063000
     24 CD7         2.2570   -1.9660    1.2580 c3        1 8AD     -0.119500
     25 CD8         1.9590   -4.2680    1.9070 c3        1 8AD     -0.119500
     26 H1         -3.9170    0.8750   -1.1260 ha        1 8AD      0.132750
     27 H2         -3.7370    1.4960    1.1800 ha        1 8AD      0.132750
     28 H3         -1.6460    2.2210    2.0540 ha        1 8AD      0.155000
     29 H5          2.2390    1.7920   -3.7430 ha        1 8AD      0.152000
     30 H6          2.0820    1.2360   -6.0260 ha        1 8AD      0.132750
     31 H7          0.0020    0.5110   -6.9110 ha        1 8AD      0.132750
     32 H8         -1.9330    0.3350   -5.5140 ha        1 8AD      0.119000
     33 H9A        -4.0680    1.1730   -3.4290 hn        1 8AD      0.222500
     34 H9B        -3.5530   -0.3230   -3.7750 hn        1 8AD      0.222500
     35 HD1        -0.1090    2.7790    3.0920 hn        1 8AD      0.230000
     36 HD21        1.1520    1.4130    4.3970 h1        1 8AD      0.093500
     37 HD22        1.8870    0.8100    3.0720 h1        1 8AD      0.093500
     38 HD31       -0.2560   -0.3470    2.6700 hc        1 8AD      0.084000
     39 HD32       -0.6230   -0.0130    4.1960 hc        1 8AD      0.084000
     40 HD41        1.9050   -1.0980    4.0250 hc        1 8AD      0.092500
     41 HD42        0.6270   -1.6350    4.8720 hc        1 8AD      0.092500
     42 HD51        0.1030   -2.2670    2.2940 h1        1 8AD      0.068000
     43 HD52        0.3990   -3.2950    3.4580 h1        1 8AD      0.068000
     44 HD71        1.4980   -1.9990    0.6230 h1        1 8AD      0.069833
     45 HD72        2.3760   -1.0170    1.5950 h1        1 8AD      0.069833
     46 HD73        3.0630   -2.2530    0.8080 h1        1 8AD      0.069833
     47 HD81        1.0620   -4.4640    1.5070 h1        1 8AD      0.069833
     48 HD82        2.6560   -4.4010    1.2310 h1        1 8AD      0.069833
     49 HD83        2.1230   -4.8960    2.6920 h1        1 8AD      0.069833
@<TRIPOS>BOND
     1    1    2 1   
     2    1   26 1   
     3    2   27 1   
     4    3    4 1   
     5    3   28 1   
     6    4   16 1   
     7    5   14 1   
     8    5   29 1   
     9    6    7 1   
    10    6   30 1   
    11    7   31 1   
    12    8   13 1   
    13    8   32 1   
    14    9   13 1   
    15    9   15 1   
    16   10   14 1   
    17   11   12 1   
    18   15   33 1   
    19   15   34 1   
    20   16   17 1   
    21   16   18 1   
    22   18   20 1   
    23   18   35 1   
    24   19   23 1   
    25   19   24 1   
    26   19   25 1   
    27   20   21 1   
    28   20   36 1   
    29   20   37 1   
    30   21   22 1   
    31   21   38 1   
    32   21   39 1   
    33   22   23 1   
    34   22   40 1   
    35   22   41 1   
    36   23   42 1   
    37   23   43 1   
    38   24   44 1   
    39   24   45 1   
    40   24   46 1   
    41   25   47 1   
    42   25   48 1   
    43   25   49 1   
@<TRIPOS>SUBSTRUCTURE
     1 8AD         1 TEMP              0 ****  ****    0 ROOT
