@<TRIPOS>MOLECULE
8AD
   51    53     1     0     0
SMALL
bcc


@<TRIPOS>ATOM
      1 C1          0.6380   -0.8540   -0.6150 ca        1 8AD      0.026000
      2 C2          1.9710   -0.6860   -0.2950 ca        1 8AD     -0.203000
      3 C3          2.3340   -0.2210    0.9730 ca        1 8AD      0.054000
      4 C4          1.3690    0.0700    1.9380 ca        1 8AD     -0.324900
      5 C5         -3.2510    0.3790    3.2980 ca        1 8AD     -0.233300
      6 C6         -4.5950    0.2490    3.0560 ca        1 8AD     -0.048000
      7 C7         -5.0580   -0.2040    1.7990 ca        1 8AD     -0.138000
      8 C8         -4.1640   -0.5200    0.8060 ca        1 8AD     -0.070000
      9 C9         -1.7890   -0.7260   -0.0040 ca        1 8AD      0.340600
     10 N10        -0.9610    0.1980    2.5660 nb        1 8AD     -0.877000
     11 C11        -0.3880   -0.5660    0.3130 ca        1 8AD     -0.283300
     12 C12        -0.0390   -0.0950    1.6310 ca        1 8AD      0.549600
     13 C13        -2.7620   -0.4020    1.0130 ca        1 8AD     -0.243300
     14 C14        -2.2900    0.0570    2.2830 ca        1 8AD      0.517600
     15 N9         -2.1820   -1.1660   -1.2190 nv        1 8AD     -0.808200
     16 CD1         1.8910    0.5600    3.2050 c         1 8AD      0.588700
     17 OD1         3.0510    0.8900    3.4470 o         1 8AD     -0.485100
     18 ND1         0.9500    0.6580    4.3940 ny        1 8AD     -0.694800
     19 ND2         0.8030    3.9810    9.7570 nx        1 8AD     -0.679400
     20 CD2         1.2540    1.8230    5.2580 c3        1 8AD      0.104800
     21 CD3         0.5490    1.7790    6.6120 c3        1 8AD     -0.099400
     22 CD4         1.0060    2.9630    7.4460 c3        1 8AD     -0.104400
     23 CD5         0.3310    2.9130    8.8130 c3        1 8AD      0.103800
     24 CD7         0.4600    3.6220   11.1620 c3        1 8AD      0.080100
     25 CD8         0.2350    5.3110    9.4090 c3        1 8AD      0.080100
     26 H1          0.4060   -1.2220   -1.6300 ha        1 8AD      0.149000
     27 H2          2.7570   -0.9140   -1.0340 ha        1 8AD      0.177000
     28 H3          3.4060   -0.0820    1.2120 ha        1 8AD      0.175000
     29 H5         -2.8960    0.7320    4.2760 ha        1 8AD      0.128000
     30 H6         -5.3310    0.4960    3.8390 ha        1 8AD      0.155000
     31 H7         -6.1430   -0.3000    1.6290 ha        1 8AD      0.165000
     32 H8         -4.5680   -0.8690   -0.1570 ha        1 8AD      0.141000
     33 H9A        -1.5250   -1.3930   -1.9280 hn        1 8AD      0.460800
     34 H9B        -3.1450   -1.2760   -1.4380 hn        1 8AD      0.460800
     35 HD1        -0.0440    0.7050    4.0180 hn        1 8AD      0.481300
     36 HD21        2.3740    1.8630    5.4180 hx        1 8AD      0.112200
     37 HD22        0.9490    2.7510    4.6940 hx        1 8AD      0.112200
     38 HD31        0.7930    0.8230    7.1480 hc        1 8AD      0.073200
     39 HD32       -0.5640    1.8180    6.4720 hc        1 8AD      0.073200
     40 HD41        2.1240    2.9290    7.5600 hc        1 8AD      0.077700
     41 HD42        0.7470    3.9170    6.9140 hc        1 8AD      0.077700
     42 HD51       -0.7860    3.0240    8.6990 hx        1 8AD      0.109700
     43 HD52        0.5420    1.9150    9.2980 hx        1 8AD      0.109700
     44 HD71        0.9760    2.6640   11.4420 hx        1 8AD      0.112200
     45 HD72        0.8040    4.4450   11.8470 hx        1 8AD      0.112200
     46 HD73       -0.6510    3.4960   11.2580 hx        1 8AD      0.112200
     47 HD81       -0.8820    5.2870    9.5190 hx        1 8AD      0.112200
     48 HD82        0.6590    6.0880   10.1040 hx        1 8AD      0.112200
     49 HD83        0.5060    5.5690    8.3510 hx        1 8AD      0.112200
     50 HD13        1.0440   -0.2080    4.9320 hn        1 8AD      0.481300
     51 HD23        1.8290    4.0420    9.6830 hn        1 8AD      0.454800
@<TRIPOS>BOND
     1    1    2 ar  
     2    1   11 ar  
     3    1   26 1   
     4    2    3 ar  
     5    2   27 1   
     6    3    4 ar  
     7    3   28 1   
     8    4   12 ar  
     9    4   16 1   
    10    5    6 ar  
    11    5   14 ar  
    12    5   29 1   
    13    6    7 ar  
    14    6   30 1   
    15    7    8 ar  
    16    7   31 1   
    17    8   13 ar  
    18    8   32 1   
    19    9   11 ar  
    20    9   13 ar  
    21    9   15 1   
    22   10   12 ar  
    23   10   14 ar  
    24   11   12 ar  
    25   13   14 ar  
    26   15   33 1   
    27   15   34 1   
    28   16   17 2   
    29   16   18 1   
    30   18   20 1   
    31   18   35 1   
    32   18   50 1   
    33   19   23 1   
    34   19   24 1   
    35   19   25 1   
    36   19   51 1   
    37   20   21 1   
    38   20   36 1   
    39   20   37 1   
    40   21   22 1   
    41   21   38 1   
    42   21   39 1   
    43   22   23 1   
    44   22   40 1   
    45   22   41 1   
    46   23   42 1   
    47   23   43 1   
    48   24   44 1   
    49   24   45 1   
    50   24   46 1   
    51   25   47 1   
    52   25   48 1   
    53   25   49 1   
@<TRIPOS>SUBSTRUCTURE
     1 8AD         1 TEMP              0 ****  ****    0 ROOT
