@<TRIPOS>MOLECULE
8AN
   36    38     1     0     0
SMALL
bcc


@<TRIPOS>ATOM
      1 O3P        -3.8320    0.7230   -1.8760 o         1 8AN     -0.920167
      2 P          -3.2920   -0.5460   -1.2810 p5        1 8AN      1.342900
      3 O1P        -4.1370   -1.7780   -1.2600 o         1 8AN     -0.920167
      4 O2P        -1.8110   -0.7470   -1.5630 o         1 8AN     -0.920167
      5 O5'        -3.2320   -0.0200    0.3730 os        1 8AN     -0.571200
      6 C5'        -2.0530   -0.1730    1.0460 c3        1 8AN      0.223400
      7 C4'        -1.2990    1.1720    1.1650 c3        1 8AN      0.068100
      8 O4'         0.0480    0.9080    1.6260 os        1 8AN     -0.429600
      9 C1'         1.0070    1.4470    0.7230 c3        1 8AN      0.218800
     10 N9          1.6900    0.3950   -0.0130 na        1 8AN     -0.275000
     11 C4          3.0610    0.1200    0.0920 ca        1 8AN      0.416800
     12 N3          4.0700    0.7490    0.7670 nb        1 8AN     -0.722000
     13 C2          5.2680    0.1450    0.6090 ca        1 8AN      0.626900
     14 N1          5.6100   -0.9620   -0.1080 nb        1 8AN     -0.801000
     15 C6          4.6090   -1.5790   -0.8150 ca        1 8AN      0.674200
     16 N6          4.8930   -2.6550   -1.6650 nh        1 8AN     -0.923500
     17 C5          3.2790   -1.0730   -0.7320 ca        1 8AN     -0.186200
     18 N7          2.0630   -1.4940   -1.2850 nc        1 8AN     -0.609100
     19 C8          1.1380   -0.6230   -0.8400 cd        1 8AN      0.475700
     20 C2'         0.2510    2.4640   -0.1970 c3        1 8AN      0.107100
     21 O2'         0.3450    3.7450    0.4000 oh        1 8AN     -0.579800
     22 C3'        -1.1980    1.9190   -0.1900 c3        1 8AN      0.123500
     23 N3'        -2.2330    2.8590   -0.5100 n3        1 8AN     -0.914800
     24 H5'        -2.2630   -0.5220    2.1000 h1        1 8AN     -0.000800
     25 H5'A       -1.3780   -0.9240    0.5460 h1        1 8AN     -0.000800
     26 H4'        -1.7580    1.8160    1.9610 h1        1 8AN      0.029700
     27 H1'         1.7720    1.9700    1.3680 h2        1 8AN      0.074700
     28 H2          6.1110    0.6180    1.1530 h5        1 8AN      0.021100
     29 HN6         5.6860   -3.2010   -1.4170 hn        1 8AN      0.401300
     30 HN6A        4.0870   -3.1890   -1.9090 hn        1 8AN      0.401300
     31 H8          0.0230   -0.6680   -1.0920 h5        1 8AN      0.220800
     32 H2'         0.6580    2.4920   -1.2400 h1        1 8AN      0.053700
     33 HO2'        1.2260    4.0750    0.1860 ho        1 8AN      0.370000
     34 H3'        -1.2380    1.1010   -1.0040 h1        1 8AN      0.165700
     35 HN3'       -2.9690    2.3550   -1.0090 hn        1 8AN      0.379800
     36 HN3A       -2.6120    3.2610    0.3240 hn        1 8AN      0.379800
@<TRIPOS>BOND
     1    1    2 1   
     2    2    3 1   
     3    2    4 1   
     4    2    5 1   
     5    5    6 1   
     6    6    7 1   
     7    6   24 1   
     8    6   25 1   
     9    7    8 1   
    10    7   22 1   
    11    7   26 1   
    12    8    9 1   
    13    9   10 1   
    14    9   20 1   
    15    9   27 1   
    16   10   11 1   
    17   10   19 1   
    18   11   12 ar  
    19   11   17 ar  
    20   12   13 ar  
    21   13   14 ar  
    22   13   28 1   
    23   14   15 ar  
    24   15   16 1   
    25   15   17 ar  
    26   16   29 1   
    27   16   30 1   
    28   17   18 1   
    29   18   19 2   
    30   19   31 1   
    31   20   21 1   
    32   20   22 1   
    33   20   32 1   
    34   21   33 1   
    35   22   23 1   
    36   22   34 1   
    37   23   35 1   
    38   23   36 1   
@<TRIPOS>SUBSTRUCTURE
     1 8AN         1 TEMP              0 ****  ****    0 ROOT
