@<TRIPOS>MOLECULE
8AN
   36    32     1     0     0
SMALL
bcc


@<TRIPOS>ATOM
      1 O3P        -0.1460    5.7790   -0.3590 o         1 8AN     -0.924000
      2 P           0.1540    4.8630    0.7740 p4        1 8AN      1.682200
      3 O1P        -0.5100    5.3670    2.0160 o         1 8AN     -0.972800
      4 O2P         1.6730    4.8040    0.9980 os        1 8AN     -1.243000
      5 O5'        -0.3950    3.3900    0.4340 os        1 8AN     -0.554200
      6 C5'         0.1910    2.2710    1.1140 c3        1 8AN      0.228400
      7 C4'        -0.7930    1.4020    1.4910 c3        1 8AN      0.013100
      8 O4'        -1.5690    0.8770    0.2290 os        1 8AN     -0.379600
      9 C1'        -1.1850   -0.3220    0.0860 c3        1 8AN      0.389300
     10 N9         -0.0710   -0.3690   -0.7900 n3        1 8AN     -0.459800
     11 C4          0.2460   -1.5970   -1.2470 c1        1 8AN      0.084800
     12 N3          0.3050   -2.8080   -0.6270 n1        1 8AN     -0.511800
     13 C2          0.6670   -3.9350   -1.3410 c1        1 8AN      0.354300
     14 N1          0.9700   -3.8350   -2.6890 n1        1 8AN     -0.601800
     15 C6          0.9140   -2.6350   -3.3060 c1        1 8AN      0.546600
     16 N6          1.3980   -2.9250   -4.6990 n3        1 8AN     -0.789400
     17 C5          0.5460   -1.4900   -2.5790 c1        1 8AN     -0.202000
     18 N7          0.4110   -0.1920   -2.9310 n1        1 8AN     -0.498800
     19 C8          0.0280    0.5060   -1.8240 c1        1 8AN      0.409600
     20 C2'        -0.7390   -0.8580    1.6060 c3        1 8AN      0.115100
     21 O2'        -1.9230   -1.2680    2.3670 oh        1 8AN     -0.595800
     22 C3'        -0.1700    0.1290    2.1720 c3        1 8AN      0.095500
     23 N3'        -0.4730    0.1370    3.6530 n3        1 8AN     -0.893800
     24 H5'         0.8000    1.8280    0.5300 h1        1 8AN     -0.008800
     25 H5'A        0.6840    2.5920    1.9270 h1        1 8AN     -0.008800
     26 H4'        -1.3930    1.8290    2.0860 h1        1 8AN      0.163700
     27 H1'        -1.9340   -0.8860   -0.2760 h2        1 8AN      0.074700
     28 H2          0.7080   -4.8220   -0.8860 ha        1 8AN      0.105500
     29 HN6         1.4640   -2.2510   -5.3070 hn        1 8AN      0.405300
     30 HN6A        1.6510   -3.7950   -4.9350 hn        1 8AN      0.405300
     31 H8         -0.0820    1.4630   -1.7660 DU        1 8AN      0.313000
     32 H2'        -0.0970   -1.6300    1.5250 h1        1 8AN      0.092700
     33 HO2'       -1.9180   -2.1620    2.4710 ho        1 8AN      0.399000
     34 H3'         0.8330    0.0970    2.0140 h1        1 8AN      0.074700
     35 HN3'        0.0150   -0.5060    4.0670 hn        1 8AN      0.345300
     36 HN3A       -0.2600    0.9500    4.0020 hn        1 8AN      0.345300
@<TRIPOS>BOND
     1    1    2 1   
     2    2    3 2   
     3    2    5 1   
     4    5    6 1   
     5    6    7 1   
     6    6   24 1   
     7    6   25 1   
     8    7    8 1   
     9    7   22 1   
    10    7   26 1   
    11    8    9 1   
    12    9   10 1   
    13    9   20 1   
    14    9   27 1   
    15   10   11 1   
    16   10   19 1   
    17   11   17 3   
    18   12   13 3   
    19   13   28 1   
    20   14   15 3   
    21   15   16 1   
    22   16   29 1   
    23   16   30 1   
    24   18   19 3   
    25   20   21 1   
    26   20   22 1   
    27   20   32 1   
    28   21   33 1   
    29   22   23 1   
    30   22   34 1   
    31   23   35 1   
    32   23   36 1   
@<TRIPOS>SUBSTRUCTURE
     1 8AN         1 TEMP              0 ****  ****    0 ROOT
