@<TRIPOS>MOLECULE
8AP
   28    25     1     0     0
SMALL
bcc


@<TRIPOS>ATOM
      1 N1         -0.5050   -2.1530    2.4710 n3        1 8AP     -0.316000
      2 C2          0.3960   -1.0380    2.7770 c2        1 8AP      0.060000
      3 N3          1.0210   -0.9830    3.9750 n2        1 8AP     -0.188000
      4 C4          1.9520    0.0250    4.2310 c1        1 8AP     -0.046000
      5 C5          2.2350    0.9680    3.2630 c1        1 8AP     -0.134000
      6 C6          1.6010    0.9150    2.0460 c1        1 8AP     -0.134000
      7 C7          0.6840   -0.0770    1.7910 c1        1 8AP     -0.069000
      8 N8         -0.0530   -0.0700    0.5380 n3        1 8AP     -0.256000
      9 C9          0.6350    0.2130   -0.6830 c3        1 8AP     -0.033000
     10 C10        -0.3680    0.2710   -1.8390 c2        1 8AP     -0.122000
     11 C11        -0.8010   -0.9170   -2.4500 c2        1 8AP     -0.117000
     12 C12        -1.6580   -0.8640   -3.5370 c1        1 8AP     -0.127000
     13 C13        -2.0900    0.3640   -4.0240 c1        1 8AP     -0.134000
     14 C14        -1.6610    1.5470   -3.4190 c1        1 8AP     -0.134000
     15 C15        -0.8000    1.4980   -2.3260 c1        1 8AP     -0.139000
     16 HN11       -0.9640   -2.5770    3.1510 hn        1 8AP      0.190500
     17 HN12       -0.6250   -2.4200    1.6020 hn        1 8AP      0.190500
     18 H4          2.4090    0.0650    5.1070 ha        1 8AP      0.157000
     19 H5          2.9170    1.7060    3.4530 ha        1 8AP      0.139500
     20 H6          1.8070    1.6010    1.3410 ha        1 8AP      0.139500
     21 HN8        -0.9230   -0.3420    0.5190 hn        1 8AP      0.182000
     22 H91         1.1050    1.0930   -0.6050 h1        1 8AP      0.102500
     23 H92         1.3000   -0.5030   -0.8590 h1        1 8AP      0.102500
     24 H11        -0.4940   -1.7910   -2.1050 ha        1 8AP      0.136000
     25 H12        -1.9600   -1.6920   -3.9610 ha        1 8AP      0.135000
     26 H13        -2.6910    0.3980   -4.7850 ha        1 8AP      0.139500
     27 H14        -1.9730    2.4320   -3.7720 ha        1 8AP      0.139500
     28 H15        -0.4970    2.3320   -1.9000 ha        1 8AP      0.135000
@<TRIPOS>BOND
     1    1    2 1   
     2    1   16 1   
     3    1   17 1   
     4    2    3 1   
     5    2    7 1   
     6    3    4 1   
     7    4   18 1   
     8    5    6 1   
     9    5   19 1   
    10    6   20 1   
    11    7    8 1   
    12    8    9 1   
    13    8   21 1   
    14    9   10 1   
    15    9   22 1   
    16    9   23 1   
    17   10   11 1   
    18   10   15 1   
    19   11   12 1   
    20   11   24 1   
    21   12   25 1   
    22   13   14 1   
    23   13   26 1   
    24   14   27 1   
    25   15   28 1   
@<TRIPOS>SUBSTRUCTURE
     1 8AP         1 TEMP              0 ****  ****    0 ROOT
