@<TRIPOS>MOLECULE
8AP
   28    29     1     0     0
SMALL
bcc


@<TRIPOS>ATOM
      1 N1         -0.0350   -0.2710    0.0840 nv        1 8AP     -0.905500
      2 C2          1.3800   -0.1690    0.0340 ca        1 8AP      0.557200
      3 N3          2.0790   -0.1000    1.2020 nb        1 8AP     -0.697000
      4 C4          3.4070    0.0830    1.1500 ca        1 8AP      0.385200
      5 C5          4.1280    0.1860   -0.0460 ca        1 8AP     -0.242300
      6 C6          3.4350    0.1120   -1.2520 ca        1 8AP     -0.140000
      7 C7          2.0370   -0.0630   -1.2570 ca        1 8AP      0.008300
      8 N8          1.3000   -0.2290   -2.4430 nu        1 8AP     -0.713600
      9 C9          1.9580    0.1090   -3.6910 c3        1 8AP      0.224100
     10 C10         1.0110    0.1430   -4.8540 ca        1 8AP     -0.105300
     11 C11         0.2640   -0.9910   -5.1890 ca        1 8AP     -0.114500
     12 C12        -0.5900   -0.9660   -6.2900 ca        1 8AP     -0.132500
     13 C13        -0.7000    0.1900   -7.0640 ca        1 8AP     -0.123000
     14 C14         0.0430    1.3220   -6.7320 ca        1 8AP     -0.132500
     15 C15         0.8950    1.3020   -5.6290 ca        1 8AP     -0.114500
     16 HN11       -0.3980   -0.2790    1.0170 hn        1 8AP      0.386300
     17 HN12       -0.3600   -1.0630   -0.4320 hn        1 8AP      0.386300
     18 H4          3.9120    0.1390    2.1310 h4        1 8AP      0.021100
     19 H5          5.2170    0.3250   -0.0330 ha        1 8AP      0.142000
     20 H6          3.9960    0.1910   -2.1950 ha        1 8AP      0.138000
     21 HN8         0.3790    0.1620   -2.3880 hn        1 8AP      0.405800
     22 H91         2.4950    1.1030   -3.6220 h1        1 8AP      0.046200
     23 H92         2.7390   -0.6830   -3.8870 h1        1 8AP      0.046200
     24 H11         0.3530   -1.9030   -4.5790 ha        1 8AP      0.138000
     25 H12        -1.1760   -1.8590   -6.5500 ha        1 8AP      0.133500
     26 H13        -1.3730    0.2080   -7.9340 ha        1 8AP      0.133000
     27 H14        -0.0420    2.2350   -7.3410 ha        1 8AP      0.133500
     28 H15         1.4780    2.1990   -5.3700 ha        1 8AP      0.138000
@<TRIPOS>BOND
     1    1    2 1   
     2    1   16 1   
     3    1   17 1   
     4    2    3 ar  
     5    2    7 ar  
     6    3    4 ar  
     7    4    5 ar  
     8    4   18 1   
     9    5    6 ar  
    10    5   19 1   
    11    6    7 ar  
    12    6   20 1   
    13    7    8 1   
    14    8    9 1   
    15    8   21 1   
    16    9   10 1   
    17    9   22 1   
    18    9   23 1   
    19   10   11 ar  
    20   10   15 ar  
    21   11   12 ar  
    22   11   24 1   
    23   12   13 ar  
    24   12   25 1   
    25   13   14 ar  
    26   13   26 1   
    27   14   15 ar  
    28   14   27 1   
    29   15   28 1   
@<TRIPOS>SUBSTRUCTURE
     1 8AP         1 TEMP              0 ****  ****    0 ROOT
