@<TRIPOS>MOLECULE
8AP
   30    31     1     0     0
SMALL
bcc


@<TRIPOS>ATOM
      1 N1         -0.0400   -0.0010    0.3070 n4        1 8AP     -0.837300
      2 C2          1.4250   -0.0140    0.0900 ca        1 8AP      0.474200
      3 N3          2.1560   -0.0400    1.2320 nb        1 8AP     -0.615000
      4 C4          3.4940   -0.0540    1.1430 ca        1 8AP      0.493200
      5 C5          4.1700   -0.0430   -0.0960 ca        1 8AP     -0.151300
      6 C6          3.4230   -0.0160   -1.2720 ca        1 8AP     -0.043000
      7 C7          2.0100   -0.0010   -1.2140 ca        1 8AP     -0.119700
      8 N8          1.2070    0.0270   -2.4300 n4        1 8AP     -0.662400
      9 C9          1.9860    0.0480   -3.7480 c3        1 8AP      0.201100
     10 C10         1.0220    0.0800   -4.8710 ca        1 8AP     -0.237300
     11 C11         0.5870   -1.1200   -5.4550 ca        1 8AP     -0.092000
     12 C12        -0.2540   -1.0850   -6.5640 ca        1 8AP     -0.114000
     13 C13        -0.6640    0.1410   -7.0960 ca        1 8AP     -0.045000
     14 C14        -0.2320    1.3370   -6.5140 ca        1 8AP     -0.114000
     15 C15         0.6090    1.3100   -5.4050 ca        1 8AP     -0.092000
     16 HN11       -0.4500    0.8550   -0.0850 hn        1 8AP      0.487800
     17 HN12       -0.4690   -0.8330   -0.1130 hn        1 8AP      0.487800
     18 H4          4.0380   -0.0750    2.1180 h4        1 8AP      0.110100
     19 H5          5.2770   -0.0550   -0.1270 ha        1 8AP      0.225000
     20 H6          3.9630   -0.0070   -2.2390 ha        1 8AP      0.202000
     21 HN8         0.6110    0.8670   -2.4290 hn        1 8AP      0.451800
     22 H91         2.6390    0.9670   -3.7360 hx        1 8AP      0.117700
     23 H92         2.6220   -0.8830   -3.7750 hx        1 8AP      0.117700
     24 H11         0.9310   -2.0900   -5.0620 ha        1 8AP      0.141000
     25 H12        -0.5860   -2.0270   -7.0340 ha        1 8AP      0.176000
     26 H13        -1.3210    0.1660   -7.9830 ha        1 8AP      0.180000
     27 H14        -0.5460    2.3040   -6.9440 ha        1 8AP      0.176000
     28 H15         0.9710    2.2560   -4.9720 ha        1 8AP      0.141000
     29 H131       -0.2460   -0.0150    1.3280 hn        1 8AP      0.487800
     30 H82         0.6010   -0.8050   -2.4610 hn        1 8AP      0.451800
@<TRIPOS>BOND
     1    1    2 1   
     2    1   16 1   
     3    1   17 1   
     4    1   29 1   
     5    2    3 ar  
     6    2    7 ar  
     7    3    4 ar  
     8    4    5 ar  
     9    4   18 1   
    10    5    6 ar  
    11    5   19 1   
    12    6    7 ar  
    13    6   20 1   
    14    7    8 1   
    15    8    9 1   
    16    8   21 1   
    17    8   30 1   
    18    9   10 1   
    19    9   22 1   
    20    9   23 1   
    21   10   11 ar  
    22   10   15 ar  
    23   11   12 ar  
    24   11   24 1   
    25   12   13 ar  
    26   12   25 1   
    27   13   14 ar  
    28   13   26 1   
    29   14   15 ar  
    30   14   27 1   
    31   15   28 1   
@<TRIPOS>SUBSTRUCTURE
     1 8AP         1 TEMP              0 ****  ****    0 ROOT
