@<TRIPOS>MOLECULE
8AP
   28    29     1     0     0
SMALL
bcc


@<TRIPOS>ATOM
      1 N1         -0.7580   -4.3630    5.5840 nh        1 8AP     -0.905500
      2 C2         -0.1770   -3.4480    6.5010 ca        1 8AP      0.557200
      3 N3         -0.4660   -3.5690    7.8270 nb        1 8AP     -0.697000
      4 C4          0.0160   -2.6510    8.6790 ca        1 8AP      0.385200
      5 C5          0.8240   -1.5760    8.2850 ca        1 8AP     -0.242300
      6 C6          1.1360   -1.4370    6.9350 ca        1 8AP     -0.140000
      7 C7          0.6450   -2.3620    5.9930 ca        1 8AP      0.007300
      8 N8          0.9990   -2.3180    4.6330 nh        1 8AP     -0.713600
      9 C9          1.6240   -1.1040    4.1450 c3        1 8AP      0.224100
     10 C10         1.7210   -1.0630    2.6480 ca        1 8AP     -0.105300
     11 C11         2.4040   -2.0700    1.9580 ca        1 8AP     -0.114500
     12 C12         2.5200   -2.0110    0.5700 ca        1 8AP     -0.132500
     13 C13         1.9580   -0.9460   -0.1340 ca        1 8AP     -0.123000
     14 C14         1.2780    0.0600    0.5520 ca        1 8AP     -0.132500
     15 C15         1.1560    0.0020    1.9400 ca        1 8AP     -0.114500
     16 HN11       -1.3530   -5.0380    6.0230 hn        1 8AP      0.386300
     17 HN12       -0.0580   -4.8120    5.0270 hn        1 8AP      0.386300
     18 H4         -0.2610   -2.8010    9.7370 h4        1 8AP      0.021100
     19 H5          1.2000   -0.8590    9.0250 ha        1 8AP      0.142000
     20 H6          1.7720   -0.5960    6.6190 ha        1 8AP      0.138000
     21 HN8         0.2620   -2.6280    4.0280 hn        1 8AP      0.405800
     22 H91         2.6690   -1.0660    4.5730 h1        1 8AP      0.046200
     23 H92         1.0780   -0.1810    4.5060 h1        1 8AP      0.046200
     24 H11         2.8480   -2.9090    2.5150 ha        1 8AP      0.138000
     25 H12         3.0570   -2.8050    0.0310 ha        1 8AP      0.133500
     26 H13         2.0520   -0.8990   -1.2290 ha        1 8AP      0.133000
     27 H14         0.8340    0.9000   -0.0020 ha        1 8AP      0.133500
     28 H15         0.6150    0.7960    2.4750 ha        1 8AP      0.138000
@<TRIPOS>BOND
     1    1    2 1   
     2    1   16 1   
     3    1   17 1   
     4    2    3 ar  
     5    2    7 ar  
     6    3    4 ar  
     7    4    5 ar  
     8    4   18 1   
     9    5    6 ar  
    10    5   19 1   
    11    6    7 ar  
    12    6   20 1   
    13    7    8 1   
    14    8    9 1   
    15    8   21 1   
    16    9   10 1   
    17    9   22 1   
    18    9   23 1   
    19   10   11 ar  
    20   10   15 ar  
    21   11   12 ar  
    22   11   24 1   
    23   12   13 ar  
    24   12   25 1   
    25   13   14 ar  
    26   13   26 1   
    27   14   15 ar  
    28   14   27 1   
    29   15   28 1   
@<TRIPOS>SUBSTRUCTURE
     1 8AP         1 TEMP              0 ****  ****    0 ROOT
