@<TRIPOS>MOLECULE
8AW
   70    72     1     0     0
SMALL
bcc


@<TRIPOS>ATOM
      1 O06        -3.6050   -2.0710    1.2590 o         1 8AW     -0.624100
      2 C05        -3.8450   -0.8730    1.5160 c         1 8AW      0.662100
      3 C03        -4.6890   -0.4920    2.7320 c3        1 8AW     -0.137700
      4 C02        -5.9160    0.2990    2.3080 c3        1 8AW     -0.078400
      5 C01        -6.9950    0.2700    3.3600 c3        1 8AW     -0.093100
      6 C04        -3.8480    0.2580    3.7420 c3        1 8AW     -0.090100
      7 N07        -3.3440    0.1460    0.7370 n         1 8AW     -0.562900
      8 C08        -2.6020   -0.0930   -0.4800 c3        1 8AW      0.105700
      9 C29        -2.9940    0.8790   -1.6100 c3        1 8AW     -0.055100
     10 C30        -4.4360    0.8170   -1.9650 ca        1 8AW     -0.080300
     11 C31        -4.9880   -0.3620   -2.4820 ca        1 8AW     -0.127000
     12 C32        -6.3350   -0.4120   -2.8370 ca        1 8AW     -0.127500
     13 C33        -7.1420    0.7150   -2.6830 ca        1 8AW     -0.132000
     14 C34        -6.5980    1.8930   -2.1740 ca        1 8AW     -0.127500
     15 C35        -5.2520    1.9440   -1.8160 ca        1 8AW     -0.127000
     16 C09        -1.0760    0.0060   -0.2910 c3        1 8AW     -0.095400
     17 C10        -0.5640   -0.9980    0.7160 c3        1 8AW     -0.087400
     18 C11         0.8880   -1.4160    0.4300 c3        1 8AW      0.102700
     19 C12         1.2710   -2.5200    1.4360 c3        1 8AW     -0.059100
     20 C13         2.6520   -3.0280    1.2260 ca        1 8AW     -0.092300
     21 C14         2.9160   -3.9550    0.2100 ca        1 8AW     -0.126500
     22 C15         4.2080   -4.4390    0.0180 ca        1 8AW     -0.125000
     23 C16         5.2490   -4.0010    0.8380 ca        1 8AW     -0.128000
     24 C17         4.9920   -3.0790    1.8520 ca        1 8AW     -0.125000
     25 C18         3.7000   -2.5940    2.0460 ca        1 8AW     -0.126500
     26 N19         1.8070   -0.2900    0.4730 n         1 8AW     -0.517900
     27 C20         2.3080    0.2190   -0.7070 c         1 8AW      0.732100
     28 O21         1.8630    0.0880   -1.8610 o         1 8AW     -0.596000
     29 O22         3.4130    1.0290   -0.5140 os        1 8AW     -0.445900
     30 C23         3.9060    1.6690   -1.7110 c3        1 8AW      0.232700
     31 C24         5.1000    2.4430   -1.3280 cc        1 8AW     -0.212700
     32 C25         6.4150    2.0430   -1.5660 cd        1 8AW      0.350200
     33 N26         7.3840    2.9370   -1.1500 nd        1 8AW     -0.630000
     34 C27         6.7940    3.9970   -0.6000 cc        1 8AW      0.363300
     35 S28         5.0940    3.9470   -0.5680 ss        1 8AW     -0.058300
     36 H1         -5.0260   -1.4660    3.1910 hc        1 8AW      0.086700
     37 H2         -5.6280    1.3630    2.0980 hc        1 8AW      0.047200
     38 H3         -6.3210   -0.1320    1.3530 hc        1 8AW      0.047200
     39 H4         -6.6290    0.7110    4.3190 hc        1 8AW      0.036700
     40 H5         -7.8800    0.8580    3.0180 hc        1 8AW      0.036700
     41 H6         -7.3250   -0.7790    3.5590 hc        1 8AW      0.036700
     42 H7         -3.5530    1.2640    3.3560 hc        1 8AW      0.041033
     43 H8         -4.4290    0.4020    4.6860 hc        1 8AW      0.041033
     44 H9         -2.9210   -0.3180    3.9790 hc        1 8AW      0.041033
     45 H10        -3.5880    1.0820    0.9490 hn        1 8AW      0.309500
     46 H11        -2.8410   -1.1490   -0.8190 h1        1 8AW      0.081700
     47 H12        -2.7100    1.9250   -1.3190 hc        1 8AW      0.058700
     48 H13        -2.3830    0.6080   -2.5130 hc        1 8AW      0.058700
     49 H14        -4.3540   -1.2530   -2.6040 ha        1 8AW      0.132000
     50 H15        -6.7600   -1.3440   -3.2390 ha        1 8AW      0.131500
     51 H16        -8.2040    0.6740   -2.9660 ha        1 8AW      0.131000
     52 H17        -7.2310    2.7850   -2.0550 ha        1 8AW      0.131500
     53 H18        -4.8280    2.8790   -1.4190 ha        1 8AW      0.132000
     54 H19        -0.5930   -0.1740   -1.2900 hc        1 8AW      0.057200
     55 H20        -0.7970    1.0440    0.0270 hc        1 8AW      0.057200
     56 H21        -0.6440   -0.5760    1.7520 hc        1 8AW      0.059700
     57 H22        -1.1980   -1.9270    0.6870 hc        1 8AW      0.059700
     58 H23         0.9210   -1.8600   -0.6130 h1        1 8AW      0.076700
     59 H24         1.1560   -2.1310    2.4820 hc        1 8AW      0.063700
     60 H25         0.5350   -3.3590    1.3080 hc        1 8AW      0.063700
     61 H26         2.0960   -4.3010   -0.4380 ha        1 8AW      0.131500
     62 H27         4.4080   -5.1660   -0.7830 ha        1 8AW      0.133500
     63 H28         6.2690   -4.3830    0.6850 ha        1 8AW      0.133000
     64 H29         5.8100   -2.7320    2.5010 ha        1 8AW      0.133500
     65 H30         3.5020   -1.8710    2.8520 ha        1 8AW      0.131500
     66 H31         2.3910   -0.2160    1.2770 hn        1 8AW      0.319500
     67 H32         4.1570    0.8740   -2.4650 h1        1 8AW      0.068200
     68 H33         3.0920    2.3230   -2.1240 h1        1 8AW      0.068200
     69 H34         6.7240    1.1060   -2.0440 h4        1 8AW      0.049100
     70 H35         7.3790    4.8310   -0.2010 h5        1 8AW      0.055100
@<TRIPOS>BOND
     1    1    2 2   
     2    2    3 1   
     3    2    7 1   
     4    3    4 1   
     5    3    6 1   
     6    3   36 1   
     7    4    5 1   
     8    4   37 1   
     9    4   38 1   
    10    5   39 1   
    11    5   40 1   
    12    5   41 1   
    13    6   42 1   
    14    6   43 1   
    15    6   44 1   
    16    7    8 1   
    17    7   45 1   
    18    8    9 1   
    19    8   16 1   
    20    8   46 1   
    21    9   10 1   
    22    9   47 1   
    23    9   48 1   
    24   10   11 ar  
    25   10   15 ar  
    26   11   12 ar  
    27   11   49 1   
    28   12   13 ar  
    29   12   50 1   
    30   13   14 ar  
    31   13   51 1   
    32   14   15 ar  
    33   14   52 1   
    34   15   53 1   
    35   16   17 1   
    36   16   54 1   
    37   16   55 1   
    38   17   18 1   
    39   17   56 1   
    40   17   57 1   
    41   18   19 1   
    42   18   26 1   
    43   18   58 1   
    44   19   20 1   
    45   19   59 1   
    46   19   60 1   
    47   20   21 ar  
    48   20   25 ar  
    49   21   22 ar  
    50   21   61 1   
    51   22   23 ar  
    52   22   62 1   
    53   23   24 ar  
    54   23   63 1   
    55   24   25 ar  
    56   24   64 1   
    57   25   65 1   
    58   26   27 1   
    59   26   66 1   
    60   27   28 2   
    61   27   29 1   
    62   29   30 1   
    63   30   31 1   
    64   30   67 1   
    65   30   68 1   
    66   31   32 2   
    67   31   35 1   
    68   32   33 1   
    69   32   69 1   
    70   33   34 2   
    71   34   35 1   
    72   34   70 1   
@<TRIPOS>SUBSTRUCTURE
     1 8AW         1 TEMP              0 ****  ****    0 ROOT
