@<TRIPOS>MOLECULE
8AW
   70    62     1     0     0
SMALL
bcc


@<TRIPOS>ATOM
      1 O06        -0.6680    2.6760    3.3070 o         1 8AW     -0.379000
      2 C05        -0.1090    3.2050    2.3390 c1        1 8AW      0.305000
      3 C03         0.9400    4.2550    2.5600 c3        1 8AW     -0.119000
      4 C02         1.6720    3.9690    3.8340 c3        1 8AW     -0.152000
      5 C01         3.0450    4.5440    3.7600 c3        1 8AW     -0.212000
      6 C04         0.2680    5.6410    2.6500 c3        1 8AW     -0.211000
      7 N07        -0.4510    2.8010    1.0040 n2        1 8AW     -0.376000
      8 C08        -1.0770    1.5590    0.7840 c3        1 8AW      0.031000
      9 C29        -2.5170    1.7910    0.3100 c3        1 8AW     -0.140000
     10 C30        -3.4790    1.0340    1.2190 c1        1 8AW     -0.076000
     11 C31        -3.3820   -0.3570    1.3290 c1        1 8AW     -0.126625
     12 C32        -4.3680   -1.0720    1.9960 c1        1 8AW     -0.126625
     13 C33        -5.4450   -0.4080    2.5530 c1        1 8AW     -0.126625
     14 C34        -5.5420    0.9800    2.4440 c1        1 8AW     -0.126625
     15 C35        -4.5570    1.6960    1.7770 c1        1 8AW     -0.132000
     16 C09        -0.3120    0.7900   -0.2710 c3        1 8AW     -0.168000
     17 C10        -0.1900   -0.7110    0.1590 c3        1 8AW     -0.189000
     18 C11         0.0600   -1.5740   -1.0700 c3        1 8AW      0.032000
     19 C12        -1.2000   -2.3060   -1.4280 c3        1 8AW     -0.128000
     20 C13        -1.5870   -1.9800   -2.8620 c1        1 8AW     -0.070000
     21 C14        -1.9860   -0.6830   -3.1890 c1        1 8AW     -0.126625
     22 C15        -2.5500   -0.4200   -4.4330 c1        1 8AW     -0.126625
     23 C16        -2.7170   -1.4500   -5.3530 c1        1 8AW     -0.126625
     24 C17        -2.3200   -2.7460   -5.0290 c1        1 8AW     -0.126625
     25 C18        -1.7550   -3.0100   -3.7830 c1        1 8AW     -0.122000
     26 N19         1.1010   -2.5220   -0.7840 n3        1 8AW     -0.335000
     27 C20         2.2560   -2.6030   -1.6430 c1        1 8AW      0.393000
     28 O21         2.3600   -1.8610   -2.5780 o         1 8AW     -0.405000
     29 O22         3.2660   -3.5880   -1.3980 o         1 8AW     -0.287000
     30 C23         4.4750   -3.3650   -2.1250 c3        1 8AW      0.076000
     31 C24         5.6340   -4.1170   -1.4390 c2        1 8AW     -0.410000
     32 C25         6.9690   -4.2660   -1.9550 c1        1 8AW     -0.118000
     33 N26         7.8250   -5.0390   -0.8870 n2        1 8AW     -0.104000
     34 C27         6.9860   -5.3320    0.2360 c1        1 8AW     -0.353000
     35 S28         5.5860   -4.7720   -0.0580 ss        1 8AW      0.529000
     36 H1          1.5660    4.2470    1.8210 hc        1 8AW      0.102000
     37 H2          1.7310    2.9920    3.9660 hc        1 8AW      0.097500
     38 H3          1.1960    4.3670    4.5760 hc        1 8AW      0.097500
     39 H4          3.0070    5.5180    3.9430 hc        1 8AW      0.073333
     40 H5          3.4170    4.3930    2.8590 hc        1 8AW      0.073333
     41 H6          3.6210    4.1060    4.4290 hc        1 8AW      0.073333
     42 H7         -0.5280    5.6580    2.0680 hc        1 8AW      0.083333
     43 H8          0.9100    6.3430    2.3550 hc        1 8AW      0.083333
     44 H9         -0.0050    5.8160    3.5850 hc        1 8AW      0.083333
     45 H10        -0.2680    3.3580    0.2920 hn        1 8AW      0.224000
     46 H11        -1.0860    1.0440    1.6220 h1        1 8AW      0.120000
     47 H12        -2.7270    2.7740    0.3460 hc        1 8AW      0.096000
     48 H13        -2.6160    1.4690   -0.6150 hc        1 8AW      0.096000
     49 H14        -2.6220   -0.8260    0.9350 ha        1 8AW      0.131875
     50 H15        -4.2970   -2.0780    2.0740 ha        1 8AW      0.131875
     51 H16        -6.1450   -0.9130    3.0260 ha        1 8AW      0.131875
     52 H17        -6.3070    1.4500    2.8390 ha        1 8AW      0.131875
     53 H18        -4.6260    2.6800    1.7010 ha        1 8AW      0.128000
     54 H19        -0.7850    0.8460   -1.1230 hc        1 8AW      0.086000
     55 H20         0.6060    1.1840   -0.3710 hc        1 8AW      0.086000
     56 H21         0.5560   -0.8110    0.7850 hc        1 8AW      0.101500
     57 H22        -1.0320   -1.0000    0.5990 hc        1 8AW      0.101500
     58 H23         0.3290   -1.0150   -1.8080 h1        1 8AW      0.127000
     59 H24        -1.0570   -3.2560   -1.3400 hc        1 8AW      0.095500
     60 H25        -1.9250   -2.0260   -0.8220 hc        1 8AW      0.095500
     61 H26        -1.8700    0.0330   -2.5490 ha        1 8AW      0.131875
     62 H27        -2.8350    0.5090   -4.6670 ha        1 8AW      0.131875
     63 H28        -3.1140   -1.2640   -6.2300 ha        1 8AW      0.131875
     64 H29        -2.4380   -3.4660   -5.6730 ha        1 8AW      0.131875
     65 H30        -1.4740   -3.9300   -3.5520 ha        1 8AW      0.129000
     66 H31         0.9990   -3.1150   -0.1080 hn        1 8AW      0.237000
     67 H32         4.3700   -3.6910   -3.0350 h1        1 8AW      0.107500
     68 H33         4.6730   -2.4030   -2.1420 h1        1 8AW      0.107500
     69 H34         7.2880   -3.9450   -2.8150 DU        1 8AW      0.188500
     70 H35         7.2570   -5.8080    1.0510 DU        1 8AW      0.188500
@<TRIPOS>BOND
     1    1    2 1   
     2    2    3 1   
     3    3    4 1   
     4    3    6 1   
     5    3   36 1   
     6    4    5 1   
     7    4   37 1   
     8    4   38 1   
     9    5   39 1   
    10    5   40 1   
    11    5   41 1   
    12    6   42 1   
    13    6   43 1   
    14    6   44 1   
    15    7    8 1   
    16    7   45 1   
    17    8    9 1   
    18    8   16 1   
    19    8   46 1   
    20    9   10 1   
    21    9   47 1   
    22    9   48 1   
    23   10   15 1   
    24   11   12 1   
    25   11   49 1   
    26   12   50 1   
    27   13   14 1   
    28   13   51 1   
    29   14   52 1   
    30   15   53 1   
    31   16   17 1   
    32   16   54 1   
    33   16   55 1   
    34   17   18 1   
    35   17   56 1   
    36   17   57 1   
    37   18   19 1   
    38   18   26 1   
    39   18   58 1   
    40   19   20 1   
    41   19   59 1   
    42   19   60 1   
    43   20   25 1   
    44   21   22 1   
    45   21   61 1   
    46   22   62 1   
    47   23   24 1   
    48   23   63 1   
    49   24   64 1   
    50   25   65 1   
    51   26   27 1   
    52   26   66 1   
    53   27   28 1   
    54   29   30 1   
    55   30   31 1   
    56   30   67 1   
    57   30   68 1   
    58   31   32 1   
    59   31   35 1   
    60   32   33 1   
    61   33   34 1   
    62   34   35 1   
@<TRIPOS>SUBSTRUCTURE
     1 8AW         1 TEMP              0 ****  ****    0 ROOT
