@<TRIPOS>MOLECULE
8AW
   72    74     1     0     0
SMALL
bcc


@<TRIPOS>ATOM
      1 O06         3.1940   -0.8730   -0.3890 o         1 8AW     -0.438100
      2 C05         2.7320    0.2560   -0.3320 c         1 8AW      0.556100
      3 C03         3.0540    1.3350    0.6810 c3        1 8AW     -0.134700
      4 C02         1.8540    1.5620    1.5970 c3        1 8AW     -0.086400
      5 C01         2.2780    2.2030    2.8950 c3        1 8AW     -0.102100
      6 C04         3.5050    2.6070   -0.0020 c3        1 8AW     -0.122100
      7 N07         1.7150    0.6400   -1.3850 ny        1 8AW     -0.686800
      8 C08         1.1220   -0.4980   -2.1750 c3        1 8AW      0.128500
      9 C29        -0.3340   -0.1750   -2.5700 c3        1 8AW     -0.052100
     10 C30        -1.1570    0.2550   -1.4090 ca        1 8AW     -0.174300
     11 C31        -1.6700   -0.6950   -0.5180 ca        1 8AW     -0.133000
     12 C32        -2.4910   -0.2940    0.5350 ca        1 8AW     -0.112000
     13 C33        -2.8080    1.0550    0.7030 ca        1 8AW     -0.091000
     14 C34        -2.3010    2.0050   -0.1850 ca        1 8AW     -0.112000
     15 C35        -1.4780    1.6090   -1.2380 ca        1 8AW     -0.133000
     16 C09         1.9140   -0.8380   -3.4420 c3        1 8AW     -0.100400
     17 C10         3.1470   -1.6750   -3.1610 c3        1 8AW     -0.117400
     18 C11         3.6810   -2.3030   -4.4550 c3        1 8AW      0.142500
     19 C12         2.8580   -3.5470   -4.8390 c3        1 8AW     -0.051100
     20 C13         3.4000   -4.2250   -6.0450 ca        1 8AW     -0.177300
     21 C14         3.0970   -3.7430   -7.3240 ca        1 8AW     -0.132000
     22 C15         3.5710   -4.4090   -8.4540 ca        1 8AW     -0.108500
     23 C16         4.3460   -5.5610   -8.3150 ca        1 8AW     -0.087000
     24 C17         4.6460   -6.0490   -7.0410 ca        1 8AW     -0.108500
     25 C18         4.1750   -5.3850   -5.9100 ca        1 8AW     -0.132000
     26 N19         5.1410   -2.6820   -4.3320 ny        1 8AW     -0.648800
     27 C20         6.0570   -1.5050   -4.4710 c         1 8AW      0.632100
     28 O21         5.9710   -0.5180   -3.7480 o         1 8AW     -0.463000
     29 O22         6.9070   -1.6920   -5.4860 os        1 8AW     -0.401900
     30 C23         8.0460   -0.7620   -5.6200 c3        1 8AW      0.261700
     31 C24         9.1570   -1.1880   -4.7760 cc        1 8AW     -0.350700
     32 C25         9.8420   -2.4050   -4.9230 cd        1 8AW      0.397200
     33 N26        10.8990   -2.5840   -4.0600 nd        1 8AW     -0.611000
     34 C27        11.0240   -1.5010   -3.2870 cc        1 8AW      0.405300
     35 S28         9.8870   -0.2750   -3.5640 ss        1 8AW     -0.002300
     36 H1          3.9090    0.9220    1.2990 hc        1 8AW      0.133700
     37 H2          1.1030    2.2190    1.0840 hc        1 8AW      0.055200
     38 H3          1.3590    0.5790    1.8200 hc        1 8AW      0.055200
     39 H4          1.3810    2.3640    3.5430 hc        1 8AW      0.063033
     40 H5          2.7610    3.1940    2.7140 hc        1 8AW      0.063033
     41 H6          2.9970    1.5510    3.4470 hc        1 8AW      0.063033
     42 H7          2.6580    3.1340   -0.5030 hc        1 8AW      0.068367
     43 H8          3.9240    3.3030    0.7710 hc        1 8AW      0.068367
     44 H9          4.3090    2.4010   -0.7490 hc        1 8AW      0.068367
     45 H10         2.1580    1.3110   -2.0220 hn        1 8AW      0.469300
     46 H11         1.1130   -1.3930   -1.4800 hx        1 8AW      0.119700
     47 H12        -0.7700   -1.1140   -3.0110 hc        1 8AW      0.089700
     48 H13        -0.3440    0.6090   -3.3740 hc        1 8AW      0.089700
     49 H14        -1.4480   -1.7630   -0.6620 ha        1 8AW      0.136000
     50 H15        -2.9060   -1.0480    1.2250 ha        1 8AW      0.162000
     51 H16        -3.4710    1.3680    1.5260 ha        1 8AW      0.167000
     52 H17        -2.5690    3.0670   -0.0670 ha        1 8AW      0.162000
     53 H18        -1.1260    2.3580   -1.9640 ha        1 8AW      0.136000
     54 H19         1.2150   -1.4140   -4.1120 hc        1 8AW      0.084700
     55 H20         2.1980    0.0940   -4.0010 hc        1 8AW      0.084700
     56 H21         3.9320   -1.0220   -2.6870 hc        1 8AW      0.082700
     57 H22         2.9020   -2.4860   -2.4230 hc        1 8AW      0.082700
     58 H23         3.6260   -1.5520   -5.3000 hx        1 8AW      0.111700
     59 H24         1.8070   -3.1990   -5.0400 hc        1 8AW      0.087700
     60 H25         2.8140   -4.2600   -3.9720 hc        1 8AW      0.087700
     61 H26         2.4670   -2.8490   -7.4420 ha        1 8AW      0.133500
     62 H27         3.3200   -4.0320   -9.4590 ha        1 8AW      0.163000
     63 H28         4.7090   -6.0940   -9.2090 ha        1 8AW      0.167000
     64 H29         5.2420   -6.9700   -6.9300 ha        1 8AW      0.163000
     65 H30         4.3760   -5.8050   -4.9120 ha        1 8AW      0.133500
     66 H31         5.3100   -3.1130   -3.4160 hn        1 8AW      0.483800
     67 H32         8.2630   -0.8980   -6.7200 h1        1 8AW      0.108200
     68 H33         7.6890    0.2760   -5.3970 h1        1 8AW      0.108200
     69 H34         9.6120   -3.1890   -5.6560 h4        1 8AW      0.057100
     70 H35        11.8260   -1.4310   -2.5400 h5        1 8AW      0.084100
     71 H072        0.9400    1.1290   -0.8980 hn        1 8AW      0.469300
     72 H192        5.3630   -3.3750   -5.0740 hn        1 8AW      0.483800
@<TRIPOS>BOND
     1    1    2 2   
     2    2    3 1   
     3    2    7 1   
     4    3    4 1   
     5    3    6 1   
     6    3   36 1   
     7    4    5 1   
     8    4   37 1   
     9    4   38 1   
    10    5   39 1   
    11    5   40 1   
    12    5   41 1   
    13    6   42 1   
    14    6   43 1   
    15    6   44 1   
    16    7    8 1   
    17    7   45 1   
    18    7   71 1   
    19    8    9 1   
    20    8   16 1   
    21    8   46 1   
    22    9   10 1   
    23    9   47 1   
    24    9   48 1   
    25   10   11 ar  
    26   10   15 ar  
    27   11   12 ar  
    28   11   49 1   
    29   12   13 ar  
    30   12   50 1   
    31   13   14 ar  
    32   13   51 1   
    33   14   15 ar  
    34   14   52 1   
    35   15   53 1   
    36   16   17 1   
    37   16   54 1   
    38   16   55 1   
    39   17   18 1   
    40   17   56 1   
    41   17   57 1   
    42   18   19 1   
    43   18   26 1   
    44   18   58 1   
    45   19   20 1   
    46   19   59 1   
    47   19   60 1   
    48   20   21 ar  
    49   20   25 ar  
    50   21   22 ar  
    51   21   61 1   
    52   22   23 ar  
    53   22   62 1   
    54   23   24 ar  
    55   23   63 1   
    56   24   25 ar  
    57   24   64 1   
    58   25   65 1   
    59   26   27 1   
    60   26   66 1   
    61   26   72 1   
    62   27   28 2   
    63   27   29 1   
    64   29   30 1   
    65   30   31 1   
    66   30   67 1   
    67   30   68 1   
    68   31   32 2   
    69   31   35 1   
    70   32   33 1   
    71   32   69 1   
    72   33   34 2   
    73   34   35 1   
    74   34   70 1   
@<TRIPOS>SUBSTRUCTURE
     1 8AW         1 TEMP              0 ****  ****    0 ROOT
