@<TRIPOS>MOLECULE
8AW
   72    74     1     0     0
SMALL
bcc


@<TRIPOS>ATOM
      1 O06         3.1880   -0.8560   -0.3900 o         1 8AW     -0.438100
      2 C05         2.7230    0.2720   -0.3420 c         1 8AW      0.556100
      3 C03         3.0390    1.3590    0.6640 c3        1 8AW     -0.134700
      4 C02         1.8380    1.5890    1.5760 c3        1 8AW     -0.086400
      5 C01         2.2570    2.2410    2.8700 c3        1 8AW     -0.102100
      6 C04         3.4890    2.6270   -0.0270 c3        1 8AW     -0.122100
      7 N07         1.7060    0.6470   -1.4000 n4        1 8AW     -0.686800
      8 C08         1.1190   -0.4980   -2.1840 c3        1 8AW      0.128500
      9 C29        -0.3370   -0.1820   -2.5850 c3        1 8AW     -0.052100
     10 C30        -1.1630    0.2520   -1.4290 ca        1 8AW     -0.174300
     11 C31        -1.6770   -0.6940   -0.5330 ca        1 8AW     -0.133000
     12 C32        -2.5020   -0.2900    0.5160 ca        1 8AW     -0.112000
     13 C33        -2.8230    1.0590    0.6750 ca        1 8AW     -0.091000
     14 C34        -2.3160    2.0060   -0.2180 ca        1 8AW     -0.112000
     15 C35        -1.4900    1.6060   -1.2660 ca        1 8AW     -0.133000
     16 C09         1.9160   -0.8450   -3.4470 c3        1 8AW     -0.100400
     17 C10         3.1500   -1.6760   -3.1570 c3        1 8AW     -0.117400
     18 C11         3.6880   -2.3120   -4.4450 c3        1 8AW      0.142500
     19 C12         2.8690   -3.5610   -4.8220 c3        1 8AW     -0.051100
     20 C13         3.4170   -4.2460   -6.0230 ca        1 8AW     -0.177300
     21 C14         3.1150   -3.7730   -7.3050 ca        1 8AW     -0.132000
     22 C15         3.5930   -4.4460   -8.4300 ca        1 8AW     -0.108500
     23 C16         4.3710   -5.5950   -8.2800 ca        1 8AW     -0.087000
     24 C17         4.6700   -6.0730   -7.0030 ca        1 8AW     -0.108500
     25 C18         4.1950   -5.4030   -5.8770 ca        1 8AW     -0.132000
     26 N19         5.1500   -2.6860   -4.3160 n4        1 8AW     -0.648800
     27 C20         6.0630   -1.5070   -4.4610 c         1 8AW      0.632100
     28 O21         5.9720   -0.5160   -3.7460 o         1 8AW     -0.463000
     29 O22         6.9160   -1.6990   -5.4720 os        1 8AW     -0.401900
     30 C23         8.0530   -0.7670   -5.6110 c3        1 8AW      0.261700
     31 C24         9.1620   -1.1840   -4.7610 cc        1 8AW     -0.350700
     32 C25         9.8510   -2.4000   -4.8970 cd        1 8AW      0.397200
     33 N26        10.9060   -2.5700   -4.0310 nd        1 8AW     -0.611000
     34 C27        11.0260   -1.4810   -3.2650 cc        1 8AW      0.405300
     35 S28         9.8860   -0.2600   -3.5540 ss        1 8AW     -0.002300
     36 H1          3.8950    0.9530    1.2860 hc        1 8AW      0.133700
     37 H2          1.3450    0.6060    1.8050 hc        1 8AW      0.055200
     38 H3          1.0850    2.2410    1.0570 hc        1 8AW      0.055200
     39 H4          1.3580    2.4030    3.5160 hc        1 8AW      0.063033
     40 H5          2.9770    1.5950    3.4290 hc        1 8AW      0.063033
     41 H6          2.7380    3.2320    2.6830 hc        1 8AW      0.063033
     42 H7          3.9050    3.3300    0.7420 hc        1 8AW      0.068367
     43 H8          4.2950    2.4190   -0.7710 hc        1 8AW      0.068367
     44 H9          2.6410    3.1490   -0.5340 hc        1 8AW      0.068367
     45 H10         0.9290    1.1360   -0.9170 hn        1 8AW      0.469300
     46 H11         1.1110   -1.3890   -1.4830 hx        1 8AW      0.119700
     47 H12        -0.7690   -1.1250   -3.0210 hc        1 8AW      0.089700
     48 H13        -0.3470    0.5970   -3.3930 hc        1 8AW      0.089700
     49 H14        -1.4510   -1.7630   -0.6700 ha        1 8AW      0.136000
     50 H15        -2.9160   -1.0400    1.2090 ha        1 8AW      0.162000
     51 H16        -3.4890    1.3750    1.4950 ha        1 8AW      0.167000
     52 H17        -2.5880    3.0680   -0.1060 ha        1 8AW      0.162000
     53 H18        -1.1380    2.3520   -1.9950 ha        1 8AW      0.136000
     54 H19         1.2200   -1.4270   -4.1140 hc        1 8AW      0.084700
     55 H20         2.1980    0.0840   -4.0110 hc        1 8AW      0.084700
     56 H21         3.9320   -1.0180   -2.6860 hc        1 8AW      0.082700
     57 H22         2.9050   -2.4830   -2.4130 hc        1 8AW      0.082700
     58 H23         3.6330   -1.5670   -5.2950 hx        1 8AW      0.111700
     59 H24         2.8260   -4.2680   -3.9510 hc        1 8AW      0.087700
     60 H25         1.8190   -3.2170   -5.0280 hc        1 8AW      0.087700
     61 H26         2.4820   -2.8820   -7.4310 ha        1 8AW      0.133500
     62 H27         3.3430   -4.0760   -9.4380 ha        1 8AW      0.163000
     63 H28         4.7370   -6.1330   -9.1700 ha        1 8AW      0.167000
     64 H29         5.2670   -6.9920   -6.8850 ha        1 8AW      0.163000
     65 H30         4.3940   -5.8150   -4.8760 ha        1 8AW      0.133500
     66 H31         5.3170   -3.1100   -3.3960 hn        1 8AW      0.483800
     67 H32         8.2730   -0.9100   -6.7100 h1        1 8AW      0.108200
     68 H33         7.6910    0.2710   -5.3960 h1        1 8AW      0.108200
     69 H34         9.6260   -3.1900   -5.6250 h4        1 8AW      0.057100
     70 H35        11.8260   -1.4040   -2.5160 h5        1 8AW      0.084100
     71 H072        2.1490    1.3150   -2.0400 hn        1 8AW      0.469300
     72 H192        5.3750   -3.3840   -5.0530 hn        1 8AW      0.483800
@<TRIPOS>BOND
     1    1    2 2   
     2    2    3 1   
     3    2    7 1   
     4    3    4 1   
     5    3    6 1   
     6    3   36 1   
     7    4    5 1   
     8    4   37 1   
     9    4   38 1   
    10    5   39 1   
    11    5   40 1   
    12    5   41 1   
    13    6   42 1   
    14    6   43 1   
    15    6   44 1   
    16    7    8 1   
    17    7   45 1   
    18    7   71 1   
    19    8    9 1   
    20    8   16 1   
    21    8   46 1   
    22    9   10 1   
    23    9   47 1   
    24    9   48 1   
    25   10   11 ar  
    26   10   15 ar  
    27   11   12 ar  
    28   11   49 1   
    29   12   13 ar  
    30   12   50 1   
    31   13   14 ar  
    32   13   51 1   
    33   14   15 ar  
    34   14   52 1   
    35   15   53 1   
    36   16   17 1   
    37   16   54 1   
    38   16   55 1   
    39   17   18 1   
    40   17   56 1   
    41   17   57 1   
    42   18   19 1   
    43   18   26 1   
    44   18   58 1   
    45   19   20 1   
    46   19   59 1   
    47   19   60 1   
    48   20   21 ar  
    49   20   25 ar  
    50   21   22 ar  
    51   21   61 1   
    52   22   23 ar  
    53   22   62 1   
    54   23   24 ar  
    55   23   63 1   
    56   24   25 ar  
    57   24   64 1   
    58   25   65 1   
    59   26   27 1   
    60   26   66 1   
    61   26   72 1   
    62   27   28 2   
    63   27   29 1   
    64   29   30 1   
    65   30   31 1   
    66   30   67 1   
    67   30   68 1   
    68   31   32 2   
    69   31   35 1   
    70   32   33 1   
    71   32   69 1   
    72   33   34 2   
    73   34   35 1   
    74   34   70 1   
@<TRIPOS>SUBSTRUCTURE
     1 8AW         1 TEMP              0 ****  ****    0 ROOT
