@<TRIPOS>MOLECULE
8AW
   72    74     1     0     0
SMALL
bcc


@<TRIPOS>ATOM
      1 O06         3.2050   -0.8350   -0.3900 o         1 8AW     -0.438100
      2 C05         2.7340    0.2900   -0.3470 c         1 8AW      0.556100
      3 C03         3.0500    1.3860    0.6490 c3        1 8AW     -0.134700
      4 C02         1.8520    1.6160    1.5660 c3        1 8AW     -0.086400
      5 C01         2.2750    2.2800    2.8530 c3        1 8AW     -0.102100
      6 C04         3.4890    2.6520   -0.0530 c3        1 8AW     -0.122100
      7 N07         1.7100    0.6520   -1.4020 n4        1 8AW     -0.686800
      8 C08         1.1220   -0.5030   -2.1720 c3        1 8AW      0.128500
      9 C29        -0.3380   -0.1970   -2.5670 c3        1 8AW     -0.052100
     10 C30        -1.1580    0.2450   -1.4090 ca        1 8AW     -0.174300
     11 C31        -1.6630   -0.6940   -0.5020 ca        1 8AW     -0.133000
     12 C32        -2.4820   -0.2840    0.5490 ca        1 8AW     -0.112000
     13 C33        -2.8070    1.0650    0.6980 ca        1 8AW     -0.091000
     14 C34        -2.3100    2.0060   -0.2060 ca        1 8AW     -0.112000
     15 C35        -1.4880    1.5990   -1.2570 ca        1 8AW     -0.133000
     16 C09         1.9120   -0.8560   -3.4380 c3        1 8AW     -0.100400
     17 C10         3.1540   -1.6760   -3.1490 c3        1 8AW     -0.117400
     18 C11         3.6850   -2.3250   -4.4340 c3        1 8AW      0.142500
     19 C12         2.8720   -3.5830   -4.7880 c3        1 8AW     -0.051100
     20 C13         3.4120   -4.2800   -5.9850 ca        1 8AW     -0.177300
     21 C14         3.0940   -3.8260   -7.2710 ca        1 8AW     -0.132000
     22 C15         3.5660   -4.5090   -8.3910 ca        1 8AW     -0.108500
     23 C16         4.3530   -5.6510   -8.2350 ca        1 8AW     -0.087000
     24 C17         4.6690   -6.1100   -6.9550 ca        1 8AW     -0.108500
     25 C18         4.2000   -5.4290   -5.8330 ca        1 8AW     -0.132000
     26 N19         5.1500   -2.6860   -4.3140 n4        1 8AW     -0.648800
     27 C20         6.0530   -1.5030   -4.4810 c         1 8AW      0.632100
     28 O21         5.9640   -0.5060   -3.7730 o         1 8AW     -0.463000
     29 O22         6.8940   -1.6970   -5.5020 os        1 8AW     -0.401900
     30 C23         8.0230   -0.7580   -5.6620 c3        1 8AW      0.261700
     31 C24         9.1460   -1.1610   -4.8240 cc        1 8AW     -0.351700
     32 C25         9.8410   -2.3730   -4.9580 cd        1 8AW      0.397200
     33 N26        10.9080   -2.5290   -4.1040 nd        1 8AW     -0.611000
     34 C27        11.0310   -1.4330   -3.3490 cc        1 8AW      0.405300
     35 S28         9.8800   -0.2210   -3.6350 ss        1 8AW     -0.002300
     36 H1          3.9110    0.9890    1.2700 hc        1 8AW      0.133700
     37 H2          1.3670    0.6320    1.8050 hc        1 8AW      0.055200
     38 H3          1.0930    2.2590    1.0470 hc        1 8AW      0.055200
     39 H4          1.3790    2.4410    3.5030 hc        1 8AW      0.063033
     40 H5          2.7480    3.2720    2.6560 hc        1 8AW      0.063033
     41 H6          3.0020    1.6420    3.4130 hc        1 8AW      0.063033
     42 H7          3.9050    3.3620    0.7090 hc        1 8AW      0.068367
     43 H8          2.6350    3.1650   -0.5590 hc        1 8AW      0.068367
     44 H9          4.2920    2.4420   -0.8000 hc        1 8AW      0.068367
     45 H10         2.1460    1.3160   -2.0510 hn        1 8AW      0.469300
     46 H11         1.1230   -1.3870   -1.4640 hx        1 8AW      0.119700
     47 H12        -0.7690   -1.1450   -2.9910 hc        1 8AW      0.089700
     48 H13        -0.3560    0.5750   -3.3820 hc        1 8AW      0.089700
     49 H14        -1.4340   -1.7640   -0.6310 ha        1 8AW      0.136000
     50 H15        -2.8890   -1.0300    1.2510 ha        1 8AW      0.162000
     51 H16        -3.4700    1.3860    1.5190 ha        1 8AW      0.167000
     52 H17        -2.5840    3.0680   -0.1030 ha        1 8AW      0.162000
     53 H18        -1.1440    2.3400   -1.9940 ha        1 8AW      0.136000
     54 H19         1.2150   -1.4500   -4.0940 hc        1 8AW      0.084700
     55 H20         2.1840    0.0690   -4.0130 hc        1 8AW      0.084700
     56 H21         3.9360   -1.0080   -2.6920 hc        1 8AW      0.082700
     57 H22         2.9210   -2.4760   -2.3940 hc        1 8AW      0.082700
     58 H23         3.6160   -1.5910   -5.2930 hx        1 8AW      0.111700
     59 H24         2.8420   -4.2800   -3.9070 hc        1 8AW      0.087700
     60 H25         1.8160   -3.2500   -4.9870 hc        1 8AW      0.087700
     61 H26         2.4540   -2.9400   -7.4010 ha        1 8AW      0.133500
     62 H27         3.3030   -4.1540   -9.4010 ha        1 8AW      0.163000
     63 H28         4.7150   -6.1970   -9.1220 ha        1 8AW      0.167000
     64 H29         5.2740   -7.0230   -6.8310 ha        1 8AW      0.163000
     65 H30         4.4130   -5.8270   -4.8290 ha        1 8AW      0.133500
     66 H31         5.3290   -3.0990   -3.3920 hn        1 8AW      0.483800
     67 H32         8.2300   -0.9090   -6.7630 h1        1 8AW      0.108200
     68 H33         7.6570    0.2790   -5.4510 h1        1 8AW      0.108200
     69 H34         9.6110   -3.1710   -5.6760 h4        1 8AW      0.057100
     70 H35        11.8410   -1.3430   -2.6120 h5        1 8AW      0.084100
     71 H072        0.9330    1.1430   -0.9190 hn        1 8AW      0.469300
     72 H192        5.3730   -3.3900   -5.0460 hn        1 8AW      0.483800
@<TRIPOS>BOND
     1    1    2 2   
     2    2    3 1   
     3    2    7 1   
     4    3    4 1   
     5    3    6 1   
     6    3   36 1   
     7    4    5 1   
     8    4   37 1   
     9    4   38 1   
    10    5   39 1   
    11    5   40 1   
    12    5   41 1   
    13    6   42 1   
    14    6   43 1   
    15    6   44 1   
    16    7    8 1   
    17    7   45 1   
    18    7   71 1   
    19    8    9 1   
    20    8   16 1   
    21    8   46 1   
    22    9   10 1   
    23    9   47 1   
    24    9   48 1   
    25   10   11 ar  
    26   10   15 ar  
    27   11   12 ar  
    28   11   49 1   
    29   12   13 ar  
    30   12   50 1   
    31   13   14 ar  
    32   13   51 1   
    33   14   15 ar  
    34   14   52 1   
    35   15   53 1   
    36   16   17 1   
    37   16   54 1   
    38   16   55 1   
    39   17   18 1   
    40   17   56 1   
    41   17   57 1   
    42   18   19 1   
    43   18   26 1   
    44   18   58 1   
    45   19   20 1   
    46   19   59 1   
    47   19   60 1   
    48   20   21 ar  
    49   20   25 ar  
    50   21   22 ar  
    51   21   61 1   
    52   22   23 ar  
    53   22   62 1   
    54   23   24 ar  
    55   23   63 1   
    56   24   25 ar  
    57   24   64 1   
    58   25   65 1   
    59   26   27 1   
    60   26   66 1   
    61   26   72 1   
    62   27   28 2   
    63   27   29 1   
    64   29   30 1   
    65   30   31 1   
    66   30   67 1   
    67   30   68 1   
    68   31   32 2   
    69   31   35 1   
    70   32   33 1   
    71   32   69 1   
    72   33   34 2   
    73   34   35 1   
    74   34   70 1   
@<TRIPOS>SUBSTRUCTURE
     1 8AW         1 TEMP              0 ****  ****    0 ROOT
