@<TRIPOS>MOLECULE
8AX
   57    59     1     0     0
SMALL
bcc


@<TRIPOS>ATOM
      1 N01        -2.5740   -0.5400    2.6610 nb        1 8AX     -0.813000
      2 C02        -1.7400   -1.6250    2.7340 ca        1 8AX      0.627200
      3 N02        -2.3120   -2.8880    3.0170 nv        1 8AX     -0.932500
      4 C03        -0.3470   -1.5200    2.4620 ca        1 8AX     -0.286300
      5 C04         0.1910   -0.2750    2.1340 ca        1 8AX      0.025700
      6 C05        -0.6630    0.8350    2.0870 ca        1 8AX     -0.271300
      7 C06        -2.0340    0.6620    2.3490 ca        1 8AX      0.458600
      8 C07         1.6380   -0.1230    1.8650 c3        1 8AX     -0.075800
      9 C08        -2.9200    1.8810    2.3030 c3        1 8AX     -0.130700
     10 O09        -5.1980    1.3270    0.8600 os        1 8AX     -0.435600
     11 N1'        -4.3390    4.2370   -0.1500 n7        1 8AX     -0.788200
     12 C10        -5.9660    0.2770    0.3070 c3        1 8AX      0.108400
     13 C11        -5.5020   -1.0730    0.8790 c3        1 8AX      0.079800
     14 N12        -5.3410   -1.0340    2.3600 ny        1 8AX     -0.788000
     15 C13        -5.8300   -2.2670    3.0110 c3        1 8AX      0.044800
     16 C14        -5.7950   -2.1800    4.5860 c3        1 8AX      0.469900
     17 F15        -4.5040   -1.9490    5.0210 f         1 8AX     -0.222300
     18 F16        -6.4430   -1.0400    5.0180 f         1 8AX     -0.222300
     19 C2'        -3.3620    3.9500    0.8960 c3        1 8AX      0.150800
     20 C21        -6.3930   -3.4700    5.1120 ca        1 8AX     -0.176300
     21 C22        -7.7350   -3.5090    5.4960 ca        1 8AX     -0.090000
     22 C23        -8.2780   -4.7120    5.9600 ca        1 8AX      0.018400
     23 Cl23       -9.9050   -4.7690    6.4210 cl        1 8AX     -0.044400
     24 C24        -7.4840   -5.8620    6.0480 ca        1 8AX     -0.084000
     25 C25        -6.1430   -5.8050    5.6700 ca        1 8AX     -0.111000
     26 C26        -5.5920   -4.6130    5.2020 ca        1 8AX     -0.101000
     27 C3'        -3.0410    2.4350    0.8990 c3        1 8AX     -0.085700
     28 C4'        -4.1400    1.8060    0.0180 c3        1 8AX      0.107100
     29 C5'        -4.6680    2.9930   -0.8290 c3        1 8AX      0.130800
     30 HN02       -1.6140   -3.5920    3.1470 hn        1 8AX      0.398800
     31 HN0A       -2.9710   -2.8770    3.7700 hn        1 8AX      0.398800
     32 H03         0.3010   -2.4070    2.5110 ha        1 8AX      0.160000
     33 H05        -0.2680    1.8340    1.8530 ha        1 8AX      0.162000
     34 H07         2.0910   -1.0870    1.5240 hc        1 8AX      0.066367
     35 H07A        1.8180    0.6530    1.0800 hc        1 8AX      0.066367
     36 H07B        2.1620    0.2000    2.8010 hc        1 8AX      0.066367
     37 H08        -2.4440    2.6580    2.9650 hc        1 8AX      0.073200
     38 H08A       -3.9380    1.6700    2.7250 hc        1 8AX      0.073200
     39 HN1'       -5.1610    4.6600    0.2400 hn        1 8AX      0.366800
     40 H10        -5.9030    0.2300   -0.8110 h1        1 8AX      0.084700
     41 H10A       -7.0260    0.4930    0.6160 h1        1 8AX      0.084700
     42 H11        -6.2550   -1.8600    0.5950 hx        1 8AX      0.102700
     43 H11A       -4.5030   -1.3540    0.4390 hx        1 8AX      0.102700
     44 HN12       -5.8560   -0.2260    2.7340 hn        1 8AX      0.488300
     45 H13        -5.1820   -3.1320    2.6950 hx        1 8AX      0.121700
     46 H13A       -6.8960   -2.4620    2.7070 hx        1 8AX      0.121700
     47 H2'        -2.4300    4.5330    0.6600 h1        1 8AX      0.058200
     48 H2'A       -3.7270    4.2770    1.9080 h1        1 8AX      0.058200
     49 H22        -8.3540   -2.5970    5.4520 ha        1 8AX      0.164000
     50 H24        -7.9150   -6.8070    6.4190 ha        1 8AX      0.170000
     51 H25        -5.5140   -6.7060    5.7480 ha        1 8AX      0.159000
     52 H26        -4.5290   -4.5640    4.9220 ha        1 8AX      0.138000
     53 H3'        -2.0660    2.2820    0.3580 hc        1 8AX      0.075700
     54 H4'        -3.7400    0.9770   -0.6170 h1        1 8AX      0.058700
     55 H5'        -4.1410    2.9950   -1.8230 h1        1 8AX      0.064700
     56 H5'A       -5.7710    2.8870   -1.0090 h1        1 8AX      0.064700
     57 H122       -4.3060   -0.8720    2.5950 hn        1 8AX      0.488300
@<TRIPOS>BOND
     1    1    2 ar  
     2    1    7 ar  
     3    2    3 1   
     4    2    4 ar  
     5    3   30 1   
     6    3   31 1   
     7    4    5 ar  
     8    4   32 1   
     9    5    6 ar  
    10    5    8 1   
    11    6    7 ar  
    12    6   33 1   
    13    7    9 1   
    14    8   34 1   
    15    8   35 1   
    16    8   36 1   
    17    9   27 1   
    18    9   37 1   
    19    9   38 1   
    20   10   12 1   
    21   10   28 1   
    22   11   19 1   
    23   11   29 1   
    24   11   39 1   
    25   12   13 1   
    26   12   40 1   
    27   12   41 1   
    28   13   14 1   
    29   13   42 1   
    30   13   43 1   
    31   14   15 1   
    32   14   44 1   
    33   14   57 1   
    34   15   16 1   
    35   15   45 1   
    36   15   46 1   
    37   16   17 1   
    38   16   18 1   
    39   16   20 1   
    40   19   27 1   
    41   19   47 1   
    42   19   48 1   
    43   20   21 ar  
    44   20   26 ar  
    45   21   22 ar  
    46   21   49 1   
    47   22   23 1   
    48   22   24 ar  
    49   24   25 ar  
    50   24   50 1   
    51   25   26 ar  
    52   25   51 1   
    53   26   52 1   
    54   27   28 1   
    55   27   53 1   
    56   28   29 1   
    57   28   54 1   
    58   29   55 1   
    59   29   56 1   
@<TRIPOS>SUBSTRUCTURE
     1 8AX         1 TEMP              0 ****  ****    0 ROOT
