@<TRIPOS>MOLECULE
8AX
   56    53     1     0     0
SMALL
bcc


@<TRIPOS>ATOM
      1 N01         1.6660   -2.5850   -4.2810 n1        1 8AX     -0.207000
      2 C02         1.9670   -2.8080   -5.5930 c1        1 8AX      0.108000
      3 N02         1.6800   -4.0860   -6.1890 n3        1 8AX     -0.320000
      4 C03         2.6210   -1.8300   -6.3310 c1        1 8AX     -0.236000
      5 C04         2.9620   -0.6460   -5.7430 c1        1 8AX      0.001000
      6 C05         2.6590   -0.4230   -4.4260 c1        1 8AX     -0.226000
      7 C06         2.0080   -1.3980   -3.6910 c1        1 8AX      0.028000
      8 C07         3.6560    0.4370   -6.5570 c3        1 8AX     -0.186000
      9 C08         1.5850   -1.1120   -2.2350 c3        1 8AX     -0.098000
     10 O09         0.7340   -0.8400    0.0630 os        1 8AX     -0.276000
     11 N1'        -1.0790   -3.4350   -1.2370 n3        1 8AX     -0.268000
     12 C10         0.7110   -0.5830    1.5070 c3        1 8AX     -0.024000
     13 C11        -0.2000    0.6130    1.7980 c3        1 8AX     -0.089000
     14 N12        -0.3990    0.7330    3.2200 n3        1 8AX     -0.300000
     15 C13        -1.3590    1.7900    3.4870 c3        1 8AX     -0.104000
     16 C14        -1.7720    1.7440    4.9600 c3        1 8AX      0.307000
     17 F15        -2.5370    0.6590    5.1770 f         1 8AX     -0.162000
     18 F16        -0.6770    1.6800    5.7280 f         1 8AX     -0.162000
     19 C2'        -0.4880   -2.6780   -2.1460 c3        1 8AX     -0.095000
     20 C21        -2.5810    3.0320    5.3150 c2        1 8AX     -0.140000
     21 C22        -1.9190    4.1590    5.7790 c2        1 8AX     -0.096000
     22 C23        -2.6480    5.3020    6.1320 c1        1 8AX     -0.065000
     23 CL23       -1.8080    6.7700    6.5660 cl        1 8AX     -0.006000
     24 C24        -4.0290    5.3060    6.0180 c2        1 8AX     -0.108000
     25 C25        -4.6950    4.1700    5.5510 c1        1 8AX     -0.123000
     26 C26        -3.9730    3.0360    5.2000 c1        1 8AX     -0.097000
     27 C3'         1.0210   -2.4010   -1.6010 c3        1 8AX     -0.118000
     28 C4'         0.9180   -2.2580   -0.2880 c3        1 8AX      0.008000
     29 C5'        -0.3560   -3.0890    0.1120 c3        1 8AX     -0.124000
     30 HN02        1.2540   -4.7310   -5.7040 hn        1 8AX      0.194500
     31 HN0A        1.9070   -4.2450   -7.0620 hn        1 8AX      0.194500
     32 H03         2.8380   -1.9910   -7.2760 ha        1 8AX      0.141000
     33 H05         2.9030    0.4230   -4.0050 ha        1 8AX      0.144000
     34 H07         4.4250    0.7800   -6.0570 hc        1 8AX      0.088333
     35 H07A        3.9640    0.0580   -7.4140 hc        1 8AX      0.088333
     36 H07B        3.0250    1.1690   -6.7310 hc        1 8AX      0.088333
     37 H08         0.8960   -0.4150   -2.2260 hc        1 8AX      0.108000
     38 H08A        2.3590   -0.8100   -1.7250 hc        1 8AX      0.108000
     39 HN1'       -0.9410   -4.3200   -1.4390 hn        1 8AX      0.142000
     40 H10         1.6280   -0.3830    1.8220 h1        1 8AX      0.085000
     41 H10A        0.3710   -1.3720    1.9740 h1        1 8AX      0.085000
     42 H11         0.2140    1.4280    1.4580 h1        1 8AX      0.083500
     43 H11A       -1.0570    0.4790    1.3620 h1        1 8AX      0.083500
     44 HN12        0.3970    0.9350    3.6220 hn        1 8AX      0.166000
     45 H13        -2.1500    1.6630    2.9220 h1        1 8AX      0.098000
     46 H13A       -0.9550    2.6530    3.2900 h1        1 8AX      0.098000
     47 H2'        -0.9700   -1.8310   -2.2450 h1        1 8AX      0.095000
     48 H2'A       -0.4530   -3.1500   -3.0080 h1        1 8AX      0.095000
     49 H22        -0.9560    4.1270    5.9370 ha        1 8AX      0.160000
     50 H24        -4.5380    6.1050    6.2660 ha        1 8AX      0.151000
     51 H25        -5.6700    4.1730    5.4710 ha        1 8AX      0.144000
     52 H26        -4.4390    2.2430    4.8740 ha        1 8AX      0.152000
     53 H3'         1.6000   -3.1620   -1.8130 hc        1 8AX      0.112000
     54 H4'         1.7120   -2.6190    0.1570 h1        1 8AX      0.084000
     55 H5'        -0.9420   -2.5550    0.6800 h1        1 8AX      0.094000
     56 H5'A       -0.0920   -3.9110    0.5750 h1        1 8AX      0.094000
@<TRIPOS>BOND
     1    1    7 1   
     2    2    3 1   
     3    2    4 1   
     4    3   30 1   
     5    3   31 1   
     6    4   32 1   
     7    5    6 1   
     8    5    8 1   
     9    6   33 1   
    10    7    9 1   
    11    8   34 1   
    12    8   35 1   
    13    8   36 1   
    14    9   27 1   
    15    9   37 1   
    16    9   38 1   
    17   10   12 1   
    18   10   28 1   
    19   11   19 1   
    20   11   29 1   
    21   11   39 1   
    22   12   13 1   
    23   12   40 1   
    24   12   41 1   
    25   13   14 1   
    26   13   42 1   
    27   13   43 1   
    28   14   15 1   
    29   14   44 1   
    30   15   16 1   
    31   15   45 1   
    32   15   46 1   
    33   16   17 1   
    34   16   18 1   
    35   16   20 1   
    36   19   27 1   
    37   19   47 1   
    38   19   48 1   
    39   20   21 1   
    40   20   26 1   
    41   21   22 1   
    42   21   49 1   
    43   22   24 1   
    44   24   25 1   
    45   24   50 1   
    46   25   51 1   
    47   26   52 1   
    48   27   28 1   
    49   27   53 1   
    50   28   29 1   
    51   28   54 1   
    52   29   55 1   
    53   29   56 1   
@<TRIPOS>SUBSTRUCTURE
     1 8AX         1 TEMP              0 ****  ****    0 ROOT
