@<TRIPOS>MOLECULE
8AX
   56    58     1     0     0
SMALL
bcc


@<TRIPOS>ATOM
      1 N01         5.4270    0.6940    1.2410 nb        1 8AX     -0.732000
      2 C02         6.4180    1.6300    1.1050 ca        1 8AX      0.629200
      3 N02         7.5760    1.5140    1.8960 nh        1 8AX     -0.922500
      4 C03         6.3450    2.6760    0.1370 ca        1 8AX     -0.301300
      5 C04         5.2450    2.7290   -0.7170 ca        1 8AX     -0.006300
      6 C05         4.2430    1.7600   -0.5920 ca        1 8AX     -0.291300
      7 C06         4.3740    0.7640    0.3960 ca        1 8AX      0.449600
      8 C07         5.1410    3.7840   -1.7510 c3        1 8AX     -0.060800
      9 C08         3.2750   -0.2550    0.5350 c3        1 8AX     -0.113700
     10 O09         1.4340   -2.0950    0.7700 os        1 8AX     -0.423600
     11 N1'         3.5030   -2.9510   -1.9340 n3        1 8AX     -0.786200
     12 C10         0.4730   -3.0270    1.2660 c3        1 8AX      0.121400
     13 C11        -0.8080   -2.2320    1.5350 c3        1 8AX      0.167800
     14 N12        -1.4620   -1.7890    0.3200 n3        1 8AX     -0.820200
     15 C13        -2.4970   -0.8130    0.5620 c3        1 8AX      0.132800
     16 C14        -3.0390   -0.1490   -0.7540 c3        1 8AX      0.459900
     17 F15        -2.0180    0.4470   -1.4740 f         1 8AX     -0.231800
     18 F16        -3.5030   -1.0830   -1.6580 f         1 8AX     -0.231800
     19 C2'         4.0860   -1.7400   -1.3640 c3        1 8AX      0.140800
     20 C21        -4.1180    0.8460   -0.3420 ca        1 8AX     -0.147300
     21 C22        -5.4390    0.4110   -0.2050 ca        1 8AX     -0.094000
     22 C23        -6.4170    1.3190    0.2120 ca        1 8AX      0.012400
     23 CL23       -8.0250    0.7970    0.3850 cl        1 8AX     -0.085400
     24 C24        -6.0850    2.6500    0.4860 ca        1 8AX     -0.109000
     25 C25        -4.7650    3.0710    0.3380 ca        1 8AX     -0.124000
     26 C26        -3.7800    2.1750   -0.0750 ca        1 8AX     -0.099000
     27 C3'         3.7290   -1.6440    0.1380 c3        1 8AX     -0.079700
     28 C4'         2.6430   -2.7210    0.3550 c3        1 8AX      0.116100
     29 C5'         2.4660   -3.4160   -1.0220 c3        1 8AX      0.112800
     30 HN02        7.5040    0.9000    2.6780 hn        1 8AX      0.398800
     31 HN0A        7.9930    2.3910    2.1140 hn        1 8AX      0.398800
     32 H03         7.1480    3.4210    0.0580 ha        1 8AX      0.141000
     33 H05         3.3670    1.7730   -1.2530 ha        1 8AX      0.145000
     34 H07         5.4850    3.3810   -2.7370 hc        1 8AX      0.049367
     35 H07A        4.0830    4.1250   -1.8630 hc        1 8AX      0.049367
     36 H07B        5.7750    4.6680   -1.4930 hc        1 8AX      0.049367
     37 H08         2.9150   -0.2820    1.6000 hc        1 8AX      0.067700
     38 H08A        2.4030    0.0520   -0.1010 hc        1 8AX      0.067700
     39 HN1'        4.2090   -3.6570   -2.0400 hn        1 8AX      0.345800
     40 H10         0.3060   -3.8450    0.5170 h1        1 8AX      0.040700
     41 H10A        0.8440   -3.4700    2.2280 h1        1 8AX      0.040700
     42 H11        -1.5260   -2.9080    2.0820 h1        1 8AX      0.041200
     43 H11A       -0.5490   -1.3730    2.2210 h1        1 8AX      0.041200
     44 HN12       -0.7890   -1.4430   -0.3410 hn        1 8AX      0.384800
     45 H13        -3.3650   -1.3360    1.0510 h1        1 8AX      0.054700
     46 H13A       -2.1660    0.0350    1.2290 h1        1 8AX      0.054700
     47 H2'         5.1990   -1.7160   -1.5060 h1        1 8AX      0.056200
     48 H2'A        3.6470   -0.8630   -1.9160 h1        1 8AX      0.056200
     49 H22        -5.6990   -0.6340   -0.4340 ha        1 8AX      0.163000
     50 H24        -6.8600    3.3600    0.8120 ha        1 8AX      0.151000
     51 H25        -4.4990    4.1190    0.5470 ha        1 8AX      0.143000
     52 H26        -2.7390    2.5100   -0.2020 ha        1 8AX      0.150000
     53 H3'         4.6260   -1.9260    0.7520 hc        1 8AX      0.070700
     54 H4'         2.9690   -3.4580    1.1360 h1        1 8AX      0.042700
     55 H5'         1.4700   -3.1200   -1.4570 h1        1 8AX      0.057700
     56 H5'A        2.4830   -4.5310   -0.9090 h1        1 8AX      0.057700
@<TRIPOS>BOND
     1    1    2 ar  
     2    1    7 ar  
     3    2    3 1   
     4    2    4 ar  
     5    3   30 1   
     6    3   31 1   
     7    4    5 ar  
     8    4   32 1   
     9    5    6 ar  
    10    5    8 1   
    11    6    7 ar  
    12    6   33 1   
    13    7    9 1   
    14    8   34 1   
    15    8   35 1   
    16    8   36 1   
    17    9   27 1   
    18    9   37 1   
    19    9   38 1   
    20   10   12 1   
    21   10   28 1   
    22   11   19 1   
    23   11   29 1   
    24   11   39 1   
    25   12   13 1   
    26   12   40 1   
    27   12   41 1   
    28   13   14 1   
    29   13   42 1   
    30   13   43 1   
    31   14   15 1   
    32   14   44 1   
    33   15   16 1   
    34   15   45 1   
    35   15   46 1   
    36   16   17 1   
    37   16   18 1   
    38   16   20 1   
    39   19   27 1   
    40   19   47 1   
    41   19   48 1   
    42   20   21 ar  
    43   20   26 ar  
    44   21   22 ar  
    45   21   49 1   
    46   22   23 1   
    47   22   24 ar  
    48   24   25 ar  
    49   24   50 1   
    50   25   26 ar  
    51   25   51 1   
    52   26   52 1   
    53   27   28 1   
    54   27   53 1   
    55   28   29 1   
    56   28   54 1   
    57   29   55 1   
    58   29   56 1   
@<TRIPOS>SUBSTRUCTURE
     1 8AX         1 TEMP              0 ****  ****    0 ROOT
