@<TRIPOS>MOLECULE
8AX
   58    60     1     0     0
SMALL
bcc


@<TRIPOS>ATOM
      1 N01         0.1760    0.0420   -0.3020 nb        1 8AX     -0.669000
      2 C02         1.5340    0.1560   -0.2450 ca        1 8AX      0.454200
      3 N02         2.2390    0.1990   -1.5480 n4        1 8AX     -0.819300
      4 C03         2.2850    0.2350    0.9410 ca        1 8AX     -0.206300
      5 C04         1.5780    0.1960    2.1590 ca        1 8AX      0.011700
      6 C05         0.1870    0.0810    2.1210 ca        1 8AX     -0.203300
      7 C06        -0.4850    0.0060    0.8740 ca        1 8AX      0.455600
      8 C07         2.3130    0.2880    3.4380 c3        1 8AX     -0.085800
      9 C08        -1.9860   -0.1280    0.8620 c3        1 8AX     -0.119700
     10 O09        -4.6750   -0.1660    0.8580 os        1 8AX     -0.460600
     11 N1'        -3.7980    2.9010    1.6800 n3        1 8AX     -0.784200
     12 C10        -5.8720   -0.6690    0.2700 c3        1 8AX      0.101400
     13 C11        -6.4190   -1.7490    1.2060 c3        1 8AX      0.102800
     14 N12        -6.7310   -1.2170    2.5640 n4        1 8AX     -0.755000
     15 C13        -7.3460   -2.2400    3.4510 c3        1 8AX      0.030800
     16 C14        -7.5700   -1.6890    4.9190 c3        1 8AX      0.478900
     17 F15        -6.3610   -1.2750    5.4410 f         1 8AX     -0.221800
     18 F16        -8.2720   -0.5010    4.8660 f         1 8AX     -0.221800
     19 C2'        -2.4960    2.3210    1.3760 c3        1 8AX      0.147800
     20 C21        -8.2570   -2.7860    5.7000 ca        1 8AX     -0.188300
     21 C22        -9.6420   -2.9340    5.5850 ca        1 8AX     -0.098000
     22 C23       -10.2830   -3.9530    6.2960 ca        1 8AX      0.019400
     23 CL23      -11.9560   -4.1440    6.1570 cl        1 8AX     -0.031400
     24 C24        -9.5440   -4.8090    7.1250 ca        1 8AX     -0.074000
     25 C25        -8.1650   -4.6410    7.2390 ca        1 8AX     -0.109000
     26 C26        -7.5150   -3.6310    6.5300 ca        1 8AX     -0.091000
     27 C3'        -2.6630    1.1400    0.3880 c3        1 8AX     -0.088700
     28 C4'        -4.1860    1.0030    0.1800 c3        1 8AX      0.113100
     29 C5'        -4.7930    2.2760    0.8240 c3        1 8AX      0.129800
     30 HN02        1.9810    1.0570   -2.0530 hn        1 8AX      0.474467
     31 HN0A        3.2510    0.1900   -1.3830 hn        1 8AX      0.474467
     32 H03         3.3820    0.3240    0.9490 ha        1 8AX      0.176000
     33 H05        -0.3940    0.0490    3.0570 ha        1 8AX      0.176000
     34 H07         2.6330    1.3470    3.6190 hc        1 8AX      0.081367
     35 H07A        1.6740   -0.0350    4.2980 hc        1 8AX      0.081367
     36 H07B        3.2300   -0.3540    3.4180 hc        1 8AX      0.081367
     37 H08        -2.2850   -0.9780    0.1890 hc        1 8AX      0.074700
     38 H08A       -2.3340   -0.3850    1.8980 hc        1 8AX      0.074700
     39 HN1'       -4.0260    2.7880    2.6490 hn        1 8AX      0.365800
     40 H10        -5.6400   -1.1480   -0.7200 h1        1 8AX      0.080200
     41 H10A       -6.6150    0.1610    0.1200 h1        1 8AX      0.080200
     42 H11        -5.6570   -2.5720    1.3260 hx        1 8AX      0.118700
     43 H11A       -7.3620   -2.1780    0.7600 hx        1 8AX      0.118700
     44 HN12       -7.3730   -0.4160    2.4860 hn        1 8AX      0.464800
     45 H13        -8.3460   -2.5450    3.0340 hx        1 8AX      0.133700
     46 H13A       -6.6690   -3.1370    3.5120 hx        1 8AX      0.133700
     47 H2'        -1.8770    3.1290    0.8950 h1        1 8AX      0.057700
     48 H2'A       -1.9610    1.9860    2.3060 h1        1 8AX      0.057700
     49 H22       -10.2270   -2.2390    4.9610 ha        1 8AX      0.156000
     50 H24       -10.0530   -5.6070    7.6920 ha        1 8AX      0.177000
     51 H25        -7.5850   -5.3050    7.9010 ha        1 8AX      0.166000
     52 H26        -6.4290   -3.4870    6.6420 ha        1 8AX      0.150000
     53 H3'        -2.2260    1.4380   -0.6050 hc        1 8AX      0.084700
     54 H4'        -4.4320    0.9370   -0.9120 h1        1 8AX      0.075700
     55 H5'        -5.0510    3.0110    0.0110 h1        1 8AX      0.063700
     56 H5'A       -5.7330    2.0270    1.3840 h1        1 8AX      0.063700
     57 H023        1.9760   -0.6140   -2.1190 hn        1 8AX      0.474467
     58 H122       -5.8590   -0.8720    2.9930 hn        1 8AX      0.464800
@<TRIPOS>BOND
     1    1    2 ar  
     2    1    7 ar  
     3    2    3 1   
     4    2    4 ar  
     5    3   30 1   
     6    3   31 1   
     7    3   57 1   
     8    4    5 ar  
     9    4   32 1   
    10    5    6 ar  
    11    5    8 1   
    12    6    7 ar  
    13    6   33 1   
    14    7    9 1   
    15    8   34 1   
    16    8   35 1   
    17    8   36 1   
    18    9   27 1   
    19    9   37 1   
    20    9   38 1   
    21   10   12 1   
    22   10   28 1   
    23   11   19 1   
    24   11   29 1   
    25   11   39 1   
    26   12   13 1   
    27   12   40 1   
    28   12   41 1   
    29   13   14 1   
    30   13   42 1   
    31   13   43 1   
    32   14   15 1   
    33   14   44 1   
    34   14   58 1   
    35   15   16 1   
    36   15   45 1   
    37   15   46 1   
    38   16   17 1   
    39   16   18 1   
    40   16   20 1   
    41   19   27 1   
    42   19   47 1   
    43   19   48 1   
    44   20   21 ar  
    45   20   26 ar  
    46   21   22 ar  
    47   21   49 1   
    48   22   23 1   
    49   22   24 ar  
    50   24   25 ar  
    51   24   50 1   
    52   25   26 ar  
    53   25   51 1   
    54   26   52 1   
    55   27   28 1   
    56   27   53 1   
    57   28   29 1   
    58   28   54 1   
    59   29   55 1   
    60   29   56 1   
@<TRIPOS>SUBSTRUCTURE
     1 8AX         1 TEMP              0 ****  ****    0 ROOT
