@<TRIPOS>MOLECULE
8AX
   57    59     1     0     0
SMALL
bcc


@<TRIPOS>ATOM
      1 N01        -2.5670   -0.5600    2.0330 nb        1 8AX     -0.818000
      2 C02        -1.9190   -1.7570    2.1830 ca        1 8AX      0.616200
      3 N02        -2.6960   -2.9410    2.1790 nh        1 8AX     -0.931500
      4 C03        -0.5170   -1.8280    2.4180 ca        1 8AX     -0.282300
      5 C04         0.2210   -0.6460    2.4890 ca        1 8AX      0.024700
      6 C05        -0.4450    0.5750    2.3120 ca        1 8AX     -0.263300
      7 C06        -1.8330    0.5780    2.0880 ca        1 8AX      0.455600
      8 C07         1.6810   -0.6750    2.7250 c3        1 8AX     -0.076800
      9 C08        -2.5240    1.9030    1.8960 c3        1 8AX     -0.129700
     10 O09        -5.1440    1.6340    1.1610 os        1 8AX     -0.432600
     11 N1'        -4.0110    3.9670   -0.7630 n3        1 8AX     -0.788200
     12 C10        -6.3400    0.9010    0.9900 c3        1 8AX      0.108400
     13 C11        -6.1570   -0.5620    1.4250 c3        1 8AX      0.067800
     14 N12        -5.3410   -0.6800    2.6650 n4        1 8AX     -0.783000
     15 C13        -5.5270   -1.9610    3.3800 c3        1 8AX      0.049800
     16 C14        -6.7550   -1.9710    4.3700 c3        1 8AX      0.465900
     17 F15        -6.7020   -0.8710    5.2040 f         1 8AX     -0.224800
     18 F16        -7.9330   -1.7430    3.6860 f         1 8AX     -0.224800
     19 C2'        -2.8620    3.6490    0.0800 c3        1 8AX      0.150800
     20 C21        -6.7220   -3.3000    5.1000 ca        1 8AX     -0.174300
     21 C22        -7.2970   -4.4220    4.4970 ca        1 8AX     -0.098000
     22 C23        -7.2490   -5.6520    5.1590 ca        1 8AX      0.016400
     23 CL23       -7.9360   -7.0190    4.4310 cl        1 8AX     -0.050400
     24 C24        -6.6430   -5.7580    6.4170 ca        1 8AX     -0.085000
     25 C25        -6.0840   -4.6270    7.0100 ca        1 8AX     -0.112000
     26 C26        -6.1220   -3.3950    6.3580 ca        1 8AX     -0.091000
     27 C3'        -2.8890    2.1430    0.4450 c3        1 8AX     -0.077700
     28 C4'        -4.2890    1.6630    0.0100 c3        1 8AX      0.107100
     29 C5'        -4.7750    2.7490   -0.9830 c3        1 8AX      0.128800
     30 HN02       -3.3820   -2.9750    1.4540 hn        1 8AX      0.396800
     31 HN0A       -2.1260   -3.7630    2.1860 hn        1 8AX      0.396800
     32 H03        -0.0190   -2.8000    2.5480 ha        1 8AX      0.160000
     33 H05         0.1140    1.5210    2.3480 ha        1 8AX      0.164000
     34 H07         1.9820    0.1370    3.4320 hc        1 8AX      0.067367
     35 H07A        2.0060   -1.6570    3.1500 hc        1 8AX      0.067367
     36 H07B        2.2230   -0.5140    1.7570 hc        1 8AX      0.067367
     37 H08        -3.4340    1.9690    2.5500 hc        1 8AX      0.072700
     38 H08A       -1.8190    2.7120    2.2360 hc        1 8AX      0.072700
     39 HN1'       -4.5800    4.6730   -0.3340 hn        1 8AX      0.367800
     40 H10        -7.0880    1.4170    1.6540 h1        1 8AX      0.088700
     41 H10A       -6.7060    0.9120   -0.0700 h1        1 8AX      0.088700
     42 H11        -5.6320   -1.1460    0.6190 hx        1 8AX      0.102200
     43 H11A       -7.1760   -1.0140    1.6020 hx        1 8AX      0.102200
     44 HN12       -4.3140   -0.5640    2.3920 hn        1 8AX      0.486300
     45 H13        -4.6000   -2.1650    3.9900 hx        1 8AX      0.128200
     46 H13A       -5.6700   -2.7940    2.6370 hx        1 8AX      0.128200
     47 H2'        -2.8420    4.2820    1.0090 h1        1 8AX      0.058700
     48 H2'A       -1.9340    3.8760   -0.5130 h1        1 8AX      0.058700
     49 H22        -7.8000   -4.3320    3.5210 ha        1 8AX      0.155000
     50 H24        -6.6140   -6.7290    6.9390 ha        1 8AX      0.169000
     51 H25        -5.6170   -4.7050    8.0050 ha        1 8AX      0.160000
     52 H26        -5.6960   -2.5000    6.8380 ha        1 8AX      0.153000
     53 H3'        -2.1460    1.6120   -0.2130 hc        1 8AX      0.075700
     54 H4'        -4.2540    0.6480   -0.4600 h1        1 8AX      0.051700
     55 H5'        -5.8790    2.9190   -0.8750 h1        1 8AX      0.063700
     56 H5'A       -4.5680    2.4020   -2.0330 h1        1 8AX      0.063700
     57 H122       -5.5820    0.0960    3.2930 hn        1 8AX      0.486300
@<TRIPOS>BOND
     1    1    2 ar  
     2    1    7 ar  
     3    2    3 1   
     4    2    4 ar  
     5    3   30 1   
     6    3   31 1   
     7    4    5 ar  
     8    4   32 1   
     9    5    6 ar  
    10    5    8 1   
    11    6    7 ar  
    12    6   33 1   
    13    7    9 1   
    14    8   34 1   
    15    8   35 1   
    16    8   36 1   
    17    9   27 1   
    18    9   37 1   
    19    9   38 1   
    20   10   12 1   
    21   10   28 1   
    22   11   19 1   
    23   11   29 1   
    24   11   39 1   
    25   12   13 1   
    26   12   40 1   
    27   12   41 1   
    28   13   14 1   
    29   13   42 1   
    30   13   43 1   
    31   14   15 1   
    32   14   44 1   
    33   14   57 1   
    34   15   16 1   
    35   15   45 1   
    36   15   46 1   
    37   16   17 1   
    38   16   18 1   
    39   16   20 1   
    40   19   27 1   
    41   19   47 1   
    42   19   48 1   
    43   20   21 ar  
    44   20   26 ar  
    45   21   22 ar  
    46   21   49 1   
    47   22   23 1   
    48   22   24 ar  
    49   24   25 ar  
    50   24   50 1   
    51   25   26 ar  
    52   25   51 1   
    53   26   52 1   
    54   27   28 1   
    55   27   53 1   
    56   28   29 1   
    57   28   54 1   
    58   29   55 1   
    59   29   56 1   
@<TRIPOS>SUBSTRUCTURE
     1 8AX         1 TEMP              0 ****  ****    0 ROOT
