@<TRIPOS>MOLECULE
8BB
   31    31     1     0     0
SMALL
bcc


@<TRIPOS>ATOM
      1 N           3.7490   -0.9290   -0.8160 nh        1 8BB     -0.850600
      2 N1          1.8600    0.2780    0.1230 n         1 8BB     -0.507100
      3 CA          3.2490    0.1380   -0.0810 c2        1 8BB      0.347600
      4 CB          4.0920    1.1280    0.3980 c2        1 8BB     -0.340400
      5 SG          5.7540    1.1020    0.1710 sh        1 8BB     -0.313400
      6 C88         0.8710   -0.7010   -0.0090 c         1 8BB      0.675100
      7 O89         1.1600   -1.8690   -0.3290 o         1 8BB     -0.610100
      8 C90        -2.4630    1.1640   -0.4660 c3        1 8BB     -0.063900
      9 C91        -3.4200    0.0010   -0.2900 c3        1 8BB     -0.191700
     10 C92        -2.8900   -1.0010    0.7180 c3        1 8BB     -0.063900
     11 C93        -1.4800   -1.4500    0.3950 c3        1 8BB     -0.068400
     12 C94        -0.5530   -0.2470    0.2920 c3        1 8BB     -0.124700
     13 C95        -1.0510    0.7090   -0.7820 c3        1 8BB     -0.068400
     14 HN          3.1960   -1.7530   -0.9070 hn        1 8BB      0.436800
     15 H2          4.7360   -1.0500   -0.7450 hn        1 8BB      0.436800
     16 HN1         1.5680    1.1890    0.4040 hn        1 8BB      0.334500
     17 HB          3.6710    2.0040    0.9010 h4        1 8BB      0.138000
     18 HSG         6.1400    0.8160    1.4060 hs        1 8BB      0.153800
     19 H90        -2.8300    1.8210   -1.2960 hc        1 8BB      0.049700
     20 H90A       -2.4670    1.7750    0.4760 hc        1 8BB      0.049700
     21 H91        -3.5720   -0.5090   -1.2780 hc        1 8BB      0.038700
     22 H92        -2.9210   -0.5330    1.7380 hc        1 8BB      0.049700
     23 H92A       -3.5650   -1.8960    0.7360 hc        1 8BB      0.049700
     24 H93        -1.1000   -2.1440    1.1900 hc        1 8BB      0.033950
     25 H93A       -1.4640   -2.0120   -0.5750 hc        1 8BB      0.033950
     26 H94        -0.5580    0.2870    1.2850 hc        1 8BB      0.072700
     27 H95        -1.0340    0.1910   -1.7770 hc        1 8BB      0.033950
     28 H95A       -0.3760    1.6010   -0.8510 hc        1 8BB      0.033950
     29 C96        -4.7910    0.5430    0.2010 c         1 8BB      0.915600
     30 O97        -4.8190    1.1830    1.2900 o         1 8BB     -0.840800
     31 O98        -5.8000    0.3110   -0.5200 o         1 8BB     -0.840800
@<TRIPOS>BOND
     1    1    3 1   
     2    1   14 1   
     3    1   15 1   
     4    2    3 1   
     5    2    6 1   
     6    2   16 1   
     7    3    4 2   
     8    4    5 1   
     9    4   17 1   
    10    5   18 1   
    11    6    7 2   
    12    6   12 1   
    13    8    9 1   
    14    8   13 1   
    15    8   19 1   
    16    8   20 1   
    17    9   10 1   
    18    9   21 1   
    19    9   29 1   
    20   10   11 1   
    21   10   22 1   
    22   10   23 1   
    23   11   12 1   
    24   11   24 1   
    25   11   25 1   
    26   12   13 1   
    27   12   26 1   
    28   13   27 1   
    29   13   28 1   
    30   29   30 1   
    31   29   31 1   
@<TRIPOS>SUBSTRUCTURE
     1 8BB         1 TEMP              0 ****  ****    0 ROOT
