@<TRIPOS>MOLECULE
8BB
   31    30     1     0     0
SMALL
bcc


@<TRIPOS>ATOM
      1 N          -1.3340    0.9340    3.7540 n3        1 8BB     -0.351000
      2 N1          0.1320    1.3980    1.8200 n         1 8BB     -0.349000
      3 CA         -0.4050    1.7900    3.0740 c2        1 8BB      0.246000
      4 CB         -0.0410    2.9700    3.6280 c1        1 8BB     -0.565000
      5 SG         -0.7120    3.4580    5.1930 s         1 8BB      0.095000
      6 C88        -0.5100    0.3650    1.0550 c2        1 8BB      0.318000
      7 O89        -1.6010   -0.0650    1.4030 o         1 8BB     -0.369000
      8 C90         0.5780   -0.1190   -2.7070 c3        1 8BB     -0.142000
      9 C91         0.1700   -1.5800   -2.9090 c3        1 8BB     -0.181000
     10 C92         0.4310   -2.3720   -1.6210 c3        1 8BB     -0.142000
     11 C93        -0.1780   -1.7320   -0.3760 c3        1 8BB     -0.147500
     12 C94         0.2290   -0.2750   -0.1770 c3        1 8BB     -0.114000
     13 C95        -0.0320    0.5190   -1.4620 c3        1 8BB     -0.147500
     14 C96         0.8770   -2.2250   -4.1530 c2        1 8BB      0.335000
     15 O97         2.1340   -2.2340   -4.2270 o         1 8BB     -0.575500
     16 O98         0.1810   -2.6780   -5.1160 o         1 8BB     -0.575500
     17 HN         -1.4700    1.0290    4.6820 hn        1 8BB      0.224000
     18 H2         -1.7610    0.2900    3.3030 hn        1 8BB      0.224000
     19 HN1         0.8690    1.8170    1.4910 hn        1 8BB      0.248000
     20 HB          0.5980    3.5580    3.1600 ha        1 8BB      0.143000
     21 HSG        -0.1330    4.4000    5.5910 hs        1 8BB     -0.014000
     22 H90         1.5630   -0.0730   -2.6340 hc        1 8BB      0.089000
     23 H90A        0.2970    0.3970   -3.4910 hc        1 8BB      0.089000
     24 H91        -0.7660   -1.6450   -3.1710 hc        1 8BB      0.078000
     25 H92         0.0550   -3.2720   -1.7270 hc        1 8BB      0.089000
     26 H92A        1.4120   -2.4490   -1.4900 hc        1 8BB      0.089000
     27 H93         0.0980   -2.2410    0.4020 hc        1 8BB      0.072750
     28 H93A       -1.1770   -1.7760   -0.4500 hc        1 8BB      0.072750
     29 H94         1.1620   -0.2020    0.1020 hc        1 8BB      0.113000
     30 H95        -1.0050    0.5940   -1.5930 hc        1 8BB      0.072750
     31 H95A        0.3420    1.4220   -1.3550 hc        1 8BB      0.072750
@<TRIPOS>BOND
     1    1    3 1   
     2    1   17 1   
     3    1   18 1   
     4    2    3 1   
     5    2    6 1   
     6    2   19 1   
     7    3    4 1   
     8    4   20 1   
     9    5   21 1   
    10    6    7 1   
    11    6   12 1   
    12    8    9 1   
    13    8   13 1   
    14    8   22 1   
    15    8   23 1   
    16    9   10 1   
    17    9   14 1   
    18    9   24 1   
    19   10   11 1   
    20   10   25 1   
    21   10   26 1   
    22   11   12 1   
    23   11   27 1   
    24   11   28 1   
    25   12   13 1   
    26   12   29 1   
    27   13   30 1   
    28   13   31 1   
    29   14   15 1   
    30   14   16 1   
@<TRIPOS>SUBSTRUCTURE
     1 8BB         1 TEMP              0 ****  ****    0 ROOT
