@<TRIPOS>MOLECULE
8BD
   28    28     1     0     0
SMALL
bcc


@<TRIPOS>ATOM
      1 CAA         0.1230    0.2560   -0.1620 c3        1 8BD      0.117700
      2 OAL         1.5080    0.0060    0.0290 os        1 8BD     -0.327900
      3 CAP         1.9480   -0.0420    1.3420 ca        1 8BD      0.124100
      4 CAH         1.1010    0.1270    2.4420 ca        1 8BD     -0.218000
      5 CAF         1.6310    0.0620    3.7320 ca        1 8BD     -0.106000
      6 CAE         2.9880   -0.1690    3.9190 ca        1 8BD     -0.166000
      7 CAG         3.8330   -0.3390    2.8200 ca        1 8BD     -0.077000
      8 CAO         3.3360   -0.2800    1.5140 ca        1 8BD     -0.146900
      9 CAD         4.1860   -0.4490    0.3380 ce        1 8BD      0.356800
     10 NAK         5.4510   -0.7240    0.2020 n2        1 8BD     -0.401200
     11 OAM         6.1790   -0.9040    1.2690 os        1 8BD     -0.220300
     12 CAI         7.6060   -1.1810    1.0080 c3        1 8BD      0.167400
     13 CAJ         8.2170   -1.3590    2.3730 c3        1 8BD     -0.216400
     14 CAN         9.7560   -1.4240    2.2720 c         1 8BD      0.915600
     15 OAC        10.3610   -2.0950    3.1540 o         1 8BD     -0.841300
     16 OAB        10.3250   -0.7960    1.3350 o         1 8BD     -0.841300
     17 HAA        -0.1640    1.2490    0.2610 h1        1 8BD      0.038033
     18 HAAA        0.0100    0.2560   -1.2760 h1        1 8BD      0.038033
     19 HAAB       -0.4940   -0.5560    0.2940 h1        1 8BD      0.038033
     20 HAH         0.0270    0.3100    2.3080 ha        1 8BD      0.125000
     21 HAF         0.9660    0.1950    4.5970 ha        1 8BD      0.120000
     22 HAE         3.4060   -0.2210    4.9350 ha        1 8BD      0.132000
     23 HAG         4.9090   -0.5210    2.9890 ha        1 8BD      0.177000
     24 HAD         3.6690   -0.3230   -0.6370 h4        1 8BD      0.028800
     25 HAI         8.0600   -0.3130    0.4680 h1        1 8BD      0.055200
     26 HAIA        7.6860   -2.1080    0.3880 h1        1 8BD      0.055200
     27 HAJ         7.9490   -0.4950    3.0310 hc        1 8BD      0.036200
     28 HAJA        7.8370   -2.2920    2.8580 hc        1 8BD      0.036200
@<TRIPOS>BOND
     1    1    2 1   
     2    1   17 1   
     3    1   18 1   
     4    1   19 1   
     5    2    3 1   
     6    3    4 ar  
     7    3    8 ar  
     8    4    5 ar  
     9    4   20 1   
    10    5    6 ar  
    11    5   21 1   
    12    6    7 ar  
    13    6   22 1   
    14    7    8 ar  
    15    7   23 1   
    16    8    9 1   
    17    9   10 2   
    18    9   24 1   
    19   10   11 1   
    20   11   12 1   
    21   12   13 1   
    22   12   25 1   
    23   12   26 1   
    24   13   14 1   
    25   13   27 1   
    26   13   28 1   
    27   14   15 1   
    28   14   16 1   
@<TRIPOS>SUBSTRUCTURE
     1 8BD         1 TEMP              0 ****  ****    0 ROOT
