@<TRIPOS>MOLECULE
8BD
   28    25     1     0     0
SMALL
bcc


@<TRIPOS>ATOM
      1 CAA        -2.5290    2.5660   -1.0700 c3        1 8BD     -0.072000
      2 OAL        -1.7520    1.3900   -0.7790 os        1 8BD     -0.211000
      3 CAP        -1.2240    1.3640    0.5010 c2        1 8BD      0.079000
      4 CAH        -2.0870    1.3630    1.6310 c2        1 8BD     -0.218000
      5 CAF        -1.5430    1.3240    2.9330 c1        1 8BD     -0.106000
      6 CAE        -0.1240    1.2850    3.1150 c1        1 8BD     -0.121500
      7 CAG         0.7130    1.2860    2.0160 c1        1 8BD     -0.121500
      8 CAO         0.1590    1.3260    0.6810 c1        1 8BD     -0.063000
      9 CAD         1.0840    1.4300   -0.5150 c2        1 8BD     -0.144000
     10 NAK         1.5680    0.3450   -1.0580 n1        1 8BD     -0.015000
     11 OAM         1.2130   -0.9590   -0.5120 o         1 8BD     -0.247000
     12 CAI         1.9310   -1.9410   -1.1250 c3        1 8BD      0.017000
     13 CAJ         1.1180   -3.2210   -1.1400 c3        1 8BD     -0.245000
     14 CAN         1.6100   -4.1220   -2.2580 c2        1 8BD      0.335000
     15 OAC         2.3580   -5.0570   -2.0030 o         1 8BD     -0.576000
     16 OAB         1.1770   -3.9940   -3.3500 o         1 8BD     -0.576000
     17 HAA        -2.9000    2.4930   -1.9480 h1        1 8BD      0.077333
     18 HAAA       -1.9350    3.3850   -1.0230 h1        1 8BD      0.077333
     19 HAAB       -3.2700    2.6500   -0.4000 h1        1 8BD      0.077333
     20 HAH        -2.9770    1.3870    1.5160 ha        1 8BD      0.125000
     21 HAF        -2.1780    1.3240    3.7700 ha        1 8BD      0.120000
     22 HAE         0.2790    1.2550    4.0770 ha        1 8BD      0.154500
     23 HAG         1.6780    1.2580    2.1420 ha        1 8BD      0.154500
     24 HAD         1.3220    2.3140   -0.8800 h4        1 8BD      0.158000
     25 HAI         2.1590   -1.6480   -2.1340 h1        1 8BD      0.094500
     26 HAIA        2.6930   -2.0780   -0.6740 h1        1 8BD      0.094500
     27 HAJ         1.2220   -3.7040   -0.2360 hc        1 8BD      0.075500
     28 HAJA        0.2360   -3.0180   -1.2770 hc        1 8BD      0.075500
@<TRIPOS>BOND
     1    1    2 1   
     2    1   17 1   
     3    1   18 1   
     4    1   19 1   
     5    2    3 1   
     6    3    4 1   
     7    3    8 1   
     8    4    5 1   
     9    4   20 1   
    10    5   21 1   
    11    6    7 1   
    12    6   22 1   
    13    7   23 1   
    14    8    9 1   
    15    9   10 1   
    16    9   24 1   
    17   11   12 1   
    18   12   13 1   
    19   12   25 1   
    20   12   26 1   
    21   13   14 1   
    22   13   27 1   
    23   13   28 1   
    24   14   15 1   
    25   14   16 1   
@<TRIPOS>SUBSTRUCTURE
     1 8BD         1 TEMP              0 ****  ****    0 ROOT
