@<TRIPOS>MOLECULE
8BD
   28    28     1     0     0
SMALL
bcc


@<TRIPOS>ATOM
      1 CAA         5.1570   -1.1640   -0.2890 c3        1 8BD      0.117700
      2 OAL         3.7380   -1.1630   -0.2370 os        1 8BD     -0.327900
      3 CAP         3.1300    0.0740   -0.0940 ca        1 8BD      0.124100
      4 CAH         3.8410    1.2750   -0.0150 ca        1 8BD     -0.218000
      5 CAF         3.1460    2.4770    0.1270 ca        1 8BD     -0.106000
      6 CAE         1.7580    2.4780    0.1910 ca        1 8BD     -0.166000
      7 CAG         1.0480    1.2770    0.1120 ca        1 8BD     -0.077000
      8 CAO         1.7120    0.0550   -0.0320 ca        1 8BD     -0.146900
      9 CAD         1.0080   -1.2210   -0.1150 ce        1 8BD      0.356800
     10 NAK        -0.2580   -1.5250   -0.1400 n2        1 8BD     -0.401200
     11 OAM        -1.1410   -0.5660   -0.0910 os        1 8BD     -0.220300
     12 CAI        -2.5470   -1.0160   -0.0950 c3        1 8BD      0.167400
     13 CAJ        -3.3550    0.2550   -0.0460 c3        1 8BD     -0.216400
     14 CAN        -4.8480   -0.0630    0.1940 c         1 8BD      0.915600
     15 OAC        -5.6900    0.7490   -0.2800 o         1 8BD     -0.841300
     16 OAB        -5.1440   -1.0970    0.8570 o         1 8BD     -0.841300
     17 HAA         5.4130   -2.2490   -0.3980 h1        1 8BD      0.038033
     18 HAAA        5.5230   -0.5850   -1.1720 h1        1 8BD      0.038033
     19 HAAB        5.5910   -0.7520    0.6540 h1        1 8BD      0.038033
     20 HAH         4.9380    1.2880   -0.0640 ha        1 8BD      0.125000
     21 HAF         3.7050    3.4210    0.1890 ha        1 8BD      0.120000
     22 HAE         1.2090    3.4240    0.3030 ha        1 8BD      0.132000
     23 HAG        -0.0550    1.2980    0.1650 ha        1 8BD      0.177000
     24 HAD         1.6630   -2.1170   -0.1680 h4        1 8BD      0.028800
     25 HAI        -2.7370   -1.5980   -1.0300 h1        1 8BD      0.055200
     26 HAIA       -2.7350   -1.6540    0.8040 h1        1 8BD      0.055200
     27 HAJ        -3.0020    0.9050    0.7930 hc        1 8BD      0.036200
     28 HAJA       -3.2460    0.8300   -0.9980 hc        1 8BD      0.036200
@<TRIPOS>BOND
     1    1    2 1   
     2    1   17 1   
     3    1   18 1   
     4    1   19 1   
     5    2    3 1   
     6    3    4 ar  
     7    3    8 ar  
     8    4    5 ar  
     9    4   20 1   
    10    5    6 ar  
    11    5   21 1   
    12    6    7 ar  
    13    6   22 1   
    14    7    8 ar  
    15    7   23 1   
    16    8    9 1   
    17    9   10 2   
    18    9   24 1   
    19   10   11 1   
    20   11   12 1   
    21   12   13 1   
    22   12   25 1   
    23   12   26 1   
    24   13   14 1   
    25   13   27 1   
    26   13   28 1   
    27   14   15 1   
    28   14   16 1   
@<TRIPOS>SUBSTRUCTURE
     1 8BD         1 TEMP              0 ****  ****    0 ROOT
