@<TRIPOS>MOLECULE
8BD
   28    28     1     0     0
SMALL
bcc


@<TRIPOS>ATOM
      1 CAA         0.1280    0.2740   -0.1660 c3        1 8BD      0.117700
      2 OAL         1.5120    0.0190    0.0270 os        1 8BD     -0.327900
      3 CAP         1.9490   -0.0340    1.3400 ca        1 8BD      0.124100
      4 CAH         1.1020    0.1340    2.4390 ca        1 8BD     -0.218000
      5 CAF         1.6290    0.0630    3.7290 ca        1 8BD     -0.106000
      6 CAE         2.9860   -0.1720    3.9180 ca        1 8BD     -0.166000
      7 CAG         3.8320   -0.3400    2.8190 ca        1 8BD     -0.077000
      8 CAO         3.3370   -0.2760    1.5130 ca        1 8BD     -0.146900
      9 CAD         4.1880   -0.4430    0.3380 ce        1 8BD      0.356800
     10 NAK         5.4530   -0.7210    0.2030 n2        1 8BD     -0.401200
     11 OAM         6.1780   -0.9080    1.2710 os        1 8BD     -0.220300
     12 CAI         7.6050   -1.1880    1.0100 c3        1 8BD      0.167400
     13 CAJ         8.2130   -1.3730    2.3760 c3        1 8BD     -0.216400
     14 CAN         9.7530   -1.4410    2.2770 c         1 8BD      0.915600
     15 OAC        10.3540   -2.1190    3.1560 o         1 8BD     -0.841300
     16 OAB        10.3250   -0.8110    1.3430 o         1 8BD     -0.841300
     17 HAA         0.0160    0.2780   -1.2800 h1        1 8BD      0.038033
     18 HAAA       -0.1580    1.2660    0.2610 h1        1 8BD      0.038033
     19 HAAB       -0.4920   -0.5380    0.2860 h1        1 8BD      0.038033
     20 HAH         0.0290    0.3200    2.3040 ha        1 8BD      0.125000
     21 HAF         0.9630    0.1950    4.5940 ha        1 8BD      0.120000
     22 HAE         3.4020   -0.2280    4.9350 ha        1 8BD      0.132000
     23 HAG         4.9070   -0.5260    2.9900 ha        1 8BD      0.177000
     24 HAD         3.6730   -0.3110   -0.6370 h4        1 8BD      0.028800
     25 HAI         7.6830   -2.1130    0.3880 h1        1 8BD      0.055200
     26 HAIA        8.0620   -0.3190    0.4740 h1        1 8BD      0.055200
     27 HAJ         7.8290   -2.3060    2.8570 hc        1 8BD      0.036200
     28 HAJA        7.9470   -0.5100    3.0370 hc        1 8BD      0.036200
@<TRIPOS>BOND
     1    1    2 1   
     2    1   17 1   
     3    1   18 1   
     4    1   19 1   
     5    2    3 1   
     6    3    4 ar  
     7    3    8 ar  
     8    4    5 ar  
     9    4   20 1   
    10    5    6 ar  
    11    5   21 1   
    12    6    7 ar  
    13    6   22 1   
    14    7    8 ar  
    15    7   23 1   
    16    8    9 1   
    17    9   10 2   
    18    9   24 1   
    19   10   11 1   
    20   11   12 1   
    21   12   13 1   
    22   12   25 1   
    23   12   26 1   
    24   13   14 1   
    25   13   27 1   
    26   13   28 1   
    27   14   15 1   
    28   14   16 1   
@<TRIPOS>SUBSTRUCTURE
     1 8BD         1 TEMP              0 ****  ****    0 ROOT
