@<TRIPOS>MOLECULE
8BD
   28    28     1     0     0
SMALL
bcc


@<TRIPOS>ATOM
      1 CAA         0.1290    0.2880   -0.1610 c3        1 8BD      0.117700
      2 OAL         1.5120    0.0310    0.0300 os        1 8BD     -0.327900
      3 CAP         1.9520   -0.0220    1.3430 ca        1 8BD      0.124100
      4 CAH         1.1070    0.1510    2.4430 ca        1 8BD     -0.218000
      5 CAF         1.6360    0.0820    3.7320 ca        1 8BD     -0.106000
      6 CAE         2.9920   -0.1580    3.9200 ca        1 8BD     -0.166000
      7 CAG         3.8350   -0.3320    2.8200 ca        1 8BD     -0.077000
      8 CAO         3.3380   -0.2690    1.5140 ca        1 8BD     -0.146900
      9 CAD         4.1870   -0.4410    0.3380 ce        1 8BD      0.356800
     10 NAK         5.4500   -0.7260    0.2010 n2        1 8BD     -0.401200
     11 OAM         6.1760   -0.9170    1.2680 os        1 8BD     -0.220300
     12 CAI         7.6000   -1.2050    1.0070 c3        1 8BD      0.167400
     13 CAJ         8.2090   -1.3940    2.3720 c3        1 8BD     -0.216400
     14 CAN         9.7480   -1.4700    2.2710 c         1 8BD      0.915600
     15 OAC        10.3470   -2.1540    3.1470 o         1 8BD     -0.841300
     16 OAB        10.3220   -0.8380    1.3390 o         1 8BD     -0.841300
     17 HAA         0.0150    0.2900   -1.2750 h1        1 8BD      0.038033
     18 HAAA       -0.1540    1.2820    0.2640 h1        1 8BD      0.038033
     19 HAAB       -0.4930   -0.5210    0.2950 h1        1 8BD      0.038033
     20 HAH         0.0340    0.3420    2.3090 ha        1 8BD      0.125000
     21 HAF         0.9720    0.2180    4.5980 ha        1 8BD      0.120000
     22 HAE         3.4090   -0.2140    4.9350 ha        1 8BD      0.132000
     23 HAG         4.9100   -0.5210    2.9890 ha        1 8BD      0.177000
     24 HAD         3.6720   -0.3070   -0.6370 h4        1 8BD      0.028800
     25 HAI         7.6730   -2.1300    0.3830 h1        1 8BD      0.055200
     26 HAIA        8.0620   -0.3380    0.4700 h1        1 8BD      0.055200
     27 HAJ         7.8210   -2.3260    2.8510 hc        1 8BD      0.036200
     28 HAJA        7.9480   -0.5310    3.0330 hc        1 8BD      0.036200
@<TRIPOS>BOND
     1    1    2 1   
     2    1   17 1   
     3    1   18 1   
     4    1   19 1   
     5    2    3 1   
     6    3    4 ar  
     7    3    8 ar  
     8    4    5 ar  
     9    4   20 1   
    10    5    6 ar  
    11    5   21 1   
    12    6    7 ar  
    13    6   22 1   
    14    7    8 ar  
    15    7   23 1   
    16    8    9 1   
    17    9   10 2   
    18    9   24 1   
    19   10   11 1   
    20   11   12 1   
    21   12   13 1   
    22   12   25 1   
    23   12   26 1   
    24   13   14 1   
    25   13   27 1   
    26   13   28 1   
    27   14   15 1   
    28   14   16 1   
@<TRIPOS>SUBSTRUCTURE
     1 8BD         1 TEMP              0 ****  ****    0 ROOT
