@<TRIPOS>MOLECULE
8BR
   35    32     1     0     0
SMALL
bcc


@<TRIPOS>ATOM
      1 P          -1.4270   -4.9690    1.8160 p4        1 8BR      1.706200
      2 O1P        -0.0050   -5.2970    2.1590 o         1 8BR     -0.941000
      3 O2P        -2.3250   -5.2440    3.0320 os        1 8BR     -1.231000
      4 O3P        -1.8830   -5.8400    0.6370 o         1 8BR     -0.989800
      5 O5'        -1.5350   -3.4000    1.4040 os        1 8BR     -0.561200
      6 C5'        -0.8580   -2.9700    0.2530 c3        1 8BR      0.233400
      7 C4'        -1.4980   -1.6540   -0.2670 c3        1 8BR      0.066100
      8 O4'        -1.0210   -0.6230    0.3980 os        1 8BR     -0.429600
      9 C3'        -1.0960   -1.4100   -1.7210 c3        1 8BR      0.139100
     10 O3'        -2.1680   -1.5660   -2.5340 oh        1 8BR     -0.696800
     11 C2'        -0.5920    0.0760   -1.7770 c3        1 8BR      0.111100
     12 O2'        -1.2440    0.8040   -2.9180 oh        1 8BR     -0.628800
     13 C1'        -0.9470    0.5920   -0.6530 c3        1 8BR      0.218800
     14 N9          0.0170    1.5500   -0.2280 n3        1 8BR     -0.059400
     15 C8         -0.5170    2.7520   -0.5650 c1        1 8BR      0.123400
     16 BR8        -1.9400    3.9630   -1.0170 br        1 8BR      0.117000
     17 N7          0.2690    3.6990   -0.0850 ne        1 8BR     -0.394400
     18 C5          1.3060    3.0980    0.5590 cg        1 8BR     -0.189000
     19 C6          2.4260    3.6180    1.2370 c1        1 8BR      0.572600
     20 N6          3.0050    4.8980    1.5060 n3        1 8BR     -0.802400
     21 N1          3.3190    2.7880    1.7840 n1        1 8BR     -0.598800
     22 C2          3.1460    1.4230    1.6840 c1        1 8BR      0.395300
     23 N3          2.0650    0.9190    1.0300 n1        1 8BR     -0.454800
     24 C4          1.1390    1.7750    0.4640 c1        1 8BR      0.025700
     25 H5'1       -0.9210   -3.6510   -0.4300 h1        1 8BR      0.006700
     26 H5'2        0.0610   -2.8170    0.4640 h1        1 8BR      0.006700
     27 H4'        -2.4330   -1.6920   -0.1890 h1        1 8BR      0.070700
     28 H3'        -0.4040   -2.0000   -1.9740 h1        1 8BR      0.120700
     29 HO3'       -2.0080   -2.2320   -3.1230 ho        1 8BR      0.521000
     30 H2'         0.3680    0.1000   -1.8670 h1        1 8BR      0.072700
     31 HO2'       -0.6670    0.8490   -3.6200 ho        1 8BR      0.434000
     32 H1'        -1.8340    1.0190   -0.7420 h2        1 8BR      0.069700
     33 HN61        3.7630    4.9660    2.0680 hn        1 8BR      0.409800
     34 HN62        2.6370    5.6620    1.1280 hn        1 8BR      0.409800
     35 H2          3.8020    0.8150    2.0860 ha        1 8BR      0.145500
@<TRIPOS>BOND
     1    1    2 1   
     2    1    4 2   
     3    1    5 1   
     4    5    6 1   
     5    6    7 1   
     6    6   25 1   
     7    6   26 1   
     8    7    8 1   
     9    7    9 1   
    10    7   27 1   
    11    8   13 1   
    12    9   10 1   
    13    9   11 1   
    14    9   28 1   
    15   10   29 1   
    16   11   12 1   
    17   11   13 1   
    18   11   30 1   
    19   12   31 1   
    20   13   14 1   
    21   13   32 1   
    22   14   15 2   
    23   14   24 1   
    24   15   17 2   
    25   17   18 1   
    26   18   24 3   
    27   19   20 1   
    28   19   21 3   
    29   20   33 1   
    30   20   34 1   
    31   22   23 3   
    32   22   35 1   
@<TRIPOS>SUBSTRUCTURE
     1 8BR         1 TEMP              0 ****  ****    0 ROOT
