@<TRIPOS>MOLECULE
8BR
   35    37     1     0     0
SMALL
bcc


@<TRIPOS>ATOM
      1 P           0.2930   -0.0270   -0.8660 p5        1 8BR      1.336900
      2 O1P         1.5130    0.3950   -0.1010 o         1 8BR     -0.931167
      3 O2P        -0.5600   -1.1180   -0.2980 o         1 8BR     -0.931167
      4 O3P         0.4720   -0.0220   -2.3730 o         1 8BR     -0.931167
      5 O5'        -0.7220    1.3850   -0.7380 os        1 8BR     -0.560200
      6 C5'        -0.1360    2.5340   -1.1930 c3        1 8BR      0.230400
      7 C4'        -0.6810    2.8940   -2.5960 c3        1 8BR      0.063100
      8 O4'        -0.8600    4.3300   -2.7120 os        1 8BR     -0.432600
      9 C3'         0.2220    2.4280   -3.7530 c3        1 8BR      0.137100
     10 O3'        -0.4030    1.4140   -4.5040 oh        1 8BR     -0.693800
     11 C2'         0.4160    3.6640   -4.6610 c3        1 8BR      0.114100
     12 O2'        -0.2750    3.6220   -5.8930 oh        1 8BR     -0.627800
     13 C1'        -0.1750    4.8530   -3.8340 c3        1 8BR      0.215800
     14 N9          0.8160    5.8460   -3.4110 na        1 8BR     -0.223000
     15 C8          0.5580    7.2210   -3.1710 cc        1 8BR      0.358800
     16 BR8        -0.9800    8.0920   -3.7670 br        1 8BR     -0.010300
     17 N7          1.5470    7.8670   -2.5150 nd        1 8BR     -0.547100
     18 C5          2.5040    6.8820   -2.2560 ca        1 8BR     -0.226200
     19 C6          3.7630    6.9040   -1.5730 ca        1 8BR      0.700200
     20 N6          4.2820    8.1200   -1.1150 nh        1 8BR     -0.924500
     21 N1          4.4680    5.7440   -1.4370 nb        1 8BR     -0.790000
     22 C2          3.9360    4.6140   -1.9990 ca        1 8BR      0.679900
     23 N3          2.7910    4.4500   -2.6890 nb        1 8BR     -0.660000
     24 C4          2.0540    5.5980   -2.7960 ca        1 8BR      0.471800
     25 H5'1       -0.4030    3.3940   -0.5100 h1        1 8BR      0.005200
     26 H5'2        0.9860    2.4320   -1.2320 h1        1 8BR      0.005200
     27 H4'        -1.7140    2.4630   -2.7110 h1        1 8BR      0.073700
     28 H3'         1.2130    2.0630   -3.3640 h1        1 8BR      0.121700
     29 HO3'       -0.2980    0.5890   -3.9640 ho        1 8BR      0.520000
     30 H2'         1.4930    3.8150   -4.9290 h1        1 8BR      0.076700
     31 HO2'       -0.9280    2.9100   -5.8440 ho        1 8BR      0.433000
     32 H1'        -0.9360    5.4170   -4.4540 h2        1 8BR      0.072700
     33 HN61        3.5830    8.8050   -0.9260 hn        1 8BR      0.401800
     34 HN62        4.9830    8.0490   -0.4110 hn        1 8BR      0.401800
     35 H2          4.5300    3.6860   -1.8430 h5        1 8BR      0.069100
@<TRIPOS>BOND
     1    1    2 1   
     2    1    3 1   
     3    1    4 1   
     4    1    5 1   
     5    5    6 1   
     6    6    7 1   
     7    6   25 1   
     8    6   26 1   
     9    7    8 1   
    10    7    9 1   
    11    7   27 1   
    12    8   13 1   
    13    9   10 1   
    14    9   11 1   
    15    9   28 1   
    16   10   29 1   
    17   11   12 1   
    18   11   13 1   
    19   11   30 1   
    20   12   31 1   
    21   13   14 1   
    22   13   32 1   
    23   14   15 1   
    24   14   24 1   
    25   15   16 1   
    26   15   17 2   
    27   17   18 1   
    28   18   19 ar  
    29   18   24 ar  
    30   19   20 1   
    31   19   21 ar  
    32   20   33 1   
    33   20   34 1   
    34   21   22 ar  
    35   22   23 ar  
    36   22   35 1   
    37   23   24 ar  
@<TRIPOS>SUBSTRUCTURE
     1 8BR         1 TEMP              0 ****  ****    0 ROOT
