@<TRIPOS>MOLECULE
8BR
   35    37     1     0     0
SMALL
bcc


@<TRIPOS>ATOM
      1 P           0.0390    0.3320   -4.6760 p5        1 8BR      1.336900
      2 O1P         1.5040    0.5470   -4.4340 o         1 8BR     -0.931167
      3 O2P        -0.3880   -0.2120   -6.0040 o         1 8BR     -0.931167
      4 O3P        -0.8560    1.3910   -4.0590 o         1 8BR     -0.931167
      5 O5'        -0.3240   -0.9670   -3.5720 os        1 8BR     -0.560200
      6 C5'         0.0020   -0.6990   -2.2710 c3        1 8BR      0.230400
      7 C4'        -1.2690   -0.3360   -1.4640 c3        1 8BR      0.063100
      8 O4'        -1.2000   -0.9140   -0.1340 os        1 8BR     -0.432600
      9 C3'        -1.5020    1.1780   -1.3190 c3        1 8BR      0.137100
     10 O3'        -2.6480    1.5830   -2.0300 oh        1 8BR     -0.693800
     11 C2'        -1.7450    1.4250    0.1880 c3        1 8BR      0.114100
     12 O2'        -3.0800    1.7260    0.5420 oh        1 8BR     -0.627800
     13 C1'        -1.3760    0.0670    0.8700 c3        1 8BR      0.215800
     14 N9         -0.1970    0.1280    1.7380 na        1 8BR     -0.223000
     15 C8          0.0460   -0.7030    2.8630 cc        1 8BR      0.358800
     16 BR8        -1.2830   -1.7170    3.6900 br        1 8BR     -0.010300
     17 N7          1.3160   -0.6610    3.3230 nd        1 8BR     -0.547100
     18 C5          1.9820    0.2000    2.4490 ca        1 8BR     -0.226200
     19 C6          3.3430    0.6410    2.3640 ca        1 8BR      0.700200
     20 N6          4.2540    0.2710    3.3600 nh        1 8BR     -0.924500
     21 N1          3.7140    1.4680    1.3450 nb        1 8BR     -0.790000
     22 C2          2.7400    1.8630    0.4680 ca        1 8BR      0.679900
     23 N3          1.4280    1.5580    0.4400 nb        1 8BR     -0.660000
     24 C4          1.0520    0.6940    1.4320 ca        1 8BR      0.471800
     25 H5'1        0.7510    0.1400   -2.2040 h1        1 8BR      0.005200
     26 H5'2        0.4400   -1.6230   -1.7900 h1        1 8BR      0.005200
     27 H4'        -2.1610   -0.8230   -1.9460 h1        1 8BR      0.073700
     28 H3'        -0.6050    1.7570   -1.6750 h1        1 8BR      0.121700
     29 HO3'       -2.3650    1.6220   -2.9790 ho        1 8BR      0.520000
     30 H2'        -1.1340    2.2830    0.5710 h1        1 8BR      0.076700
     31 HO2'       -3.6450    1.5040   -0.2100 ho        1 8BR      0.433000
     32 H1'        -2.2290   -0.2820    1.5280 h2        1 8BR      0.072700
     33 HN61        5.2150    0.3460    3.1100 hn        1 8BR      0.401800
     34 HN62        4.0170   -0.5810    3.8190 hn        1 8BR      0.401800
     35 H2          3.0900    2.5170   -0.3620 h5        1 8BR      0.069100
@<TRIPOS>BOND
     1    1    2 1   
     2    1    3 1   
     3    1    4 1   
     4    1    5 1   
     5    5    6 1   
     6    6    7 1   
     7    6   25 1   
     8    6   26 1   
     9    7    8 1   
    10    7    9 1   
    11    7   27 1   
    12    8   13 1   
    13    9   10 1   
    14    9   11 1   
    15    9   28 1   
    16   10   29 1   
    17   11   12 1   
    18   11   13 1   
    19   11   30 1   
    20   12   31 1   
    21   13   14 1   
    22   13   32 1   
    23   14   15 1   
    24   14   24 1   
    25   15   16 1   
    26   15   17 2   
    27   17   18 1   
    28   18   19 ar  
    29   18   24 ar  
    30   19   20 1   
    31   19   21 ar  
    32   20   33 1   
    33   20   34 1   
    34   21   22 ar  
    35   22   23 ar  
    36   22   35 1   
    37   23   24 ar  
@<TRIPOS>SUBSTRUCTURE
     1 8BR         1 TEMP              0 ****  ****    0 ROOT
