@<TRIPOS>MOLECULE
8BR
   35    37     1     0     0
SMALL
bcc


@<TRIPOS>ATOM
      1 P           0.2670   -0.0170   -0.8540 p5        1 8BR      1.336900
      2 O1P         1.5120    0.3830   -0.1170 o         1 8BR     -0.931167
      3 O2P        -0.5890   -1.0960   -0.2670 o         1 8BR     -0.931167
      4 O3P         0.4110   -0.0130   -2.3650 o         1 8BR     -0.931167
      5 O5'        -0.7210    1.4110   -0.7000 os        1 8BR     -0.560200
      6 C5'        -0.1270    2.5510   -1.1670 c3        1 8BR      0.230400
      7 C4'        -0.6990    2.9220   -2.5570 c3        1 8BR      0.063100
      8 O4'        -0.8580    4.3620   -2.6660 os        1 8BR     -0.432600
      9 C3'         0.1690    2.4440   -3.7340 c3        1 8BR      0.137100
     10 O3'        -0.4890    1.4410   -4.4720 oh        1 8BR     -0.693800
     11 C2'         0.3610    3.6780   -4.6460 c3        1 8BR      0.114100
     12 O2'        -0.3590    3.6500   -5.8610 oh        1 8BR     -0.627800
     13 C1'        -0.1910    4.8750   -3.8030 c3        1 8BR      0.215800
     14 N9          0.8260    5.8510   -3.4020 na        1 8BR     -0.223000
     15 C8          0.5960    7.2290   -3.1550 cc        1 8BR      0.358800
     16 Br8        -0.9410    8.1260   -3.7120 br        1 8BR     -0.010300
     17 N7          1.6110    7.8590   -2.5210 nd        1 8BR     -0.547100
     18 C5          2.5570    6.8590   -2.2860 ca        1 8BR     -0.226200
     19 C6          3.8320    6.8590   -1.6330 ca        1 8BR      0.700200
     20 N6          4.3810    8.0660   -1.1860 nv        1 8BR     -0.924500
     21 N1          4.5210    5.6880   -1.5150 nb        1 8BR     -0.790000
     22 C2          3.9590    4.5680   -2.0660 ca        1 8BR      0.679900
     23 N3          2.7940    4.4230   -2.7290 nb        1 8BR     -0.660000
     24 C4          2.0740    5.5830   -2.8170 ca        1 8BR      0.471800
     25 H5'1        0.9910    2.4300   -1.2320 h1        1 8BR      0.005200
     26 H5'2       -0.3640    3.4140   -0.4760 h1        1 8BR      0.005200
     27 H4'        -1.7410    2.5090   -2.6470 h1        1 8BR      0.073700
     28 H3'         1.1630    2.0620   -3.3690 h1        1 8BR      0.121700
     29 HO3'       -0.3860    0.6140   -3.9360 ho        1 8BR      0.520000
     30 H2'         1.4340    3.8130   -4.9390 h1        1 8BR      0.076700
     31 HO2'       -1.0220    2.9480   -5.7970 ho        1 8BR      0.433000
     32 H1'        -0.9570    5.4520   -4.4040 h2        1 8BR      0.072700
     33 HN61        5.0970    7.9820   -0.4990 hn        1 8BR      0.401800
     34 HN62        3.6990    8.7610   -0.9800 hn        1 8BR      0.401800
     35 H2          4.5410    3.6300   -1.9260 h5        1 8BR      0.069100
@<TRIPOS>BOND
     1    1    2 1   
     2    1    3 1   
     3    1    4 1   
     4    1    5 1   
     5    5    6 1   
     6    6    7 1   
     7    6   25 1   
     8    6   26 1   
     9    7    8 1   
    10    7    9 1   
    11    7   27 1   
    12    8   13 1   
    13    9   10 1   
    14    9   11 1   
    15    9   28 1   
    16   10   29 1   
    17   11   12 1   
    18   11   13 1   
    19   11   30 1   
    20   12   31 1   
    21   13   14 1   
    22   13   32 1   
    23   14   15 1   
    24   14   24 1   
    25   15   16 1   
    26   15   17 2   
    27   17   18 1   
    28   18   19 ar  
    29   18   24 ar  
    30   19   20 1   
    31   19   21 ar  
    32   20   33 1   
    33   20   34 1   
    34   21   22 ar  
    35   22   23 ar  
    36   22   35 1   
    37   23   24 ar  
@<TRIPOS>SUBSTRUCTURE
     1 8BR         1 TEMP              0 ****  ****    0 ROOT
