@<TRIPOS>MOLECULE
8BR
   35    37     1     0     0
SMALL
bcc


@<TRIPOS>ATOM
      1 P           0.2850   -0.0390   -0.8980 p5        1 8BR      1.336900
      2 O1P         1.5060    0.3750   -0.1300 o         1 8BR     -0.931167
      3 O2P        -0.5690   -1.1330   -0.3390 o         1 8BR     -0.931167
      4 O3P         0.4650   -0.0220   -2.4060 o         1 8BR     -0.931167
      5 O5'        -0.7270    1.3740   -0.7590 os        1 8BR     -0.560200
      6 C5'        -0.1380    2.5260   -1.2050 c3        1 8BR      0.230400
      7 C4'        -0.6830    2.8980   -2.6060 c3        1 8BR      0.063100
      8 O4'        -0.8600    4.3350   -2.7100 os        1 8BR     -0.432600
      9 C3'         0.2190    2.4390   -3.7650 c3        1 8BR      0.137100
     10 O3'        -0.4070    1.4320   -4.5240 oh        1 8BR     -0.693800
     11 C2'         0.4150    3.6820   -4.6640 c3        1 8BR      0.114100
     12 O2'        -0.2760    3.6510   -5.8960 oh        1 8BR     -0.627800
     13 C1'        -0.1740    4.8650   -3.8280 c3        1 8BR      0.215800
     14 N9          0.8200    5.8530   -3.3970 na        1 8BR     -0.223000
     15 C8          0.5640    7.2260   -3.1450 cc        1 8BR      0.358800
     16 BR8        -0.9720    8.1050   -3.7340 br        1 8BR     -0.010300
     17 N7          1.5540    7.8650   -2.4840 nd        1 8BR     -0.547100
     18 C5          2.5090    6.8770   -2.2330 ca        1 8BR     -0.226200
     19 C6          3.7680    6.8910   -1.5500 ca        1 8BR      0.700200
     20 N6          4.2900    8.1020   -1.0820 nh        1 8BR     -0.924500
     21 N1          4.4710    5.7290   -1.4230 nb        1 8BR     -0.790000
     22 C2          3.9380    4.6040   -1.9950 ca        1 8BR      0.679900
     23 N3          2.7920    4.4480   -2.6860 nb        1 8BR     -0.660000
     24 C4          2.0570    5.5980   -2.7830 ca        1 8BR      0.471800
     25 H5'1       -0.4050    3.3810   -0.5150 h1        1 8BR      0.005200
     26 H5'2        0.9830    2.4210   -1.2450 h1        1 8BR      0.005200
     27 H4'        -1.7170    2.4700   -2.7240 h1        1 8BR      0.073700
     28 H3'         1.2100    2.0690   -3.3790 h1        1 8BR      0.121700
     29 HO3'       -0.3040    0.6030   -3.9910 ho        1 8BR      0.520000
     30 H2'         1.4930    3.8330   -4.9310 h1        1 8BR      0.076700
     31 HO2'       -0.9300    2.9400   -5.8530 ho        1 8BR      0.433000
     32 H1'        -0.9330    5.4360   -4.4430 h2        1 8BR      0.072700
     33 HN61        4.9900    8.0240   -0.3790 hn        1 8BR      0.401800
     34 HN62        3.5920    8.7860   -0.8880 hn        1 8BR      0.401800
     35 H2          4.5300    3.6740   -1.8470 h5        1 8BR      0.069100
@<TRIPOS>BOND
     1    1    2 1   
     2    1    3 1   
     3    1    4 1   
     4    1    5 1   
     5    5    6 1   
     6    6    7 1   
     7    6   25 1   
     8    6   26 1   
     9    7    8 1   
    10    7    9 1   
    11    7   27 1   
    12    8   13 1   
    13    9   10 1   
    14    9   11 1   
    15    9   28 1   
    16   10   29 1   
    17   11   12 1   
    18   11   13 1   
    19   11   30 1   
    20   12   31 1   
    21   13   14 1   
    22   13   32 1   
    23   14   15 1   
    24   14   24 1   
    25   15   16 1   
    26   15   17 2   
    27   17   18 1   
    28   18   19 ar  
    29   18   24 ar  
    30   19   20 1   
    31   19   21 ar  
    32   20   33 1   
    33   20   34 1   
    34   21   22 ar  
    35   22   23 ar  
    36   22   35 1   
    37   23   24 ar  
@<TRIPOS>SUBSTRUCTURE
     1 8BR         1 TEMP              0 ****  ****    0 ROOT
