@<TRIPOS>MOLECULE
8BX
   56    58     1     0     0
SMALL
bcc


@<TRIPOS>ATOM
      1 N01        -5.3380    0.6070   -1.0720 nb        1 8BX     -0.731000
      2 C02        -6.3240    1.5460   -0.9110 ca        1 8BX      0.631200
      3 N02        -7.5490    1.3650   -1.5760 nh        1 8BX     -0.923500
      4 C03        -6.1710    2.6610   -0.0330 ca        1 8BX     -0.302300
      5 C04        -4.9950    2.7830    0.7040 ca        1 8BX     -0.005300
      6 C05        -3.9980    1.8130    0.5550 ca        1 8BX     -0.294300
      7 C06        -4.2110    0.7460   -0.3410 ca        1 8BX      0.450600
      8 C07        -4.8060    3.9130    1.6430 c3        1 8BX     -0.061800
      9 C08        -3.1190   -0.2780   -0.5070 c3        1 8BX     -0.117700
     10 O09        -1.3060   -2.1310   -0.8080 os        1 8BX     -0.430600
     11 N1'        -2.6300   -2.4160    2.2450 n3        1 8BX     -0.789200
     12 C10        -0.4830   -3.0870   -1.4720 c3        1 8BX      0.123400
     13 C11         0.7840   -2.3450   -1.9120 c3        1 8BX      0.166800
     14 N12         1.6260   -1.9640   -0.7960 n3        1 8BX     -0.819200
     15 C13         2.6890   -1.0600   -1.1720 c3        1 8BX      0.130800
     16 C14         3.2960   -0.2780    0.0520 c3        1 8BX      0.460900
     17 F15         2.2880    0.4200    0.6980 f         1 8BX     -0.230300
     18 F16         3.7070   -1.1580    1.0360 f         1 8BX     -0.230300
     19 C2'        -3.6440   -1.5720    1.6210 c3        1 8BX      0.140800
     20 C21         4.4350    0.6490   -0.3870 ca        1 8BX     -0.141300
     21 C22         5.1010    1.4820    0.5310 ca        1 8BX      0.056400
     22 CL22        4.7110    1.5290    2.1840 cl        1 8BX     -0.065400
     23 C23         6.1390    2.3230    0.1080 ca        1 8BX     -0.134000
     24 C24         6.5270    2.3410   -1.2280 ca        1 8BX     -0.101000
     25 C25         5.8800    1.5150   -2.1440 ca        1 8BX     -0.137000
     26 C26         4.8470    0.6800   -1.7250 ca        1 8BX     -0.097000
     27 C3'        -3.5020   -1.6210    0.0820 c3        1 8BX     -0.080700
     28 C4'        -2.4460   -2.7180   -0.1840 c3        1 8BX      0.115100
     29 C5'        -2.0750   -3.2820    1.2130 c3        1 8BX      0.116800
     30 HN02       -7.5470    0.6930   -2.3110 hn        1 8BX      0.399300
     31 HN0A       -7.9970    2.2210   -1.8170 hn        1 8BX      0.399300
     32 H03        -6.9720    3.4050    0.0690 ha        1 8BX      0.141000
     33 H05        -3.0610    1.8820    1.1230 ha        1 8BX      0.143000
     34 H07        -5.0610    3.5870    2.6830 hc        1 8BX      0.049700
     35 H07A       -3.7430    4.2600    1.6350 hc        1 8BX      0.049700
     36 H07B       -5.4630    4.7760    1.3740 hc        1 8BX      0.049700
     37 H08        -2.8880   -0.4130   -1.5990 hc        1 8BX      0.066200
     38 H08A       -2.1830    0.0970   -0.0150 hc        1 8BX      0.066200
     39 HN1'       -1.9040   -1.8470    2.6420 hn        1 8BX      0.351800
     40 H10        -0.2440   -3.9420   -0.7860 h1        1 8BX      0.040700
     41 H10A       -1.0200   -3.4740   -2.3790 h1        1 8BX      0.040700
     42 H11         1.3800   -3.0380   -2.5690 h1        1 8BX      0.040200
     43 H11A        0.4690   -1.4580   -2.5370 h1        1 8BX      0.040200
     44 HN12        1.0710   -1.5800   -0.0500 hn        1 8BX      0.383800
     45 H13         3.5110   -1.6830   -1.6200 h1        1 8BX      0.054700
     46 H13A        2.3540   -0.2820   -1.9170 h1        1 8BX      0.054700
     47 H2'        -4.6490   -1.9840    1.9160 h1        1 8BX      0.054700
     48 H2'A       -3.5840   -0.5130    1.9910 h1        1 8BX      0.054700
     49 H23         6.6490    2.9710    0.8380 ha        1 8BX      0.153000
     50 H24         7.3430    3.0030   -1.5550 ha        1 8BX      0.142000
     51 H25         6.1820    1.5200   -3.2020 ha        1 8BX      0.141000
     52 H26         4.3690    0.0420   -2.4840 ha        1 8BX      0.141000
     53 H3'        -4.4740   -1.9540   -0.3690 hc        1 8BX      0.077700
     54 H4'        -2.8670   -3.5230   -0.8410 h1        1 8BX      0.049700
     55 H5'        -0.9620   -3.3840    1.3110 h1        1 8BX      0.057700
     56 H5'A       -2.5390   -4.2980    1.3370 h1        1 8BX      0.057700
@<TRIPOS>BOND
     1    1    2 ar  
     2    1    7 ar  
     3    2    3 1   
     4    2    4 ar  
     5    3   30 1   
     6    3   31 1   
     7    4    5 ar  
     8    4   32 1   
     9    5    6 ar  
    10    5    8 1   
    11    6    7 ar  
    12    6   33 1   
    13    7    9 1   
    14    8   34 1   
    15    8   35 1   
    16    8   36 1   
    17    9   27 1   
    18    9   37 1   
    19    9   38 1   
    20   10   12 1   
    21   10   28 1   
    22   11   19 1   
    23   11   29 1   
    24   11   39 1   
    25   12   13 1   
    26   12   40 1   
    27   12   41 1   
    28   13   14 1   
    29   13   42 1   
    30   13   43 1   
    31   14   15 1   
    32   14   44 1   
    33   15   16 1   
    34   15   45 1   
    35   15   46 1   
    36   16   17 1   
    37   16   18 1   
    38   16   20 1   
    39   19   27 1   
    40   19   47 1   
    41   19   48 1   
    42   20   21 ar  
    43   20   26 ar  
    44   21   22 1   
    45   21   23 ar  
    46   23   24 ar  
    47   23   49 1   
    48   24   25 ar  
    49   24   50 1   
    50   25   26 ar  
    51   25   51 1   
    52   26   52 1   
    53   27   28 1   
    54   27   53 1   
    55   28   29 1   
    56   28   54 1   
    57   29   55 1   
    58   29   56 1   
@<TRIPOS>SUBSTRUCTURE
     1 8BX         1 TEMP              0 ****  ****    0 ROOT
