@<TRIPOS>MOLECULE
8BX
   58    60     1     0     0
SMALL
bcc


@<TRIPOS>ATOM
      1 N01         0.1730    0.0580   -0.2200 nb        1 8BX     -0.669000
      2 C02         1.5280    0.1540   -0.1050 ca        1 8BX      0.454200
      3 N02         2.2870    0.2150   -1.3760 n4        1 8BX     -0.819300
      4 C03         2.2300    0.1990    1.1120 ca        1 8BX     -0.206300
      5 C04         1.4740    0.1440    2.2990 ca        1 8BX      0.011700
      6 C05         0.0850    0.0470    2.2020 ca        1 8BX     -0.203300
      7 C06        -0.5360    0.0070    0.9270 ca        1 8BX      0.455600
      8 C07         2.1560    0.2000    3.6100 c3        1 8BX     -0.085800
      9 C08        -2.0380   -0.1090    0.8520 c3        1 8BX     -0.119700
     10 O09        -4.7210   -0.1120    0.7530 os        1 8BX     -0.460600
     11 N1'        -3.8300    2.9380    1.6350 n3        1 8BX     -0.785200
     12 C10        -5.9250   -0.5730    0.1440 c3        1 8BX      0.102400
     13 C11        -6.4890   -1.6810    1.0370 c3        1 8BX      0.103800
     14 N12        -6.7800   -1.2000    2.4180 n4        1 8BX     -0.756000
     15 C13        -7.3690   -2.2610    3.2810 c3        1 8BX      0.034800
     16 C14        -7.5290   -1.7580    4.7770 c3        1 8BX      0.481900
     17 F15        -6.2870   -1.3330    5.2180 f         1 8BX     -0.223800
     18 F16        -8.2410   -0.5720    4.7570 f         1 8BX     -0.223800
     19 C2'        -2.5270    2.3440    1.3650 c3        1 8BX      0.147800
     20 C21        -8.1530   -2.8310    5.6500 ca        1 8BX     -0.181300
     21 C22        -8.3960   -2.5930    7.0150 ca        1 8BX      0.067400
     22 CL22       -8.0080   -1.1280    7.7720 cl        1 8BX     -0.037400
     23 C23        -8.9840   -3.5890    7.8100 ca        1 8BX     -0.114000
     24 C24        -9.3270   -4.8180    7.2580 ca        1 8BX     -0.067000
     25 C25        -9.0840   -5.0620    5.9040 ca        1 8BX     -0.118000
     26 C26        -8.5030   -4.0770    5.1110 ca        1 8BX     -0.108000
     27 C3'        -2.6790    1.1720    0.3640 c3        1 8BX     -0.088700
     28 C4'        -4.1970    1.0590    0.1060 c3        1 8BX      0.114100
     29 C5'        -4.8070    2.3340    0.7450 c3        1 8BX      0.128800
     30 HN02        2.0350   -0.5810   -1.9770 hn        1 8BX      0.474467
     31 HN0A        3.2910    0.1860   -1.1710 hn        1 8BX      0.474467
     32 H03         3.3280    0.2740    1.1670 ha        1 8BX      0.176000
     33 H05        -0.5340    0.0040    3.1130 ha        1 8BX      0.176000
     34 H07         3.0710   -0.4450    3.6110 hc        1 8BX      0.081367
     35 H07A        1.4820   -0.1420    4.4340 hc        1 8BX      0.081367
     36 H07B        2.4720    1.2540    3.8300 hc        1 8BX      0.081367
     37 H08        -2.4320   -0.3720    1.8690 hc        1 8BX      0.074700
     38 H08A       -2.3180   -0.9480    0.1580 hc        1 8BX      0.074700
     39 HN1'       -4.0890    2.8200    2.5960 hn        1 8BX      0.365800
     40 H10        -5.7000   -1.0160   -0.8640 h1        1 8BX      0.080200
     41 H10A       -6.6530    0.2740    0.0270 h1        1 8BX      0.080200
     42 H11        -7.4430   -2.0710    0.5800 hx        1 8BX      0.118200
     43 H11A       -5.7420   -2.5230    1.1160 hx        1 8BX      0.118200
     44 HN12       -7.4310   -0.4020    2.3810 hn        1 8BX      0.466800
     45 H13        -8.3850   -2.5320    2.8790 hx        1 8BX      0.132700
     46 H13A       -6.6850   -3.1550    3.2750 hx        1 8BX      0.132700
     47 H2'        -2.0240    1.9960    2.3080 h1        1 8BX      0.057200
     48 H2'A       -1.8850    3.1470    0.9080 h1        1 8BX      0.057200
     49 H23        -9.1740   -3.3920    8.8800 ha        1 8BX      0.178000
     50 H24        -9.7910   -5.5960    7.8870 ha        1 8BX      0.169000
     51 H25        -9.3550   -6.0340    5.4620 ha        1 8BX      0.161000
     52 H26        -8.3330   -4.3180    4.0520 ha        1 8BX      0.120000
     53 H3'        -2.2060    1.4690   -0.6130 hc        1 8BX      0.084700
     54 H4'        -4.4100    1.0070   -0.9940 h1        1 8BX      0.075700
     55 H5'        -5.0310    3.0790   -0.0690 h1        1 8BX      0.064200
     56 H5'A       -5.7660    2.0920    1.2740 h1        1 8BX      0.064200
     57 H023        2.0620    1.0880   -1.8720 hn        1 8BX      0.474467
     58 H122       -5.9020   -0.8620    2.8420 hn        1 8BX      0.466800
@<TRIPOS>BOND
     1    1    2 ar  
     2    1    7 ar  
     3    2    3 1   
     4    2    4 ar  
     5    3   30 1   
     6    3   31 1   
     7    3   57 1   
     8    4    5 ar  
     9    4   32 1   
    10    5    6 ar  
    11    5    8 1   
    12    6    7 ar  
    13    6   33 1   
    14    7    9 1   
    15    8   34 1   
    16    8   35 1   
    17    8   36 1   
    18    9   27 1   
    19    9   37 1   
    20    9   38 1   
    21   10   12 1   
    22   10   28 1   
    23   11   19 1   
    24   11   29 1   
    25   11   39 1   
    26   12   13 1   
    27   12   40 1   
    28   12   41 1   
    29   13   14 1   
    30   13   42 1   
    31   13   43 1   
    32   14   15 1   
    33   14   44 1   
    34   14   58 1   
    35   15   16 1   
    36   15   45 1   
    37   15   46 1   
    38   16   17 1   
    39   16   18 1   
    40   16   20 1   
    41   19   27 1   
    42   19   47 1   
    43   19   48 1   
    44   20   21 ar  
    45   20   26 ar  
    46   21   22 1   
    47   21   23 ar  
    48   23   24 ar  
    49   23   49 1   
    50   24   25 ar  
    51   24   50 1   
    52   25   26 ar  
    53   25   51 1   
    54   26   52 1   
    55   27   28 1   
    56   27   53 1   
    57   28   29 1   
    58   28   54 1   
    59   29   55 1   
    60   29   56 1   
@<TRIPOS>SUBSTRUCTURE
     1 8BX         1 TEMP              0 ****  ****    0 ROOT
