@<TRIPOS>MOLECULE
8BX
   56    53     1     0     0
SMALL
bcc


@<TRIPOS>ATOM
      1 N01         2.8260    1.6780   -0.6340 n1        1 8BX     -0.207000
      2 C02         4.0920    1.2620   -0.9490 c1        1 8BX      0.111000
      3 N02         4.4220    0.9360   -2.3090 n3        1 8BX     -0.322000
      4 C03         5.0650    1.1870    0.0370 c1        1 8BX     -0.237000
      5 C04         4.7580    1.5290    1.3290 c1        1 8BX      0.003000
      6 C05         3.4900    1.9460    1.6440 c1        1 8BX     -0.229000
      7 C06         2.5180    2.0200    0.6540 c1        1 8BX      0.029000
      8 C07         5.8070    1.4130    2.4090 c3        1 8BX     -0.187000
      9 C08         1.0820    2.4890    1.0100 c3        1 8BX     -0.102000
     10 O09        -1.5520    1.7830    0.4090 os        1 8BX     -0.283000
     11 N1'        -0.4690    5.1590    0.5110 n3        1 8BX     -0.269000
     12 C10        -2.5690    1.1020   -0.3400 c3        1 8BX     -0.023000
     13 C11        -3.1320   -0.0710    0.5010 c3        1 8BX     -0.080000
     14 N12        -3.8100   -1.0140   -0.3730 n3        1 8BX     -0.303000
     15 C13        -3.4670   -2.3600    0.0100 c3        1 8BX     -0.097000
     16 C14        -3.3590   -3.2270   -1.2320 c3        1 8BX      0.266000
     17 F15        -4.5890   -3.5740   -1.6430 f         1 8BX     -0.167500
     18 F16        -2.7410   -2.5390   -2.2040 f         1 8BX     -0.167500
     19 C2'         0.7170    4.4800   -0.2390 c3        1 8BX     -0.095000
     20 C21        -2.5710   -4.4630   -0.9150 c2        1 8BX     -0.136000
     21 C22        -1.2220   -4.5180   -1.2190 c2        1 8BX     -0.033000
     22 CL22       -0.4080   -3.1020   -1.8350 cl        1 8BX      0.002000
     23 C23        -0.5200   -5.6990   -1.0420 c1        1 8BX     -0.131000
     24 C24        -1.1680   -6.8260   -0.5620 c1        1 8BX     -0.119000
     25 C25        -2.5180   -6.7710   -0.2580 c1        1 8BX     -0.119000
     26 C26        -3.2200   -5.5900   -0.4340 c1        1 8BX     -0.094000
     27 C3'         0.4330    3.1760   -0.2350 c3        1 8BX     -0.147000
     28 C4'        -1.1650    3.0670   -0.1550 c3        1 8BX      0.005000
     29 C5'        -1.5650    4.0560    0.6450 c3        1 8BX     -0.100000
     30 HN02        5.2680    0.6330   -2.5190 hn        1 8BX      0.195500
     31 HN0A        3.7950    1.0400   -2.9700 hn        1 8BX      0.195500
     32 H03         5.9720    0.8890   -0.1900 ha        1 8BX      0.141000
     33 H05         3.2700    2.1900    2.5650 ha        1 8BX      0.143000
     34 H07         6.6830    1.6690    2.0440 hc        1 8BX      0.089333
     35 H07A        5.8450    0.4850    2.7300 hc        1 8BX      0.089333
     36 H07B        5.5770    2.0070    3.1540 hc        1 8BX      0.089333
     37 H08         1.1210    3.1290    1.7540 hc        1 8BX      0.101500
     38 H08A        0.5460    1.7200    1.2710 hc        1 8BX      0.101500
     39 HN1'       -0.1960    5.4160    1.3390 hn        1 8BX      0.144000
     40 H10        -3.2940    1.7300   -0.5530 h1        1 8BX      0.075500
     41 H10A       -2.1840    0.7540   -1.1690 h1        1 8BX      0.075500
     42 H11        -2.3940   -0.5250    0.9630 h1        1 8BX      0.093500
     43 H11A       -3.7670    0.2770    1.1630 h1        1 8BX      0.093500
     44 HN12       -4.7200   -0.8980   -0.3020 hn        1 8BX      0.182000
     45 H13        -2.6090   -2.3570    0.4810 h1        1 8BX      0.119000
     46 H13A       -4.1660   -2.7230    0.6040 h1        1 8BX      0.119000
     47 H2'         0.7700    4.8130   -1.1610 h1        1 8BX      0.094000
     48 H2'A        1.5580    4.6470    0.2330 h1        1 8BX      0.094000
     49 H23         0.4340   -5.7370   -1.2570 ha        1 8BX      0.152000
     50 H24        -0.6720   -7.6600   -0.4370 ha        1 8BX      0.141500
     51 H25        -2.9760   -7.5650    0.0810 ha        1 8BX      0.141500
     52 H26        -4.1710   -5.5510   -0.2200 ha        1 8BX      0.155000
     53 H3'         0.7570    2.7610   -1.0530 hc        1 8BX      0.115000
     54 H4'        -1.5540    3.1750   -1.0450 h1        1 8BX      0.093000
     55 H5'        -1.6210    3.7450    1.5660 h1        1 8BX      0.100000
     56 H5'A       -2.4390    4.4040    0.3470 h1        1 8BX      0.100000
@<TRIPOS>BOND
     1    1    7 1   
     2    2    3 1   
     3    2    4 1   
     4    3   30 1   
     5    3   31 1   
     6    4   32 1   
     7    5    6 1   
     8    5    8 1   
     9    6   33 1   
    10    7    9 1   
    11    8   34 1   
    12    8   35 1   
    13    8   36 1   
    14    9   27 1   
    15    9   37 1   
    16    9   38 1   
    17   10   12 1   
    18   10   28 1   
    19   11   19 1   
    20   11   29 1   
    21   11   39 1   
    22   12   13 1   
    23   12   40 1   
    24   12   41 1   
    25   13   14 1   
    26   13   42 1   
    27   13   43 1   
    28   14   15 1   
    29   14   44 1   
    30   15   16 1   
    31   15   45 1   
    32   15   46 1   
    33   16   17 1   
    34   16   18 1   
    35   16   20 1   
    36   19   27 1   
    37   19   47 1   
    38   19   48 1   
    39   20   21 1   
    40   20   26 1   
    41   21   22 1   
    42   21   23 1   
    43   23   49 1   
    44   24   25 1   
    45   24   50 1   
    46   25   51 1   
    47   26   52 1   
    48   27   28 1   
    49   27   53 1   
    50   28   29 1   
    51   28   54 1   
    52   29   55 1   
    53   29   56 1   
@<TRIPOS>SUBSTRUCTURE
     1 8BX         1 TEMP              0 ****  ****    0 ROOT
