@<TRIPOS>MOLECULE
8BX
   57    59     1     0     0
SMALL
bcc


@<TRIPOS>ATOM
      1 N01        -2.5230   -0.5400    2.0160 nb        1 8BX     -0.816000
      2 C02        -1.8530   -1.7250    2.1610 ca        1 8BX      0.612200
      3 N02        -2.6020   -2.9270    2.1060 nv        1 8BX     -0.931500
      4 C03        -0.4580   -1.7690    2.4360 ca        1 8BX     -0.281300
      5 C04         0.2510   -0.5730    2.5520 ca        1 8BX      0.024700
      6 C05        -0.4360    0.6360    2.3760 ca        1 8BX     -0.262300
      7 C06        -1.8170    0.6130    2.1120 ca        1 8BX      0.455600
      8 C07         1.6990   -0.5730    2.8540 c3        1 8BX     -0.076800
      9 C08        -2.5330    1.9250    1.9180 c3        1 8BX     -0.129700
     10 O09        -5.1280    1.5930    1.1150 os        1 8BX     -0.432600
     11 N1'        -4.0140    3.9760   -0.7550 n7        1 8BX     -0.788200
     12 C10        -6.2990    0.8290    0.9060 c3        1 8BX      0.108400
     13 C11        -6.0900   -0.6300    1.3470 c3        1 8BX      0.067800
     14 N12        -5.3040   -0.7240    2.6080 ny        1 8BX     -0.782000
     15 C13        -5.4550   -2.0170    3.3140 c3        1 8BX      0.052800
     16 C14        -6.6950   -2.0580    4.2930 c3        1 8BX      0.469900
     17 F15        -6.6380   -0.9490    5.1200 f         1 8BX     -0.224800
     18 F16        -7.8490   -1.8100    3.5710 f         1 8BX     -0.224800
     19 C2'        -2.8800    3.6830    0.1160 c3        1 8BX      0.150800
     20 C21        -6.7450   -3.3730    5.0580 ca        1 8BX     -0.168300
     21 C22        -7.7580   -3.6190    6.0030 ca        1 8BX      0.064400
     22 Cl22       -8.9770   -2.4950    6.3560 cl        1 8BX     -0.043400
     23 C23        -7.7920   -4.8350    6.7020 ca        1 8BX     -0.120000
     24 C24        -6.8280   -5.8090    6.4650 ca        1 8BX     -0.078000
     25 C25        -5.8220   -5.5730    5.5270 ca        1 8BX     -0.126000
     26 C26        -5.7840   -4.3670    4.8320 ca        1 8BX     -0.105000
     27 C3'        -2.8700    2.1720    0.4620 c3        1 8BX     -0.077700
     28 C4'        -4.2450    1.6570   -0.0130 c3        1 8BX      0.107100
     29 C5'        -4.7360    2.7380   -1.0090 c3        1 8BX      0.128800
     30 HN02       -3.2620   -2.9550    1.3560 hn        1 8BX      0.394800
     31 HN0A       -2.0090   -3.7330    2.1010 hn        1 8BX      0.394800
     32 H03         0.0590   -2.7330    2.5590 ha        1 8BX      0.160000
     33 H05         0.1000    1.5940    2.4430 ha        1 8BX      0.164000
     34 H07         1.8610   -0.2990    3.9280 hc        1 8BX      0.067700
     35 H07A        2.2340    0.1760    2.2190 hc        1 8BX      0.067700
     36 H07B        2.1540   -1.5790    2.6760 hc        1 8BX      0.067700
     37 H08        -1.8550    2.7450    2.2830 hc        1 8BX      0.073200
     38 H08A       -3.4590    1.9620    2.5510 hc        1 8BX      0.073200
     39 HN1'       -4.6150    4.6600   -0.3350 hn        1 8BX      0.367800
     40 H10        -6.6320    0.8310   -0.1640 h1        1 8BX      0.088700
     41 H10A       -7.0800    1.3230    1.5480 h1        1 8BX      0.088700
     42 H11        -7.1010   -1.1090    1.4960 hx        1 8BX      0.103200
     43 H11A       -5.5280   -1.2000    0.5550 hx        1 8BX      0.103200
     44 HN12       -4.2770   -0.5690    2.3610 hn        1 8BX      0.486800
     45 H13        -5.5670   -2.8410    2.5570 hx        1 8BX      0.126700
     46 H13A       -4.5240   -2.1790    3.9310 hx        1 8BX      0.126700
     47 H2'        -2.9060    4.3030    1.0530 h1        1 8BX      0.058700
     48 H2'A       -1.9430    3.9460   -0.4470 h1        1 8BX      0.058700
     49 H23        -8.5900   -5.0170    7.4420 ha        1 8BX      0.170000
     50 H24        -6.8590   -6.7620    7.0170 ha        1 8BX      0.160000
     51 H25        -5.0560   -6.3400    5.3350 ha        1 8BX      0.153000
     52 H26        -4.9710   -4.2300    4.1030 ha        1 8BX      0.131000
     53 H3'        -2.0970    1.6710   -0.1840 hc        1 8BX      0.075700
     54 H4'        -4.1690    0.6480   -0.4910 h1        1 8BX      0.051700
     55 H5'        -4.4900    2.4090   -2.0560 h1        1 8BX      0.063700
     56 H5'A       -5.8470    2.8750   -0.9290 h1        1 8BX      0.063700
     57 H122       -5.5910    0.0400    3.2330 hn        1 8BX      0.486800
@<TRIPOS>BOND
     1    1    2 ar  
     2    1    7 ar  
     3    2    3 1   
     4    2    4 ar  
     5    3   30 1   
     6    3   31 1   
     7    4    5 ar  
     8    4   32 1   
     9    5    6 ar  
    10    5    8 1   
    11    6    7 ar  
    12    6   33 1   
    13    7    9 1   
    14    8   34 1   
    15    8   35 1   
    16    8   36 1   
    17    9   27 1   
    18    9   37 1   
    19    9   38 1   
    20   10   12 1   
    21   10   28 1   
    22   11   19 1   
    23   11   29 1   
    24   11   39 1   
    25   12   13 1   
    26   12   40 1   
    27   12   41 1   
    28   13   14 1   
    29   13   42 1   
    30   13   43 1   
    31   14   15 1   
    32   14   44 1   
    33   14   57 1   
    34   15   16 1   
    35   15   45 1   
    36   15   46 1   
    37   16   17 1   
    38   16   18 1   
    39   16   20 1   
    40   19   27 1   
    41   19   47 1   
    42   19   48 1   
    43   20   21 ar  
    44   20   26 ar  
    45   21   22 1   
    46   21   23 ar  
    47   23   24 ar  
    48   23   49 1   
    49   24   25 ar  
    50   24   50 1   
    51   25   26 ar  
    52   25   51 1   
    53   26   52 1   
    54   27   28 1   
    55   27   53 1   
    56   28   29 1   
    57   28   54 1   
    58   29   55 1   
    59   29   56 1   
@<TRIPOS>SUBSTRUCTURE
     1 8BX         1 TEMP              0 ****  ****    0 ROOT
