@<TRIPOS>MOLECULE
8BX
   57    59     1     0     0
SMALL
bcc


@<TRIPOS>ATOM
      1 N01        -2.8840   -0.6440    1.5570 nb        1 8BX     -0.792000
      2 C02        -2.2990   -1.8740    1.6950 ca        1 8BX      0.598200
      3 N02        -2.9670   -3.0010    1.1540 nh        1 8BX     -0.929500
      4 C03        -1.0900   -2.0610    2.4260 ca        1 8BX     -0.283300
      5 C04        -0.4760   -0.9560    3.0150 ca        1 8BX      0.014700
      6 C05        -1.0640    0.3070    2.8530 ca        1 8BX     -0.263300
      7 C06        -2.2580    0.4180    2.1190 ca        1 8BX      0.430600
      8 C07         0.7830   -1.1030    3.7780 c3        1 8BX     -0.073800
      9 C08        -2.8590    1.7900    1.9390 c3        1 8BX     -0.119700
     10 O09        -5.3030    1.5360    0.6900 os        1 8BX     -0.436600
     11 N1'        -3.9590    4.0640   -0.7470 n3        1 8BX     -0.788200
     12 C10        -6.3490    0.6850    0.2660 c3        1 8BX      0.110400
     13 C11        -6.1980   -0.6960    0.9270 c3        1 8BX      0.079800
     14 N12        -5.9650   -0.5670    2.3940 n4        1 8BX     -0.745000
     15 C13        -5.8760   -1.8810    3.0790 c3        1 8BX      0.038800
     16 C14        -5.9500   -1.7230    4.6510 c3        1 8BX      0.472900
     17 F15        -4.9690   -0.8360    5.0540 f         1 8BX     -0.223300
     18 F16        -7.1060   -1.0250    4.9620 f         1 8BX     -0.223300
     19 C2'        -2.9870    3.7160    0.2860 c3        1 8BX      0.148800
     20 C21        -5.8620   -3.0750    5.3430 ca        1 8BX     -0.168300
     21 C22        -5.9330   -3.1730    6.7450 ca        1 8BX      0.064400
     22 CL22       -6.1070   -1.8200    7.7510 cl        1 8BX     -0.042400
     23 C23        -5.8590   -4.4270    7.3690 ca        1 8BX     -0.120000
     24 C24        -5.7110   -5.5820    6.6090 ca        1 8BX     -0.077000
     25 C25        -5.6340   -5.4920    5.2190 ca        1 8BX     -0.125000
     26 C26        -5.7080   -4.2500    4.5950 ca        1 8BX     -0.103000
     27 C3'        -2.9740    2.1790    0.4820 c3        1 8BX     -0.076700
     28 C4'        -4.2330    1.6850   -0.2560 c3        1 8BX      0.113100
     29 C5'        -4.5760    2.8390   -1.2330 c3        1 8BX      0.126800
     30 HN02       -2.3670   -3.7990    1.1030 hn        1 8BX      0.394800
     31 HN0A       -3.4160   -2.8240    0.2790 hn        1 8BX      0.394800
     32 H03        -0.6440   -3.0610    2.5270 ha        1 8BX      0.156000
     33 H05        -0.5920    1.1970    3.2920 ha        1 8BX      0.160000
     34 H07         0.7550   -0.4800    4.7070 hc        1 8BX      0.064367
     35 H07A        0.9630   -2.1670    4.0670 hc        1 8BX      0.064367
     36 H07B        1.6460   -0.7570    3.1520 hc        1 8BX      0.064367
     37 H08        -2.1980    2.5340    2.4630 hc        1 8BX      0.063700
     38 H08A       -3.8630    1.8360    2.4390 hc        1 8BX      0.063700
     39 HN1'       -4.6520    4.6920   -0.3820 hn        1 8BX      0.364800
     40 H10        -6.3750    0.5430   -0.8460 h1        1 8BX      0.085200
     41 H10A       -7.2990    1.1850    0.6030 h1        1 8BX      0.085200
     42 H11        -7.1330   -1.2990    0.7580 hx        1 8BX      0.109200
     43 H11A       -5.3130   -1.2390    0.4880 hx        1 8BX      0.109200
     44 HN12       -6.7300   -0.0190    2.8120 hn        1 8BX      0.470300
     45 H13        -4.8920   -2.3620    2.8080 hx        1 8BX      0.135700
     46 H13A       -6.7380   -2.5230    2.7480 hx        1 8BX      0.135700
     47 H2'        -1.9770    4.0610   -0.0690 h1        1 8BX      0.057700
     48 H2'A       -3.2080    4.2350    1.2580 h1        1 8BX      0.057700
     49 H23        -5.9180   -4.4930    8.4690 ha        1 8BX      0.170000
     50 H24        -5.6540   -6.5650    7.1050 ha        1 8BX      0.161000
     51 H25        -5.5150   -6.4030    4.6120 ha        1 8BX      0.154000
     52 H26        -5.6370   -4.2300    3.4970 ha        1 8BX      0.129000
     53 H3'        -2.0900    1.7620   -0.0760 hc        1 8BX      0.079700
     54 H4'        -4.0510    0.7160   -0.7840 h1        1 8BX      0.062700
     55 H5'        -5.6870    2.9410   -1.3480 h1        1 8BX      0.062700
     56 H5'A       -4.1300    2.6090   -2.2400 h1        1 8BX      0.062700
     57 H122       -5.0890   -0.0330    2.5370 hn        1 8BX      0.470300
@<TRIPOS>BOND
     1    1    2 ar  
     2    1    7 ar  
     3    2    3 1   
     4    2    4 ar  
     5    3   30 1   
     6    3   31 1   
     7    4    5 ar  
     8    4   32 1   
     9    5    6 ar  
    10    5    8 1   
    11    6    7 ar  
    12    6   33 1   
    13    7    9 1   
    14    8   34 1   
    15    8   35 1   
    16    8   36 1   
    17    9   27 1   
    18    9   37 1   
    19    9   38 1   
    20   10   12 1   
    21   10   28 1   
    22   11   19 1   
    23   11   29 1   
    24   11   39 1   
    25   12   13 1   
    26   12   40 1   
    27   12   41 1   
    28   13   14 1   
    29   13   42 1   
    30   13   43 1   
    31   14   15 1   
    32   14   44 1   
    33   14   57 1   
    34   15   16 1   
    35   15   45 1   
    36   15   46 1   
    37   16   17 1   
    38   16   18 1   
    39   16   20 1   
    40   19   27 1   
    41   19   47 1   
    42   19   48 1   
    43   20   21 ar  
    44   20   26 ar  
    45   21   22 1   
    46   21   23 ar  
    47   23   24 ar  
    48   23   49 1   
    49   24   25 ar  
    50   24   50 1   
    51   25   26 ar  
    52   25   51 1   
    53   26   52 1   
    54   27   28 1   
    55   27   53 1   
    56   28   29 1   
    57   28   54 1   
    58   29   55 1   
    59   29   56 1   
@<TRIPOS>SUBSTRUCTURE
     1 8BX         1 TEMP              0 ****  ****    0 ROOT
