@<TRIPOS>MOLECULE
8C5
   71    75     1     0     0
SMALL
bcc


@<TRIPOS>ATOM
      1 C01         0.2320   -0.4280   -0.6030 c3        1 8C5      0.071700
      2 O02         1.6330   -0.3260   -0.2680 os        1 8C5     -0.194100
      3 N03         1.9250   -0.1770    1.0520 n4        1 8C5     -0.451300
      4 C04         3.4500   -0.0810    1.2270 c         1 8C5      0.607300
      5 O05         4.1230   -0.1660    0.2100 o         1 8C5     -0.438100
      6 C06         3.8850    0.0990    2.5940 cc        1 8C5     -0.445400
      7 C07         5.2680    0.1810    2.7920 cd        1 8C5      0.249000
      8 N08         5.8670    0.3470    3.9900 na        1 8C5     -0.561100
      9 C09         5.0590    0.4460    5.1610 ca        1 8C5      0.730200
     10 N10         5.6540    0.6010    6.3710 nb        1 8C5     -0.809000
     11 C11         4.8130    0.7000    7.4810 ca        1 8C5      0.953900
     12 N12         3.4060    0.6360    7.4180 nb        1 8C5     -0.721000
     13 C13         2.8780    0.4750    6.2170 ca        1 8C5      0.550200
     14 C14         3.6400    0.3700    5.0140 ca        1 8C5     -0.494200
     15 C15         2.9830    0.1960    3.7380 c         1 8C5      0.643900
     16 O16         1.7380    0.1340    3.6200 o         1 8C5     -0.653100
     17 N17         5.4300    0.8950    8.6950 nh        1 8C5     -0.687300
     18 C18         4.7550    0.9050    9.9430 ca        1 8C5      0.093600
     19 C19         5.2020    0.0440   10.9680 ca        1 8C5     -0.116500
     20 C20         4.5910    0.0750   12.2160 ca        1 8C5     -0.116500
     21 C21         3.5270    0.9480   12.4720 ca        1 8C5     -0.055300
     22 C22         3.0880    1.8000   11.4530 ca        1 8C5     -0.116500
     23 C23         3.6910    1.7900   10.1990 ca        1 8C5     -0.116500
     24 C24         2.8660    0.9630   13.8050 c3        1 8C5     -0.048100
     25 C25         3.3090    2.1910   14.6090 c3        1 8C5      0.177800
     26 N26         2.7410    2.2210   15.9440 n3        1 8C5     -0.729600
     27 C27         3.3750    3.2010   16.8290 c3        1 8C5      0.159800
     28 C28         2.2900    4.0280   17.5360 c3        1 8C5     -0.092900
     29 C29         0.9560    3.5250   17.0010 c3        1 8C5     -0.092900
     30 C30         1.2910    2.4220   15.9850 c3        1 8C5      0.159800
     31 C31         7.3430    0.4220    4.0540 c3        1 8C5      0.195500
     32 C32         8.0060   -0.8760    3.5620 c3        1 8C5     -0.092400
     33 C33         9.5080   -0.7770    3.7420 c3        1 8C5     -0.078400
     34 C34        10.0780    0.4220    3.0150 c3        1 8C5     -0.087400
     35 C35         9.3950    1.7020    3.4460 c3        1 8C5     -0.078400
     36 C36         7.8930    1.6210    3.2630 c3        1 8C5     -0.092400
     37 H24         3.1190    0.0280   14.3730 hc        1 8C5      0.064200
     38 H24A        1.7510    0.9790   13.6690 hc        1 8C5      0.064200
     39 H30         0.8710    2.6890   14.9760 h1        1 8C5      0.041700
     40 H30A        0.8310    1.4460   16.2990 h1        1 8C5      0.041700
     41 H35         9.6330    1.9130    4.5220 hc        1 8C5      0.059200
     42 H36         7.6550    1.5100    2.1730 hc        1 8C5      0.053450
     43 H01         0.2880   -0.5380   -1.7200 h1        1 8C5      0.089033
     44 H01A       -0.2230   -1.3340   -0.1340 h1        1 8C5      0.089033
     45 H01B       -0.3140    0.5040   -0.3190 h1        1 8C5      0.089033
     46 HN03        1.4920    0.6800    1.4460 hn        1 8C5      0.470800
     47 H07         5.9500    0.1080    1.9100 h4        1 8C5      0.198000
     48 H13         1.7700    0.4190    6.1590 h4        1 8C5      0.066100
     49 HN17        6.4280    0.8390    8.7330 hn        1 8C5      0.469800
     50 H19         6.0350   -0.6550   10.7930 ha        1 8C5      0.143500
     51 H20         4.9480   -0.6000   13.0100 ha        1 8C5      0.148000
     52 H22         2.2530    2.4930   11.6460 ha        1 8C5      0.148000
     53 H23         3.3240    2.4750    9.4190 ha        1 8C5      0.143500
     54 H25         3.0540    3.1150   14.0100 h1        1 8C5      0.032700
     55 H25A        4.4310    2.1570   14.7180 h1        1 8C5      0.032700
     56 H27         3.9780    2.6200   17.5790 h1        1 8C5      0.041700
     57 H27A        4.0800    3.8830   16.2770 h1        1 8C5      0.041700
     58 H28         2.4260    5.1160   17.3210 hc        1 8C5      0.050700
     59 H28A        2.3570    3.8890   18.6430 hc        1 8C5      0.050700
     60 H29         0.3240    3.1130   17.8250 hc        1 8C5      0.050700
     61 H29A        0.3830    4.3480   16.5110 hc        1 8C5      0.050700
     62 H31         7.6380    0.5660    5.1380 h1        1 8C5      0.123700
     63 H32         7.7710   -1.0470    2.4790 hc        1 8C5      0.053450
     64 H32A        7.6180   -1.7520    4.1440 hc        1 8C5      0.053450
     65 H33         9.9820   -1.7160    3.3520 hc        1 8C5      0.059200
     66 H33A        9.7520   -0.7070    4.8350 hc        1 8C5      0.059200
     67 H34         9.9560    0.2840    1.9080 hc        1 8C5      0.056700
     68 H34A       11.1780    0.4970    3.2230 hc        1 8C5      0.056700
     69 H35A        9.7880    2.5620    2.8410 hc        1 8C5      0.059200
     70 H36A        7.4210    2.5710    3.6260 hc        1 8C5      0.053450
     71 H032        1.5790   -0.9800    1.6110 hn        1 8C5      0.470800
@<TRIPOS>BOND
     1    1    2 1   
     2    1   43 1   
     3    1   44 1   
     4    1   45 1   
     5    2    3 1   
     6    3    4 1   
     7    3   46 1   
     8    3   71 1   
     9    4    5 2   
    10    4    6 1   
    11    6    7 2   
    12    6   15 1   
    13    7    8 1   
    14    7   47 1   
    15    8    9 1   
    16    8   31 1   
    17    9   10 ar  
    18    9   14 ar  
    19   10   11 ar  
    20   11   12 ar  
    21   11   17 1   
    22   12   13 ar  
    23   13   14 ar  
    24   13   48 1   
    25   14   15 1   
    26   15   16 2   
    27   17   18 1   
    28   17   49 1   
    29   18   19 ar  
    30   18   23 ar  
    31   19   20 ar  
    32   19   50 1   
    33   20   21 ar  
    34   20   51 1   
    35   21   22 ar  
    36   21   24 1   
    37   22   23 ar  
    38   22   52 1   
    39   23   53 1   
    40   24   25 1   
    41   24   37 1   
    42   24   38 1   
    43   25   26 1   
    44   25   54 1   
    45   25   55 1   
    46   26   27 1   
    47   26   30 1   
    48   27   28 1   
    49   27   56 1   
    50   27   57 1   
    51   28   29 1   
    52   28   58 1   
    53   28   59 1   
    54   29   30 1   
    55   29   60 1   
    56   29   61 1   
    57   30   39 1   
    58   30   40 1   
    59   31   32 1   
    60   31   36 1   
    61   31   62 1   
    62   32   33 1   
    63   32   63 1   
    64   32   64 1   
    65   33   34 1   
    66   33   65 1   
    67   33   66 1   
    68   34   35 1   
    69   34   67 1   
    70   34   68 1   
    71   35   36 1   
    72   35   41 1   
    73   35   69 1   
    74   36   42 1   
    75   36   70 1   
@<TRIPOS>SUBSTRUCTURE
     1 8C5         1 TEMP              0 ****  ****    0 ROOT
