@<TRIPOS>MOLECULE
8C5
   72    76     1     0     0
SMALL
bcc


@<TRIPOS>ATOM
      1 C01         0.6790   -1.5330   -0.7130 c3        1 8C5      0.069700
      2 O02         1.9190   -1.0020   -0.1940 os        1 8C5     -0.190100
      3 N03         2.0640   -1.0080    1.1630 n4        1 8C5     -0.447300
      4 C04         3.3760   -0.2970    1.5040 c         1 8C5      0.597300
      5 O05         3.9210    0.3170    0.6000 o         1 8C5     -0.395100
      6 C06         3.8300   -0.4270    2.8830 cc        1 8C5     -0.415400
      7 C07         5.0300    0.2110    3.1900 cd        1 8C5      0.252000
      8 N08         5.6210    0.2090    4.4150 na        1 8C5     -0.566100
      9 C09         4.9920   -0.4830    5.4700 ca        1 8C5      0.712200
     10 N10         5.5660   -0.5050    6.7270 nb        1 8C5     -0.705000
     11 C11         4.8910   -1.2030    7.6770 ca        1 8C5      0.790900
     12 N12         3.7020   -1.8920    7.5360 nb        1 8C5     -0.674000
     13 C13         3.1620   -1.8540    6.3120 ca        1 8C5      0.551200
     14 C14         3.7580   -1.1630    5.2260 ca        1 8C5     -0.393200
     15 C15         3.1130   -1.1670    3.9090 c         1 8C5      0.625900
     16 O16         2.0390   -1.7640    3.7120 o         1 8C5     -0.587100
     17 N17         5.4990   -1.2220    9.0500 n4        1 8C5     -0.604100
     18 C18         4.8660   -0.2310    9.9280 ca        1 8C5     -0.096400
     19 C19         3.6590   -0.5490   10.5780 ca        1 8C5     -0.084500
     20 C20         3.0970    0.3800   11.4460 ca        1 8C5     -0.115500
     21 C21         3.7120    1.6210   11.6750 ca        1 8C5      0.017700
     22 C22         4.9120    1.9220   11.0120 ca        1 8C5     -0.115500
     23 C23         5.4940    1.0110   10.1370 ca        1 8C5     -0.084500
     24 C24         3.0860    2.6060   12.5940 c3        1 8C5     -0.072100
     25 C25         3.1610    2.1230   14.0520 c3        1 8C5      0.184800
     26 N26         2.3490    2.9360   14.9340 n3        1 8C5     -0.732600
     27 C27         2.0890    2.3170   16.2370 c3        1 8C5      0.158800
     28 C28         2.4010    3.3260   17.3520 c3        1 8C5     -0.092900
     29 C29         2.8920    4.5900   16.6580 c3        1 8C5     -0.092900
     30 C30         2.8570    4.2930   15.1520 c3        1 8C5      0.158800
     31 C31         6.9090    0.9330    4.5900 c3        1 8C5      0.198500
     32 C32         8.0180    0.3400    3.7060 c3        1 8C5     -0.094400
     33 C33         9.3260    1.0520    3.9970 c3        1 8C5     -0.079400
     34 C34         9.2070    2.5450    3.7790 c3        1 8C5     -0.091400
     35 C35         8.0750    3.1340    4.5950 c3        1 8C5     -0.079400
     36 C36         6.7590    2.4370    4.3080 c3        1 8C5     -0.094400
     37 H24         2.0090    2.7470   12.2990 hc        1 8C5      0.082200
     38 H24A        3.5910    3.6050   12.5050 hc        1 8C5      0.082200
     39 H30         3.8790    4.4400   14.7050 h1        1 8C5      0.043950
     40 H30A        2.1500    4.9950   14.6300 h1        1 8C5      0.043950
     41 H35         8.3140    3.0540    5.6880 hc        1 8C5      0.064700
     42 H36         5.9550    2.8770    4.9530 hc        1 8C5      0.057450
     43 H01         0.8470   -1.4000   -1.8180 h1        1 8C5      0.099033
     44 H01A       -0.1910   -0.9240   -0.3670 h1        1 8C5      0.099033
     45 H01B        0.5680   -2.6130   -0.4520 h1        1 8C5      0.099033
     46 HN03        2.0900   -1.9800    1.5280 hn        1 8C5      0.472300
     47 H07         5.5770    0.7770    2.3930 h4        1 8C5      0.222000
     48 H13         2.2010   -2.4030    6.1710 h4        1 8C5      0.101100
     49 HN17        6.5090   -1.0230    8.9820 hn        1 8C5      0.485300
     50 H19         3.1540   -1.5160   10.4130 ha        1 8C5      0.160000
     51 H20         2.1520    0.1370   11.9650 ha        1 8C5      0.178000
     52 H22         5.4060    2.8930   11.1880 ha        1 8C5      0.178000
     53 H23         6.4380    1.2730    9.6320 ha        1 8C5      0.160000
     54 H25         2.7680    1.0670   14.0960 h1        1 8C5      0.033700
     55 H25A        4.2490    2.0950   14.3560 h1        1 8C5      0.033700
     56 H27         1.0000    2.0380   16.2510 h1        1 8C5      0.043950
     57 H27A        2.6870    1.3770   16.3900 h1        1 8C5      0.043950
     58 H28         3.1780    2.9180   18.0430 hc        1 8C5      0.058450
     59 H28A        1.4820    3.5310   17.9550 hc        1 8C5      0.058450
     60 H29         3.9290    4.8500   16.9820 hc        1 8C5      0.058450
     61 H29A        2.2330    5.4600   16.8970 hc        1 8C5      0.058450
     62 H31         7.2290    0.8170    5.6670 h1        1 8C5      0.107700
     63 H32         7.7620    0.4640    2.6220 hc        1 8C5      0.057450
     64 H32A        8.1370   -0.7560    3.9110 hc        1 8C5      0.057450
     65 H33        10.1210    0.6350    3.3240 hc        1 8C5      0.064700
     66 H33A        9.6410    0.8470    5.0540 hc        1 8C5      0.064700
     67 H34         9.0370    2.7560    2.6900 hc        1 8C5      0.068200
     68 H34A       10.1710    3.0420    4.0670 hc        1 8C5      0.068200
     69 H35A        7.9650    4.2250    4.3540 hc        1 8C5      0.064700
     70 H36A        6.4760    2.6070    3.2360 hc        1 8C5      0.057450
     71 H032        1.2820   -0.5120    1.6270 hn        1 8C5      0.472300
     72 H172        5.3620   -2.1630    9.4540 hn        1 8C5      0.485300
@<TRIPOS>BOND
     1    1    2 1   
     2    1   43 1   
     3    1   44 1   
     4    1   45 1   
     5    2    3 1   
     6    3    4 1   
     7    3   46 1   
     8    3   71 1   
     9    4    5 2   
    10    4    6 1   
    11    6    7 2   
    12    6   15 1   
    13    7    8 1   
    14    7   47 1   
    15    8    9 1   
    16    8   31 1   
    17    9   10 ar  
    18    9   14 ar  
    19   10   11 ar  
    20   11   12 ar  
    21   11   17 1   
    22   12   13 ar  
    23   13   14 ar  
    24   13   48 1   
    25   14   15 1   
    26   15   16 2   
    27   17   18 1   
    28   17   49 1   
    29   17   72 1   
    30   18   19 ar  
    31   18   23 ar  
    32   19   20 ar  
    33   19   50 1   
    34   20   21 ar  
    35   20   51 1   
    36   21   22 ar  
    37   21   24 1   
    38   22   23 ar  
    39   22   52 1   
    40   23   53 1   
    41   24   25 1   
    42   24   37 1   
    43   24   38 1   
    44   25   26 1   
    45   25   54 1   
    46   25   55 1   
    47   26   27 1   
    48   26   30 1   
    49   27   28 1   
    50   27   56 1   
    51   27   57 1   
    52   28   29 1   
    53   28   58 1   
    54   28   59 1   
    55   29   30 1   
    56   29   60 1   
    57   29   61 1   
    58   30   39 1   
    59   30   40 1   
    60   31   32 1   
    61   31   36 1   
    62   31   62 1   
    63   32   33 1   
    64   32   63 1   
    65   32   64 1   
    66   33   34 1   
    67   33   65 1   
    68   33   66 1   
    69   34   35 1   
    70   34   67 1   
    71   34   68 1   
    72   35   36 1   
    73   35   41 1   
    74   35   69 1   
    75   36   42 1   
    76   36   70 1   
@<TRIPOS>SUBSTRUCTURE
     1 8C5         1 TEMP              0 ****  ****    0 ROOT
