@<TRIPOS>MOLECULE
8C5
   71    75     1     0     0
SMALL
bcc


@<TRIPOS>ATOM
      1 C01         0.2330   -0.4350   -0.6020 c3        1 8C5      0.071700
      2 O02         1.6340   -0.3310   -0.2680 os        1 8C5     -0.194100
      3 N03         1.9260   -0.1810    1.0520 ny        1 8C5     -0.451300
      4 C04         3.4510   -0.0830    1.2270 c         1 8C5      0.607300
      5 O05         4.1240   -0.1680    0.2100 o         1 8C5     -0.438100
      6 C06         3.8860    0.0970    2.5940 cc        1 8C5     -0.445400
      7 C07         5.2690    0.1810    2.7920 cd        1 8C5      0.249000
      8 N08         5.8670    0.3470    3.9900 na        1 8C5     -0.561100
      9 C09         5.0590    0.4450    5.1620 ca        1 8C5      0.730200
     10 N10         5.6540    0.6010    6.3710 nb        1 8C5     -0.809000
     11 C11         4.8130    0.6990    7.4810 ca        1 8C5      0.953900
     12 N12         3.4050    0.6330    7.4180 nb        1 8C5     -0.721000
     13 C13         2.8780    0.4720    6.2170 ca        1 8C5      0.550200
     14 C14         3.6400    0.3680    5.0140 ca        1 8C5     -0.494200
     15 C15         2.9830    0.1930    3.7380 c         1 8C5      0.643900
     16 O16         1.7380    0.1290    3.6200 o         1 8C5     -0.653100
     17 N17         5.4300    0.8940    8.6950 nu        1 8C5     -0.687300
     18 C18         4.7540    0.9040    9.9430 ca        1 8C5      0.093600
     19 C19         5.2020    0.0440   10.9690 ca        1 8C5     -0.116500
     20 C20         4.5910    0.0760   12.2160 ca        1 8C5     -0.116500
     21 C21         3.5270    0.9480   12.4730 ca        1 8C5     -0.055300
     22 C22         3.0870    1.7990   11.4530 ca        1 8C5     -0.116500
     23 C23         3.6890    1.7880   10.1980 ca        1 8C5     -0.116500
     24 C24         2.8660    0.9630   13.8050 c3        1 8C5     -0.048100
     25 C25         3.3090    2.1930   14.6080 c3        1 8C5      0.176800
     26 N26         2.7410    2.2230   15.9440 n3        1 8C5     -0.729600
     27 C27         3.3750    3.2050   16.8270 c3        1 8C5      0.159800
     28 C28         2.2900    4.0310   17.5340 c3        1 8C5     -0.092900
     29 C29         0.9560    3.5270   17.0000 c3        1 8C5     -0.092900
     30 C30         1.2910    2.4240   15.9850 c3        1 8C5      0.159800
     31 C31         7.3430    0.4230    4.0550 c3        1 8C5      0.195500
     32 C32         8.0070   -0.8740    3.5620 c3        1 8C5     -0.092400
     33 C33         9.5090   -0.7740    3.7430 c3        1 8C5     -0.078400
     34 C34        10.0790    0.4250    3.0150 c3        1 8C5     -0.087400
     35 C35         9.3940    1.7050    3.4470 c3        1 8C5     -0.078400
     36 C36         7.8920    1.6220    3.2640 c3        1 8C5     -0.092400
     37 H24         1.7510    0.9790   13.6700 hc        1 8C5      0.064200
     38 H24A        3.1200    0.0290   14.3740 hc        1 8C5      0.064200
     39 H30         0.8700    2.6900   14.9750 h1        1 8C5      0.041700
     40 H30A        0.8320    1.4470   16.2990 h1        1 8C5      0.041700
     41 H35         9.6310    1.9160    4.5230 hc        1 8C5      0.059200
     42 H36         7.4200    2.5720    3.6270 hc        1 8C5      0.053450
     43 H01        -0.3130    0.4970   -0.3210 h1        1 8C5      0.089033
     44 H01A       -0.2220   -1.3410   -0.1330 h1        1 8C5      0.089033
     45 H01B        0.2890   -0.5470   -1.7190 h1        1 8C5      0.089033
     46 HN03        1.5800   -0.9820    1.6130 hn        1 8C5      0.470800
     47 H07         5.9500    0.1080    1.9100 h4        1 8C5      0.198000
     48 H13         1.7700    0.4150    6.1590 h4        1 8C5      0.066100
     49 HN17        6.4270    0.8380    8.7330 hn        1 8C5      0.469800
     50 H19         6.0360   -0.6540   10.7940 ha        1 8C5      0.143500
     51 H20         4.9480   -0.5990   13.0110 ha        1 8C5      0.148000
     52 H22         2.2510    2.4910   11.6450 ha        1 8C5      0.148000
     53 H23         3.3230    2.4730    9.4180 ha        1 8C5      0.143500
     54 H25         3.0520    3.1160   14.0080 h1        1 8C5      0.032700
     55 H25A        4.4300    2.1590   14.7170 h1        1 8C5      0.032700
     56 H27         3.9790    2.6250   17.5770 h1        1 8C5      0.041700
     57 H27A        4.0790    3.8870   16.2750 h1        1 8C5      0.041700
     58 H28         2.3570    3.8930   18.6410 hc        1 8C5      0.050700
     59 H28A        2.4250    5.1190   17.3190 hc        1 8C5      0.050700
     60 H29         0.3820    4.3490   16.5090 hc        1 8C5      0.050700
     61 H29A        0.3240    3.1150   17.8250 hc        1 8C5      0.050700
     62 H31         7.6380    0.5660    5.1380 h1        1 8C5      0.123700
     63 H32         7.7720   -1.0450    2.4790 hc        1 8C5      0.053450
     64 H32A        7.6200   -1.7510    4.1430 hc        1 8C5      0.053450
     65 H33         9.7520   -0.7040    4.8360 hc        1 8C5      0.059200
     66 H33A        9.9840   -1.7130    3.3530 hc        1 8C5      0.059200
     67 H34        11.1780    0.5010    3.2240 hc        1 8C5      0.056700
     68 H34A        9.9570    0.2870    1.9090 hc        1 8C5      0.056700
     69 H35A        9.7860    2.5650    2.8420 hc        1 8C5      0.059200
     70 H36A        7.6540    1.5120    2.1740 hc        1 8C5      0.053450
     71 H032        1.4920    0.6770    1.4440 hn        1 8C5      0.470800
@<TRIPOS>BOND
     1    1    2 1   
     2    1   43 1   
     3    1   44 1   
     4    1   45 1   
     5    2    3 1   
     6    3    4 1   
     7    3   46 1   
     8    3   71 1   
     9    4    5 2   
    10    4    6 1   
    11    6    7 2   
    12    6   15 1   
    13    7    8 1   
    14    7   47 1   
    15    8    9 1   
    16    8   31 1   
    17    9   10 ar  
    18    9   14 ar  
    19   10   11 ar  
    20   11   12 ar  
    21   11   17 1   
    22   12   13 ar  
    23   13   14 ar  
    24   13   48 1   
    25   14   15 1   
    26   15   16 2   
    27   17   18 1   
    28   17   49 1   
    29   18   19 ar  
    30   18   23 ar  
    31   19   20 ar  
    32   19   50 1   
    33   20   21 ar  
    34   20   51 1   
    35   21   22 ar  
    36   21   24 1   
    37   22   23 ar  
    38   22   52 1   
    39   23   53 1   
    40   24   25 1   
    41   24   37 1   
    42   24   38 1   
    43   25   26 1   
    44   25   54 1   
    45   25   55 1   
    46   26   27 1   
    47   26   30 1   
    48   27   28 1   
    49   27   56 1   
    50   27   57 1   
    51   28   29 1   
    52   28   58 1   
    53   28   59 1   
    54   29   30 1   
    55   29   60 1   
    56   29   61 1   
    57   30   39 1   
    58   30   40 1   
    59   31   32 1   
    60   31   36 1   
    61   31   62 1   
    62   32   33 1   
    63   32   63 1   
    64   32   64 1   
    65   33   34 1   
    66   33   65 1   
    67   33   66 1   
    68   34   35 1   
    69   34   67 1   
    70   34   68 1   
    71   35   36 1   
    72   35   41 1   
    73   35   69 1   
    74   36   42 1   
    75   36   70 1   
@<TRIPOS>SUBSTRUCTURE
     1 8C5         1 TEMP              0 ****  ****    0 ROOT
