@<TRIPOS>MOLECULE
8C5
   70    74     1     0     0
SMALL
bcc


@<TRIPOS>ATOM
      1 C01         8.0450    4.2400    0.3650 c3        1 8C5      0.113700
      2 O02         6.8450    4.2770   -0.4340 os        1 8C5     -0.263900
      3 N03         5.8150    3.5740    0.0610 n         1 8C5     -0.350400
      4 C04         5.7830    2.2070   -0.3240 c         1 8C5      0.642300
      5 O05         6.8300    1.5950   -0.6180 o         1 8C5     -0.601100
      6 C06         4.4960    1.4760   -0.2060 cc        1 8C5     -0.346400
      7 C07         4.5760    0.1160   -0.0310 cd        1 8C5      0.181000
      8 N08         3.4980   -0.7310    0.0850 na        1 8C5     -0.610100
      9 C09         2.2010   -0.1880    0.0070 ca        1 8C5      0.732200
     10 N10         1.1100   -1.0090    0.1090 nb        1 8C5     -0.817000
     11 C11        -0.1340   -0.4100    0.0410 ca        1 8C5      0.925900
     12 N12        -0.3570    0.9580   -0.1610 nb        1 8C5     -0.746000
     13 C13         0.7300    1.7150   -0.2670 ca        1 8C5      0.535200
     14 C14         2.0570    1.2220   -0.1880 ca        1 8C5     -0.478200
     15 C15         3.1950    2.1300   -0.3070 c         1 8C5      0.624900
     16 O16         3.0330    3.3510   -0.4910 o         1 8C5     -0.594100
     17 N17        -1.2290   -1.2600    0.2440 nh        1 8C5     -0.708300
     18 C18        -2.5550   -0.8950   -0.0920 ca        1 8C5      0.121600
     19 C19        -3.2960   -1.7110   -0.9760 ca        1 8C5     -0.128500
     20 C20        -4.6240   -1.4110   -1.2580 ca        1 8C5     -0.116500
     21 C21        -5.2450   -0.2970   -0.6830 ca        1 8C5     -0.080300
     22 C22        -4.5100    0.5100    0.1910 ca        1 8C5     -0.116500
     23 C23        -3.1830    0.2210    0.4950 ca        1 8C5     -0.128500
     24 C24        -6.6590    0.0320   -1.0050 c3        1 8C5     -0.040100
     25 C25        -7.5710   -0.3150    0.1780 c3        1 8C5      0.173800
     26 N26        -8.9730   -0.0440   -0.0880 n3        1 8C5     -0.728600
     27 C27        -9.8760   -0.6160    0.9130 c3        1 8C5      0.159800
     28 C28       -10.8850    0.4530    1.3620 c3        1 8C5     -0.092400
     29 C29       -10.5210    1.7240    0.6070 c3        1 8C5     -0.092400
     30 C30        -9.2970    1.3740   -0.2540 c3        1 8C5      0.159800
     31 C31         3.7400   -2.1660    0.2770 c3        1 8C5      0.215500
     32 C32         4.4850   -2.7930   -0.9140 c3        1 8C5     -0.093900
     33 C33         4.6200   -4.2880   -0.7060 c3        1 8C5     -0.076400
     34 C34         5.3370   -4.6060    0.5900 c3        1 8C5     -0.083400
     35 C35         4.6490   -3.9520    1.7700 c3        1 8C5     -0.076400
     36 C36         4.5140   -2.4550    1.5750 c3        1 8C5     -0.093900
     37 H24        -6.7420    1.1260   -1.2420 hc        1 8C5      0.058200
     38 H24A       -6.9920   -0.5340   -1.9150 hc        1 8C5      0.058200
     39 H30        -8.4330    2.0420    0.0170 h1        1 8C5      0.041700
     40 H30A       -9.5240    1.5350   -1.3430 h1        1 8C5      0.041700
     41 H35         3.6320   -4.4050    1.9110 hc        1 8C5      0.047950
     42 H36         5.5340   -1.9900    1.5310 hc        1 8C5      0.054450
     43 H01         7.8540    4.6310    1.3920 h1        1 8C5      0.048367
     44 H01A        8.4540    3.2020    0.4030 h1        1 8C5      0.048367
     45 H01B        8.7270    4.9200   -0.2030 h1        1 8C5      0.048367
     46 HN03        4.9620    4.0830   -0.1590 hn        1 8C5      0.333500
     47 H07         5.5750   -0.3730    0.0210 h4        1 8C5      0.189000
     48 H13         0.5680    2.8020   -0.4290 h4        1 8C5      0.059100
     49 HN17       -1.0350   -2.2400    0.1820 hn        1 8C5      0.446800
     50 H19        -2.8320   -2.5910   -1.4480 ha        1 8C5      0.143500
     51 H20        -5.1890   -2.0570   -1.9480 ha        1 8C5      0.137500
     52 H22        -4.9880    1.3900    0.6500 ha        1 8C5      0.137500
     53 H23        -2.6340    0.8740    1.1910 ha        1 8C5      0.143500
     54 H25        -7.4740   -1.4180    0.3880 h1        1 8C5      0.033700
     55 H25A       -7.1920    0.2380    1.0890 h1        1 8C5      0.033700
     56 H27       -10.4080   -1.4750    0.4200 h1        1 8C5      0.041700
     57 H27A       -9.3250   -1.0220    1.8060 h1        1 8C5      0.041700
     58 H28       -11.9270    0.1280    1.1210 hc        1 8C5      0.046950
     59 H28A      -10.8240    0.6090    2.4660 hc        1 8C5      0.046950
     60 H29       -11.3660    2.0630   -0.0400 hc        1 8C5      0.046950
     61 H29A      -10.2780    2.5550    1.3120 hc        1 8C5      0.046950
     62 H31         2.7390   -2.6870    0.3610 h1        1 8C5      0.104700
     63 H32         3.9210   -2.5980   -1.8630 hc        1 8C5      0.054450
     64 H32A        5.5030   -2.3350   -1.0200 hc        1 8C5      0.054450
     65 H33         3.6030   -4.7600   -0.6980 hc        1 8C5      0.047950
     66 H33A        5.1890   -4.7270   -1.5670 hc        1 8C5      0.047950
     67 H34         5.3650   -5.7160    0.7400 hc        1 8C5      0.046700
     68 H34A        6.3980   -4.2470    0.5290 hc        1 8C5      0.046700
     69 H35A        5.2370   -4.1470    2.7040 hc        1 8C5      0.047950
     70 H36A        3.9730   -2.0120    2.4510 hc        1 8C5      0.054450
@<TRIPOS>BOND
     1    1    2 1   
     2    1   43 1   
     3    1   44 1   
     4    1   45 1   
     5    2    3 1   
     6    3    4 1   
     7    3   46 1   
     8    4    5 2   
     9    4    6 1   
    10    6    7 2   
    11    6   15 1   
    12    7    8 1   
    13    7   47 1   
    14    8    9 1   
    15    8   31 1   
    16    9   10 ar  
    17    9   14 ar  
    18   10   11 ar  
    19   11   12 ar  
    20   11   17 1   
    21   12   13 ar  
    22   13   14 ar  
    23   13   48 1   
    24   14   15 1   
    25   15   16 2   
    26   17   18 1   
    27   17   49 1   
    28   18   19 ar  
    29   18   23 ar  
    30   19   20 ar  
    31   19   50 1   
    32   20   21 ar  
    33   20   51 1   
    34   21   22 ar  
    35   21   24 1   
    36   22   23 ar  
    37   22   52 1   
    38   23   53 1   
    39   24   25 1   
    40   24   37 1   
    41   24   38 1   
    42   25   26 1   
    43   25   54 1   
    44   25   55 1   
    45   26   27 1   
    46   26   30 1   
    47   27   28 1   
    48   27   56 1   
    49   27   57 1   
    50   28   29 1   
    51   28   58 1   
    52   28   59 1   
    53   29   30 1   
    54   29   60 1   
    55   29   61 1   
    56   30   39 1   
    57   30   40 1   
    58   31   32 1   
    59   31   36 1   
    60   31   62 1   
    61   32   33 1   
    62   32   63 1   
    63   32   64 1   
    64   33   34 1   
    65   33   65 1   
    66   33   66 1   
    67   34   35 1   
    68   34   67 1   
    69   34   68 1   
    70   35   36 1   
    71   35   41 1   
    72   35   69 1   
    73   36   42 1   
    74   36   70 1   
@<TRIPOS>SUBSTRUCTURE
     1 8C5         1 TEMP              0 ****  ****    0 ROOT
