@<TRIPOS>MOLECULE
8C5
   70    69     1     0     0
SMALL
bcc


@<TRIPOS>ATOM
      1 C01        -4.2170    4.6810   -7.9980 c3        1 8C5     -0.076000
      2 O02        -3.9460    3.4850   -7.2990 os        1 8C5     -0.198000
      3 N03        -2.8570    3.6590   -6.4900 n         1 8C5     -0.191000
      4 C04        -1.9040    2.6030   -6.3380 c2        1 8C5      0.317000
      5 O05        -1.4960    2.0070   -7.3170 o         1 8C5     -0.363000
      6 C06        -1.3330    2.2870   -4.9620 c2        1 8C5     -0.308000
      7 C07         0.0720    2.5890   -4.6620 c1        1 8C5      0.099000
      8 N08         0.6230    2.2500   -3.3720 n2        1 8C5     -0.178000
      9 C09        -0.2460    1.5830   -2.3270 c2        1 8C5      0.211000
     10 N10         0.2720    1.2750   -1.1090 n1        1 8C5     -0.291000
     11 C11        -0.5210    0.6780   -0.1540 c1        1 8C5      0.207000
     12 N12        -1.8460    0.3900   -0.4320 n1        1 8C5     -0.220000
     13 C13        -2.3680    0.6960   -1.6470 c1        1 8C5      0.070000
     14 C14        -1.5770    1.2940   -2.6070 c2        1 8C5     -0.327000
     15 C15        -2.1630    1.6490   -3.9610 c2        1 8C5      0.346000
     16 O16        -3.3020    1.3260   -4.2330 o         1 8C5     -0.355000
     17 N17         0.0760    0.6180    1.1550 n3        1 8C5     -0.229000
     18 C18        -0.4230   -0.3190    2.1350 c2        1 8C5      0.040000
     19 C19        -0.0380   -1.6500    2.0760 c2        1 8C5     -0.157000
     20 C20        -0.3940   -2.5240    3.1000 c1        1 8C5     -0.116000
     21 C21        -1.1340   -2.0640    4.1800 c1        1 8C5     -0.073000
     22 C22        -1.5200   -0.7320    4.2390 c1        1 8C5     -0.116000
     23 C23        -1.1650    0.1410    3.2170 c1        1 8C5     -0.100000
     24 C24        -1.6260   -3.0510    5.2460 c3        1 8C5     -0.126000
     25 C25        -0.4430   -3.5400    6.0680 c3        1 8C5     -0.063000
     26 N26        -0.7420   -4.8460    6.6130 n3        1 8C5     -0.253000
     27 C27        -0.0340   -5.7480    5.9930 c3        1 8C5     -0.077000
     28 C28         0.3130   -6.8240    7.0900 c3        1 8C5     -0.171000
     29 C29        -0.0680   -6.1860    8.4260 c3        1 8C5     -0.171000
     30 C30        -0.2880   -4.9010    8.1460 c3        1 8C5     -0.077000
     31 C31         2.0120    2.4800   -3.1060 c3        1 8C5      0.018000
     32 C32         2.8390    1.6340   -4.0560 c3        1 8C5     -0.172500
     33 C33         4.3180    1.9470   -3.9720 c3        1 8C5     -0.155000
     34 C34         4.6050    3.4290   -4.1170 c3        1 8C5     -0.162000
     35 C35         3.7780    4.2760   -3.1680 c3        1 8C5     -0.155000
     36 C36         2.3000    3.9630   -3.2520 c3        1 8C5     -0.172500
     37 H24        -2.0580   -3.8130    4.8100 hc        1 8C5      0.097500
     38 H24A       -2.2680   -2.6040    5.8330 hc        1 8C5      0.097500
     39 H30        -0.9990   -4.5480    8.7210 h1        1 8C5      0.080750
     40 H30A        0.5330   -4.3850    8.2710 h1        1 8C5      0.080750
     41 H35         4.0830    4.1150   -2.2550 hc        1 8C5      0.087250
     42 H36         1.9610    4.2680   -4.1180 hc        1 8C5      0.093750
     43 H01        -4.2120    5.4360   -7.3700 h1        1 8C5      0.087667
     44 H01A       -5.0980    4.6170   -8.4240 h1        1 8C5      0.087667
     45 H01B       -3.5300    4.8220   -8.6850 h1        1 8C5      0.087667
     46 HN03       -2.7180    4.4640   -6.0750 hn        1 8C5      0.247000
     47 H07         0.6430    2.9850   -5.3470 ha        1 8C5      0.189000
     48 H13        -3.3050    0.4920   -1.8430 ha        1 8C5      0.196000
     49 HN17        0.7790    1.1660    1.3620 hn        1 8C5      0.241000
     50 H19         0.4820   -1.9740    1.3180 ha        1 8C5      0.132000
     51 H20        -0.1230   -3.4600    3.0580 ha        1 8C5      0.135000
     52 H22        -2.0420   -0.4070    5.0000 ha        1 8C5      0.140000
     53 H23        -1.4360    1.0790    3.2600 ha        1 8C5      0.155000
     54 H25         0.3490   -3.5990    5.4960 h1        1 8C5      0.072500
     55 H25A       -0.2720   -2.9120    6.8010 h1        1 8C5      0.072500
     56 H27        -0.5600   -6.1560    5.2700 h1        1 8C5      0.080750
     57 H27A        0.7820   -5.3520    5.6370 h1        1 8C5      0.080750
     58 H28        -0.2090   -7.6380    6.9420 hc        1 8C5      0.086250
     59 H28A        1.2760   -7.0290    7.0730 hc        1 8C5      0.086250
     60 H29        -0.8800   -6.5990    8.7810 hc        1 8C5      0.086250
     61 H29A        0.6680   -6.2730    9.0680 hc        1 8C5      0.086250
     62 H31         2.2080    2.2090   -2.1900 h1        1 8C5      0.143000
     63 H32         2.7040    0.6900   -3.8370 hc        1 8C5      0.093750
     64 H32A        2.5340    1.7940   -4.9700 hc        1 8C5      0.093750
     65 H33         4.6550    1.6450   -3.1120 hc        1 8C5      0.087250
     66 H33A        4.7840    1.4630   -4.6830 hc        1 8C5      0.087250
     67 H34         4.4090    3.7000   -5.0350 hc        1 8C5      0.086000
     68 H34A        5.5560    3.5870   -3.9360 hc        1 8C5      0.086000
     69 H35A        3.9150    5.2200   -3.3860 hc        1 8C5      0.087250
     70 H36A        1.8340    4.4460   -2.5420 hc        1 8C5      0.093750
@<TRIPOS>BOND
     1    1    2 1   
     2    1   43 1   
     3    1   44 1   
     4    1   45 1   
     5    2    3 1   
     6    3    4 1   
     7    3   46 1   
     8    4    5 1   
     9    4    6 1   
    10    6    7 1   
    11    6   15 1   
    12    7   47 1   
    13    8    9 1   
    14    8   31 1   
    15    9   10 1   
    16    9   14 1   
    17   11   12 1   
    18   11   17 1   
    19   13   14 1   
    20   13   48 1   
    21   14   15 1   
    22   15   16 1   
    23   17   18 1   
    24   17   49 1   
    25   18   19 1   
    26   18   23 1   
    27   19   20 1   
    28   19   50 1   
    29   20   51 1   
    30   21   22 1   
    31   21   24 1   
    32   22   52 1   
    33   23   53 1   
    34   24   25 1   
    35   24   37 1   
    36   24   38 1   
    37   25   26 1   
    38   25   54 1   
    39   25   55 1   
    40   26   27 1   
    41   26   30 1   
    42   27   28 1   
    43   27   56 1   
    44   27   57 1   
    45   28   29 1   
    46   28   58 1   
    47   28   59 1   
    48   29   30 1   
    49   29   60 1   
    50   29   61 1   
    51   30   39 1   
    52   30   40 1   
    53   31   32 1   
    54   31   36 1   
    55   31   62 1   
    56   32   33 1   
    57   32   63 1   
    58   32   64 1   
    59   33   34 1   
    60   33   65 1   
    61   33   66 1   
    62   34   35 1   
    63   34   67 1   
    64   34   68 1   
    65   35   36 1   
    66   35   41 1   
    67   35   69 1   
    68   36   42 1   
    69   36   70 1   
@<TRIPOS>SUBSTRUCTURE
     1 8C5         1 TEMP              0 ****  ****    0 ROOT
