@<TRIPOS>MOLECULE
8CA
   41    44     1     0     0
SMALL
bcc


@<TRIPOS>ATOM
      1 O1         -1.8370    2.3360   -1.9490 o         1 8CA     -0.828300
      2 C7         -1.6910    2.4080   -0.6950 c         1 8CA      0.904200
      3 O2         -2.6580    2.5090    0.1150 o         1 8CA     -0.828300
      4 C1         -0.2860    2.3680   -0.1260 ca        1 8CA     -0.103600
      5 C2          0.2290    3.5150    0.4650 ca        1 8CA     -0.120000
      6 C3          1.5240    3.5700    1.0060 ca        1 8CA     -0.162000
      7 C4          2.3540    2.4620    0.9800 ca        1 8CA     -0.127000
      8 C5          1.8800    1.2810    0.4060 ca        1 8CA     -0.091800
      9 C8          2.4590   -0.0240    0.2200 cc        1 8CA     -0.166400
     10 C13         3.7950   -0.5090    0.5880 c3        1 8CA      0.009800
     11 C12         3.8530   -2.0290    0.5420 c3        1 8CA     -0.073400
     12 C11         3.1930   -2.5810   -0.7070 c3        1 8CA     -0.068400
     13 C10         1.7130   -2.2380   -0.7770 c3        1 8CA     -0.013200
     14 C9          1.5000   -0.8150   -0.4240 cd        1 8CA     -0.069300
     15 N1          0.3390   -0.0670   -0.6700 na        1 8CA     -0.041400
     16 C6          0.5430    1.2280   -0.1560 ca        1 8CA     -0.011200
     17 C20        -0.8520   -0.5900   -1.2760 c3        1 8CA      0.059600
     18 C19        -1.7410   -1.3850   -0.3570 ca        1 8CA     -0.102300
     19 C18        -2.6720   -0.7270    0.4550 ca        1 8CA     -0.112000
     20 C17        -3.5200   -1.4690    1.2780 ca        1 8CA     -0.147000
     21 C16        -3.4480   -2.8620    1.2940 ca        1 8CA     -0.141000
     22 C15        -2.5230   -3.5180    0.4820 ca        1 8CA     -0.147000
     23 C14        -1.6710   -2.7820   -0.3390 ca        1 8CA     -0.112000
     24 H2         -0.4130    4.4090    0.5120 ha        1 8CA      0.132000
     25 H3          1.8760    4.5080    1.4570 ha        1 8CA      0.104000
     26 H4          3.3670    2.4960    1.4010 ha        1 8CA      0.107000
     27 H13         4.5580   -0.0840   -0.1200 hc        1 8CA      0.033700
     28 H13A        4.0670   -0.1540    1.6180 hc        1 8CA      0.033700
     29 H12         4.9220   -2.3620    0.5770 hc        1 8CA      0.030700
     30 H12A        3.3370   -2.4470    1.4460 hc        1 8CA      0.030700
     31 H11         3.7120   -2.1660   -1.6100 hc        1 8CA      0.032200
     32 H11A        3.3090   -3.6960   -0.7310 hc        1 8CA      0.032200
     33 H10         1.3270   -2.4590   -1.8080 hc        1 8CA      0.046200
     34 H10A        1.1370   -2.8840   -0.0590 hc        1 8CA      0.046200
     35 H20        -1.4450    0.2800   -1.7040 h1        1 8CA      0.092200
     36 H20A       -0.5350   -1.2550   -2.1330 h1        1 8CA      0.092200
     37 H18        -2.7370    0.3830    0.4350 ha        1 8CA      0.163500
     38 H17        -4.2490   -0.9470    1.9150 ha        1 8CA      0.120000
     39 H16        -4.1180   -3.4420    1.9430 ha        1 8CA      0.111000
     40 H15        -2.4640   -4.6150    0.4900 ha        1 8CA      0.120000
     41 H14        -0.9400   -3.3010   -0.9780 ha        1 8CA      0.163500
@<TRIPOS>BOND
     1    1    2 1   
     2    2    3 1   
     3    2    4 1   
     4    4    5 ar  
     5    4   16 ar  
     6    5    6 ar  
     7    5   24 1   
     8    6    7 ar  
     9    6   25 1   
    10    7    8 ar  
    11    7   26 1   
    12    8    9 1   
    13    8   16 ar  
    14    9   10 1   
    15    9   14 2   
    16   10   11 1   
    17   10   27 1   
    18   10   28 1   
    19   11   12 1   
    20   11   29 1   
    21   11   30 1   
    22   12   13 1   
    23   12   31 1   
    24   12   32 1   
    25   13   14 1   
    26   13   33 1   
    27   13   34 1   
    28   14   15 1   
    29   15   16 1   
    30   15   17 1   
    31   17   18 1   
    32   17   35 1   
    33   17   36 1   
    34   18   19 ar  
    35   18   23 ar  
    36   19   20 ar  
    37   19   37 1   
    38   20   21 ar  
    39   20   38 1   
    40   21   22 ar  
    41   21   39 1   
    42   22   23 ar  
    43   22   40 1   
    44   23   41 1   
@<TRIPOS>SUBSTRUCTURE
     1 8CA         1 TEMP              0 ****  ****    0 ROOT
