@<TRIPOS>MOLECULE
8CA
   41    36     1     0     0
SMALL
bcc


@<TRIPOS>ATOM
      1 O1         -2.7450    2.5110    3.0010 o         1 8CA     -0.563000
      2 C7         -1.5840    2.0870    3.0390 c1        1 8CA      0.353000
      3 O2         -1.1050    1.6400    4.1310 os        1 8CA     -0.563000
      4 C1         -0.7410    2.0920    1.7920 c2        1 8CA     -0.083000
      5 C2         -0.3150    3.3810    2.1090 c1        1 8CA     -0.120000
      6 C3          0.5430    4.0820    1.2230 c1        1 8CA     -0.142000
      7 C4          0.9670    3.4760    0.0230 c1        1 8CA     -0.142000
      8 C5          0.5340    2.1630   -0.3000 c1        1 8CA     -0.080000
      9 C8          0.7950    1.3420   -1.3810 c1        1 8CA     -0.174000
     10 C13         1.5970    1.5270   -2.7600 c2        1 8CA     -0.073000
     11 C12         1.6760    0.3820   -3.6140 c3        1 8CA     -0.152000
     12 C11         0.5150   -0.4780   -3.6600 c3        1 8CA     -0.147000
     13 C10         0.0070   -0.9420   -2.4130 c3        1 8CA     -0.096000
     14 C9          0.0850    0.0940   -1.1740 c2        1 8CA     -0.038000
     15 N1         -0.5790    0.1830    0.0060 n2        1 8CA     -0.133000
     16 C6         -0.3110    1.4730    0.5720 c2        1 8CA      0.034000
     17 C20        -1.6140   -0.6890    0.5580 c2        1 8CA     -0.007000
     18 C19        -0.9360   -1.9910    1.1510 c2        1 8CA     -0.095000
     19 C18        -1.5240   -3.2290    0.9710 c2        1 8CA     -0.131000
     20 C17        -0.9650   -4.3520    1.5680 c1        1 8CA     -0.156000
     21 C16         0.1720   -4.2300    2.3360 c1        1 8CA     -0.142000
     22 C15         0.7530   -2.9990    2.5130 c1        1 8CA     -0.142000
     23 C14         0.2000   -1.8780    1.9210 c1        1 8CA     -0.093000
     24 H2         -0.6230    3.8200    2.9820 ha        1 8CA      0.132000
     25 H3          0.8430    4.9860    1.4450 ha        1 8CA      0.112750
     26 H4          1.5220    3.9700   -0.6010 ha        1 8CA      0.112750
     27 H13         1.1490    2.2860   -3.2880 ha        1 8CA      0.073000
     28 H13A        2.4990    1.8000   -2.5420 ha        1 8CA      0.073000
     29 H12         1.8510    0.7000   -4.5290 hc        1 8CA      0.070000
     30 H12A        2.4760   -0.1810   -3.3170 hc        1 8CA      0.070000
     31 H11        -0.2000    0.0080   -4.1120 hc        1 8CA      0.071500
     32 H11A        0.7420   -1.2700   -4.2100 hc        1 8CA      0.071500
     33 H10         0.5120   -1.7710   -2.1580 hc        1 8CA      0.085500
     34 H10A       -0.9300   -1.1840   -2.5420 hc        1 8CA      0.085500
     35 H20        -2.0830   -0.2280    1.2540 ha        1 8CA      0.131500
     36 H20A       -2.2420   -0.9400   -0.1490 ha        1 8CA      0.131500
     37 H18        -2.4020   -3.2970    0.5200 ha        1 8CA      0.116000
     38 H17        -1.3770   -5.2610    1.4210 ha        1 8CA      0.111000
     39 H16         0.5110   -4.9850    2.8030 ha        1 8CA      0.112750
     40 H15         1.5010   -2.9070    3.0920 ha        1 8CA      0.112750
     41 H14         0.8270   -1.1930    2.3170 ha        1 8CA      0.211000
@<TRIPOS>BOND
     1    1    2 1   
     2    2    4 1   
     3    4    5 1   
     4    4   16 1   
     5    5   24 1   
     6    6    7 1   
     7    6   25 1   
     8    7   26 1   
     9    8   16 1   
    10    9   14 1   
    11   10   11 1   
    12   10   27 1   
    13   10   28 1   
    14   11   12 1   
    15   11   29 1   
    16   11   30 1   
    17   12   13 1   
    18   12   31 1   
    19   12   32 1   
    20   13   14 1   
    21   13   33 1   
    22   13   34 1   
    23   14   15 1   
    24   15   16 1   
    25   17   18 1   
    26   17   35 1   
    27   17   36 1   
    28   18   19 1   
    29   18   23 1   
    30   19   20 1   
    31   19   37 1   
    32   20   38 1   
    33   21   22 1   
    34   21   39 1   
    35   22   40 1   
    36   23   41 1   
@<TRIPOS>SUBSTRUCTURE
     1 8CA         1 TEMP              0 ****  ****    0 ROOT
