@<TRIPOS>MOLECULE
8CA
   41    44     1     0     0
SMALL
bcc


@<TRIPOS>ATOM
      1 O1         -0.0550    0.2630    0.0650 o         1 8CA     -0.828300
      2 C7          1.2030    0.1310    0.0570 c         1 8CA      0.904200
      3 O2          1.9020    0.0540    1.1070 o         1 8CA     -0.828300
      4 C1          1.9140    0.0570   -1.2810 ca        1 8CA     -0.103600
      5 C2          2.7360    1.1120   -1.6590 ca        1 8CA     -0.120000
      6 C3          3.4240    1.1310   -2.8840 ca        1 8CA     -0.162000
      7 C4          3.3160    0.0800   -3.7780 ca        1 8CA     -0.127000
      8 C5          2.5090   -1.0080   -3.4410 ca        1 8CA     -0.091800
      9 C8          2.1830   -2.2380   -4.1150 cc        1 8CA     -0.166400
     10 C13         2.6180   -2.7200   -5.4320 c3        1 8CA      0.009800
     11 C12         2.3350   -4.2060   -5.5880 c3        1 8CA     -0.073400
     12 C11         0.9470   -4.5710   -5.0990 c3        1 8CA     -0.068400
     13 C10         0.7640   -4.2850   -3.6160 c3        1 8CA     -0.013200
     14 C9          1.3140   -2.9510   -3.2800 cd        1 8CA     -0.069300
     15 N1          1.0620   -2.2240   -2.1080 na        1 8CA     -0.041400
     16 C6          1.7970   -1.0250   -2.1770 ca        1 8CA     -0.011200
     17 C20         0.2470   -2.6900   -1.0220 c3        1 8CA      0.059600
     18 C19         0.9190   -3.6640   -0.0910 ca        1 8CA     -0.102300
     19 C18         1.7150   -3.1920    0.9590 ca        1 8CA     -0.112000
     20 C17         2.3050   -4.0960    1.8410 ca        1 8CA     -0.147000
     21 C16         2.1050   -5.4680    1.6860 ca        1 8CA     -0.141000
     22 C15         1.3090   -5.9390    0.6420 ca        1 8CA     -0.147000
     23 C14         0.7200   -5.0400   -0.2450 ca        1 8CA     -0.112000
     24 H2          2.8530    1.9560   -0.9620 ha        1 8CA      0.132000
     25 H3          4.0570    1.9950   -3.1280 ha        1 8CA      0.104000
     26 H4          3.8490    0.0880   -4.7370 ha        1 8CA      0.107000
     27 H13         2.0790   -2.1500   -6.2390 hc        1 8CA      0.033700
     28 H13A        3.7160   -2.5290   -5.5720 hc        1 8CA      0.033700
     29 H12         3.0960   -4.7900   -5.0060 hc        1 8CA      0.030700
     30 H12A        2.4390   -4.4940   -6.6660 hc        1 8CA      0.030700
     31 H11         0.1880   -3.9890   -5.6830 hc        1 8CA      0.032200
     32 H11A        0.7570   -5.6600   -5.2860 hc        1 8CA      0.032200
     33 H10         1.2990   -5.0660   -3.0080 hc        1 8CA      0.046200
     34 H10A       -0.3260   -4.3480   -3.3560 hc        1 8CA      0.046200
     35 H20        -0.6630   -3.1880   -1.4680 h1        1 8CA      0.092200
     36 H20A       -0.1000   -1.7870   -0.4250 h1        1 8CA      0.092200
     37 H18         1.8660   -2.0980    1.0900 ha        1 8CA      0.163500
     38 H17         2.9300   -3.7190    2.6640 ha        1 8CA      0.120000
     39 H16         2.5710   -6.1760    2.3840 ha        1 8CA      0.111000
     40 H15         1.1470   -7.0190    0.5170 ha        1 8CA      0.120000
     41 H14         0.0940   -5.4130   -1.0690 ha        1 8CA      0.163500
@<TRIPOS>BOND
     1    1    2 1   
     2    2    3 1   
     3    2    4 1   
     4    4    5 ar  
     5    4   16 ar  
     6    5    6 ar  
     7    5   24 1   
     8    6    7 ar  
     9    6   25 1   
    10    7    8 ar  
    11    7   26 1   
    12    8    9 1   
    13    8   16 ar  
    14    9   10 1   
    15    9   14 2   
    16   10   11 1   
    17   10   27 1   
    18   10   28 1   
    19   11   12 1   
    20   11   29 1   
    21   11   30 1   
    22   12   13 1   
    23   12   31 1   
    24   12   32 1   
    25   13   14 1   
    26   13   33 1   
    27   13   34 1   
    28   14   15 1   
    29   15   16 1   
    30   15   17 1   
    31   17   18 1   
    32   17   35 1   
    33   17   36 1   
    34   18   19 ar  
    35   18   23 ar  
    36   19   20 ar  
    37   19   37 1   
    38   20   21 ar  
    39   20   38 1   
    40   21   22 ar  
    41   21   39 1   
    42   22   23 ar  
    43   22   40 1   
    44   23   41 1   
@<TRIPOS>SUBSTRUCTURE
     1 8CA         1 TEMP              0 ****  ****    0 ROOT
