@<TRIPOS>MOLECULE
8CL
   12    10     1     0     0
SMALL
bcc


@<TRIPOS>ATOM
      1 CL6        -3.0660    0.0000    0.0000 cl        1 8CL     -0.019000
      2 C1         -1.3220    0.0000    0.0000 c2        1 8CL     -0.061000
      3 C2         -0.6290    0.0000    1.2000 c2        1 8CL     -0.124000
      4 C3          0.7570    0.0000    1.2000 c1        1 8CL     -0.122000
      5 C4          1.4500   -0.0000   -0.0000 c1        1 8CL     -0.125500
      6 C5          0.7570   -0.0000   -1.2000 c1        1 8CL     -0.125500
      7 C6         -0.6290    0.0000   -1.2000 c1        1 8CL     -0.124000
      8 H2         -1.1170    0.0000    2.0460 ha        1 8CL      0.147000
      9 H3          1.2450    0.0000    2.0460 ha        1 8CL      0.137000
     10 H4          2.4260   -0.0000   -0.0000 ha        1 8CL      0.136000
     11 H5          1.2450   -0.0000   -2.0460 ha        1 8CL      0.136000
     12 H6         -1.1170   -0.0000   -2.0460 ha        1 8CL      0.147000
@<TRIPOS>BOND
     1    1    2 1   
     2    2    3 1   
     3    2    7 1   
     4    3    4 1   
     5    3    8 1   
     6    4    9 1   
     7    5    6 1   
     8    5   10 1   
     9    6   11 1   
    10    7   12 1   
@<TRIPOS>SUBSTRUCTURE
     1 8CL         1 TEMP              0 ****  ****    0 ROOT
