@<TRIPOS>MOLECULE
8CL
   12    12     1     0     0
SMALL
bcc


@<TRIPOS>ATOM
      1 CL6        -2.1360    0.0000   -0.0030 cl        1 8CL     -0.097400
      2 C1         -0.4350    0.0000   -0.0010 ca        1 8CL      0.017400
      3 C2          0.2580   -1.2150   -0.0010 ca        1 8CL     -0.124000
      4 C3          1.6520   -1.2080    0.0000 ca        1 8CL     -0.122000
      5 C4          2.3490   -0.0000    0.0010 ca        1 8CL     -0.129000
      6 C5          1.6520    1.2080    0.0000 ca        1 8CL     -0.122000
      7 C6          0.2580    1.2150   -0.0010 ca        1 8CL     -0.124000
      8 H2         -0.2920   -2.1680   -0.0010 ha        1 8CL      0.147000
      9 H3          2.2010   -2.1610    0.0000 ha        1 8CL      0.137000
     10 H4          3.4490   -0.0000    0.0010 ha        1 8CL      0.135000
     11 H5          2.2010    2.1610    0.0010 ha        1 8CL      0.137000
     12 H6         -0.2910    2.1680   -0.0010 ha        1 8CL      0.147000
@<TRIPOS>BOND
     1    1    2 1   
     2    2    3 ar  
     3    2    7 ar  
     4    3    4 ar  
     5    3    8 1   
     6    4    5 ar  
     7    4    9 1   
     8    5    6 ar  
     9    5   10 1   
    10    6    7 ar  
    11    6   11 1   
    12    7   12 1   
@<TRIPOS>SUBSTRUCTURE
     1 8CL         1 TEMP              0 ****  ****    0 ROOT
