@<TRIPOS>MOLECULE
8CM
   18    19     1     0     0
SMALL
bcc


@<TRIPOS>ATOM
      1 C5         -0.0010   -0.0500   -0.0580 ca        1 8CM     -0.112000
      2 C6          1.3870   -0.0230   -0.0750 ca        1 8CM     -0.120000
      3 C7          2.1230    0.0570    1.1110 ca        1 8CM     -0.123000
      4 C8          1.4550    0.1100    2.3380 ca        1 8CM      0.120100
      5 C1A         0.0410    0.0830    2.3590 ca        1 8CM      0.067100
      6 C4A        -0.6930    0.0030    1.1630 ca        1 8CM     -0.113800
      7 C4         -2.1340   -0.0210    1.2520 cc        1 8CM     -0.012200
      8 C3         -2.7320    0.0330    2.4590 cd        1 8CM     -0.246200
      9 C2         -1.9440    0.1160    3.6820 c         1 8CM      0.724800
     10 O1         -0.5500    0.1390    3.6060 os        1 8CM     -0.344200
     11 O2         -2.3170    0.1720    4.8520 o         1 8CM     -0.562500
     12 O8          2.2170    0.1870    3.4770 oh        1 8CM     -0.488100
     13 H5         -0.5700   -0.1120   -0.9980 ha        1 8CM      0.141000
     14 H6          1.9240   -0.0640   -1.0360 ha        1 8CM      0.143000
     15 H7          3.2230    0.0780    1.0970 ha        1 8CM      0.159000
     16 H4         -2.7110   -0.0830    0.3160 ha        1 8CM      0.151000
     17 H3         -3.8240    0.0190    2.5960 ha        1 8CM      0.171000
     18 HO8         1.6190    0.2170    4.2410 ho        1 8CM      0.445000
@<TRIPOS>BOND
     1    1    2 ar  
     2    1    6 ar  
     3    1   13 1   
     4    2    3 ar  
     5    2   14 1   
     6    3    4 ar  
     7    3   15 1   
     8    4    5 ar  
     9    4   12 1   
    10    5    6 ar  
    11    5   10 1   
    12    6    7 1   
    13    7    8 2   
    14    7   16 1   
    15    8    9 1   
    16    8   17 1   
    17    9   10 1   
    18    9   11 2   
    19   12   18 1   
@<TRIPOS>SUBSTRUCTURE
     1 8CM         1 TEMP              0 ****  ****    0 ROOT
