@<TRIPOS>MOLECULE
8CM
   18    15     1     0     0
SMALL
bcc


@<TRIPOS>ATOM
      1 C5          0.2000   -0.0430   -1.8060 c1        1 8CM     -0.112000
      2 C6          1.5890   -0.0430   -1.8060 c1        1 8CM     -0.121500
      3 C7          2.2860   -0.0430   -0.6010 c1        1 8CM     -0.121500
      4 C8          1.5920   -0.0430    0.6030 c1        1 8CM      0.075000
      5 C1A         0.1840   -0.0430    0.6040 c1        1 8CM      0.022000
      6 C4A        -0.5040   -0.0430   -0.5860 c1        1 8CM     -0.102000
      7 C4         -1.8970   -0.0430   -0.5850 c2        1 8CM     -0.024000
      8 C3         -2.5820   -0.0430    0.6070 c1        1 8CM     -0.227000
      9 C2         -1.8840   -0.0430    1.8110 c1        1 8CM      0.340000
     10 O1         -0.5120   -0.0430    1.8090 os        1 8CM     -0.209000
     11 O2         -2.4900   -0.0430    2.8640 o         1 8CM     -0.287000
     12 O8          2.2970   -0.0600    1.8210 oh        1 8CM     -0.242000
     13 H5         -0.2880   -0.0430   -2.6510 ha        1 8CM      0.141000
     14 H6          2.0770   -0.0430   -2.6510 ha        1 8CM      0.151000
     15 H7          3.2620   -0.0430   -0.6010 ha        1 8CM      0.151000
     16 H4         -2.3860   -0.0430   -1.4290 ha        1 8CM      0.151000
     17 H3         -3.5580   -0.0430    0.6080 ha        1 8CM      0.171000
     18 HO8         2.6140    0.7520    1.9900 ho        1 8CM      0.244000
@<TRIPOS>BOND
     1    1    6 1   
     2    1   13 1   
     3    2    3 1   
     4    2   14 1   
     5    3   15 1   
     6    4    5 1   
     7    4   12 1   
     8    5   10 1   
     9    6    7 1   
    10    7    8 1   
    11    7   16 1   
    12    8   17 1   
    13    9   10 1   
    14    9   11 1   
    15   12   18 1   
@<TRIPOS>SUBSTRUCTURE
     1 8CM         1 TEMP              0 ****  ****    0 ROOT
