@<TRIPOS>MOLECULE
8CM
   18    19     1     0     0
SMALL
bcc


@<TRIPOS>ATOM
      1 C5          1.4750   -1.8490    0.0380 ca        1 8CM     -0.112000
      2 C6          2.6700   -1.1420    0.0110 ca        1 8CM     -0.120000
      3 C7          2.6820    0.2540   -0.0620 ca        1 8CM     -0.123000
      4 C8          1.4730    0.9560   -0.1080 ca        1 8CM      0.120100
      5 C1A         0.2540    0.2390   -0.0800 ca        1 8CM      0.067100
      6 C4A         0.2490   -1.1650   -0.0070 ca        1 8CM     -0.113800
      7 C4         -1.0290   -1.8380    0.0180 cc        1 8CM     -0.012200
      8 C3         -2.1670   -1.1170   -0.0290 cd        1 8CM     -0.246200
      9 C2         -2.1300    0.3370   -0.1040 c         1 8CM      0.724800
     10 O1         -0.8990    0.9970   -0.1280 os        1 8CM     -0.344200
     11 O2         -3.0560    1.1430   -0.1530 o         1 8CM     -0.562500
     12 O8          1.5320    2.3250   -0.1780 oh        1 8CM     -0.488100
     13 H5          1.4770   -2.9470    0.0950 ha        1 8CM      0.141000
     14 H6          3.6270   -1.6830    0.0460 ha        1 8CM      0.143000
     15 H7          3.6280    0.8140   -0.0830 ha        1 8CM      0.159000
     16 H4         -1.0350   -2.9380    0.0750 ha        1 8CM      0.151000
     17 H3         -3.1700   -1.5680   -0.0130 ha        1 8CM      0.171000
     18 HO8         0.6230    2.6680   -0.2030 ho        1 8CM      0.445000
@<TRIPOS>BOND
     1    1    2 ar  
     2    1    6 ar  
     3    1   13 1   
     4    2    3 ar  
     5    2   14 1   
     6    3    4 ar  
     7    3   15 1   
     8    4    5 ar  
     9    4   12 1   
    10    5    6 ar  
    11    5   10 1   
    12    6    7 1   
    13    7    8 2   
    14    7   16 1   
    15    8    9 1   
    16    8   17 1   
    17    9   10 1   
    18    9   11 2   
    19   12   18 1   
@<TRIPOS>SUBSTRUCTURE
     1 8CM         1 TEMP              0 ****  ****    0 ROOT
