@<TRIPOS>MOLECULE
8CS
   35    36     1     0     0
SMALL
bcc


@<TRIPOS>ATOM
      1 O4'        -2.5000    1.2200   -2.6900 o         1 8CS     -0.340000
      2 C4'        -1.2840    1.2200   -2.6900 c1        1 8CS      0.359000
      3 C4A        -0.5570    1.2200   -1.4300 c2        1 8CS     -0.185000
      4 N5'        -1.0910    0.8560   -0.1670 n3        1 8CS     -0.197000
      5 N3'        -0.5500    1.3420   -3.9550 n2        1 8CS     -0.332000
      6 C2'         0.9580    1.6860   -3.9460 c2        1 8CS      0.224000
      7 N2'         1.6030    2.0940   -5.1540 n3        1 8CS     -0.323000
      8 N1'         1.7510    1.5820   -2.6680 n1        1 8CS     -0.265000
      9 C4B         1.0840    1.4240   -1.4420 c1        1 8CS      0.112000
     10 N8'         1.6440    1.7760   -0.1720 n3        1 8CS     -0.233000
     11 C7          0.9390    1.2170    1.0680 c3        1 8CS      0.090000
     12 C6'        -0.3580    1.4140    1.0850 c3        1 8CS     -0.068000
     13 C7'        -1.0420    0.7430    2.3250 c2        1 8CS      0.231000
     14 O10        -2.1120    1.1560    2.7260 o         1 8CS     -0.231000
     15 C8'        -0.6910   -0.7520    2.4650 c3        1 8CS     -0.015000
     16 O3         -1.4150   -1.4910    1.4230 os        1 8CS     -0.704000
     17 O9'         1.3350   -0.3380    1.2290 os        1 8CS     -0.289000
     18 C9'         0.7130   -0.9730    2.4170 c3        1 8CS     -0.038000
     19 C10         1.0960   -2.5090    2.3970 c3        1 8CS      0.030000
     20 O1          0.4180   -3.2370    1.3810 os        1 8CS     -0.708000
     21 P          -1.0880   -3.0510    1.4120 p5        1 8CS      2.606000
     22 O2         -1.7650   -3.7620    0.3030 o         1 8CS     -1.034000
     23 O4         -1.7230   -3.7740    2.6730 oh        1 8CS     -0.827000
     24 HN3'       -0.9830    1.2130   -4.7470 hn        1 8CS      0.253000
     25 H2'1        1.9940    1.4720   -5.6950 hn        1 8CS      0.211500
     26 H2'2        1.6450    2.9780   -5.3730 hn        1 8CS      0.211500
     27 H7          1.3070    1.6870    1.8410 h2        1 8CS      0.112000
     28 H6'        -0.5190    2.3760    1.1300 h1        1 8CS      0.148000
     29 H8'        -1.0140   -1.0590    3.3330 h1        1 8CS      0.136000
     30 H9'         1.1080   -0.5740    3.2160 h1        1 8CS      0.109000
     31 H101        0.8750   -2.9000    3.2640 h1        1 8CS      0.118500
     32 H102        2.0580   -2.5910    2.2520 h1        1 8CS      0.118500
     33 HO4        -2.3900   -4.2960    2.4090 ho        1 8CS      0.293000
     34 HN5'       -1.9560    0.5760   -0.1010 hn        1 8CS      0.207000
     35 HN8'        2.5110    2.0550   -0.1170 hn        1 8CS      0.221000
@<TRIPOS>BOND
     1    1    2 1   
     2    2    3 1   
     3    3    4 1   
     4    3    9 1   
     5    4   12 1   
     6    4   34 1   
     7    5    6 1   
     8    5   24 1   
     9    6    7 1   
    10    6    8 1   
    11    7   25 1   
    12    7   26 1   
    13    9   10 1   
    14   10   11 1   
    15   10   35 1   
    16   11   12 1   
    17   11   17 1   
    18   11   27 1   
    19   12   13 1   
    20   12   28 1   
    21   13   14 1   
    22   13   15 1   
    23   15   16 1   
    24   15   18 1   
    25   15   29 1   
    26   16   21 1   
    27   17   18 1   
    28   18   19 1   
    29   18   30 1   
    30   19   20 1   
    31   19   31 1   
    32   19   32 1   
    33   20   21 1   
    34   21   22 1   
    35   21   23 1   
    36   23   33 1   
@<TRIPOS>SUBSTRUCTURE
     1 8CS         1 TEMP              0 ****  ****    0 ROOT
