@<TRIPOS>MOLECULE
8CS
   36    39     1     0     0
SMALL
bcc


@<TRIPOS>ATOM
      1 O4'        -0.1040    0.0430   -0.0300 o         1 8CS     -0.546500
      2 C4'         1.1290    0.0420    0.0690 c         1 8CS      0.695700
      3 C4A         1.8930    0.1690    1.3410 cc        1 8CS      0.094800
      4 N5'         1.1850    0.3840    2.4920 nh        1 8CS     -0.663000
      5 N3'         1.8930   -0.0850   -1.1080 n         1 8CS     -0.472400
      6 C2'         3.2900   -0.1210   -1.0090 cc        1 8CS      0.424800
      7 N2'         4.0690   -0.2750   -2.2730 n4        1 8CS     -0.779600
      8 N1'         4.0000   -0.0310    0.1120 nd        1 8CS     -0.524300
      9 C4B         3.3100    0.1240    1.3040 cd        1 8CS      0.197600
     10 N8'         4.0450    0.3090    2.5140 nh        1 8CS     -0.647000
     11 C7          3.3360   -0.1650    3.6920 c3        1 8CS      0.360300
     12 C6'         1.8910    0.4350    3.7560 c3        1 8CS      0.090500
     13 C7'         1.1250   -0.2630    4.8790 c         1 8CS      0.554100
     14 O10         0.5780    0.3620    5.7780 o         1 8CS     -0.434100
     15 C8'         1.1640   -1.7800    4.8220 c3        1 8CS      0.054100
     16 O3          0.4300   -2.1820    3.6880 os        1 8CS     -0.558200
     17 O9'         3.3160   -1.6040    3.6470 os        1 8CS     -0.434600
     18 C9'         2.6420   -2.2200    4.7350 c3        1 8CS      0.070100
     19 C10         2.6870   -3.7390    4.4840 c3        1 8CS      0.180400
     20 O1          1.8940   -4.1200    3.3870 os        1 8CS     -0.550200
     21 P           0.3310   -3.7720    3.4010 p5        1 8CS      1.638500
     22 O2         -0.4750   -4.1630    2.2680 o         1 8CS     -0.759300
     23 O4         -0.1310   -4.3220    4.8170 oh        1 8CS     -0.791400
     24 HN3'        1.4120   -0.1750   -1.9770 hn        1 8CS      0.355500
     25 H2'1        5.0780   -0.2820   -2.0560 hn        1 8CS      0.477800
     26 H2'2        3.8170   -1.1610   -2.7260 hn        1 8CS      0.477800
     27 H7          3.9120    0.1700    4.6050 h2        1 8CS      0.100700
     28 H6'         1.9920    1.5350    4.0240 h1        1 8CS      0.121700
     29 H8'         0.6810   -2.2320    5.7370 h1        1 8CS      0.112700
     30 H9'         3.1660   -1.9740    5.6990 h1        1 8CS      0.085700
     31 H101        2.3100   -4.2660    5.4040 h1        1 8CS      0.088700
     32 H102        3.7340   -4.0610    4.2350 h1        1 8CS      0.088700
     33 HO4        -0.9130   -4.8700    4.8640 ho        1 8CS      0.507000
     34 HN5'        0.2300    0.0730    2.5090 hn        1 8CS      0.479800
     35 HN8'        4.9820   -0.0540    2.4710 hn        1 8CS      0.425800
     36 H2'3        3.8660    0.5110   -2.9010 hn        1 8CS      0.477800
@<TRIPOS>BOND
     1    1    2 2   
     2    2    3 1   
     3    2    5 1   
     4    3    4 1   
     5    3    9 2   
     6    4   12 1   
     7    4   34 1   
     8    5    6 1   
     9    5   24 1   
    10    6    7 1   
    11    6    8 2   
    12    7   25 1   
    13    7   26 1   
    14    7   36 1   
    15    8    9 1   
    16    9   10 1   
    17   10   11 1   
    18   10   35 1   
    19   11   12 1   
    20   11   17 1   
    21   11   27 1   
    22   12   13 1   
    23   12   28 1   
    24   13   14 2   
    25   13   15 1   
    26   15   16 1   
    27   15   18 1   
    28   15   29 1   
    29   16   21 1   
    30   17   18 1   
    31   18   19 1   
    32   18   30 1   
    33   19   20 1   
    34   19   31 1   
    35   19   32 1   
    36   20   21 1   
    37   21   22 2   
    38   21   23 1   
    39   23   33 1   
@<TRIPOS>SUBSTRUCTURE
     1 8CS         1 TEMP              0 ****  ****    0 ROOT
