@<TRIPOS>MOLECULE
8CS
   36    39     1     0     0
SMALL
bcc


@<TRIPOS>ATOM
      1 O4'        -0.1000    0.0450   -0.0330 o         1 8CS     -0.546500
      2 C4'         1.1330    0.0430    0.0680 c         1 8CS      0.695700
      3 C4A         1.8960    0.1690    1.3410 cc        1 8CS      0.094800
      4 N5'         1.1860    0.3850    2.4910 nu        1 8CS     -0.663000
      5 N3'         1.8990   -0.0840   -1.1080 ns        1 8CS     -0.472400
      6 C2'         3.2950   -0.1200   -1.0070 cc        1 8CS      0.424800
      7 N2'         4.0770   -0.2740   -2.2710 nz        1 8CS     -0.779600
      8 N1'         4.0030   -0.0310    0.1140 nd        1 8CS     -0.524300
      9 C4B         3.3120    0.1240    1.3060 cd        1 8CS      0.197600
     10 N8'         4.0460    0.3080    2.5170 nu        1 8CS     -0.647000
     11 C7          3.3340   -0.1660    3.6940 c3        1 8CS      0.360300
     12 C6'         1.8900    0.4350    3.7560 c3        1 8CS      0.090500
     13 C7'         1.1230   -0.2630    4.8780 c         1 8CS      0.554100
     14 O10         0.5740    0.3620    5.7760 o         1 8CS     -0.434100
     15 C8'         1.1600   -1.7800    4.8200 c3        1 8CS      0.054100
     16 O3          0.4280   -2.1810    3.6850 os        1 8CS     -0.558200
     17 O9'         3.3140   -1.6050    3.6480 os        1 8CS     -0.434600
     18 C9'         2.6380   -2.2210    4.7350 c3        1 8CS      0.070100
     19 C10         2.6820   -3.7400    4.4840 c3        1 8CS      0.180400
     20 O1          1.8910   -4.1210    3.3860 os        1 8CS     -0.550200
     21 P           0.3270   -3.7710    3.3980 p5        1 8CS      1.638500
     22 O2         -0.4770   -4.1620    2.2630 o         1 8CS     -0.759300
     23 O4         -0.1370   -4.3210    4.8130 oh        1 8CS     -0.791400
     24 HN3'        1.4180   -0.1730   -1.9780 hn        1 8CS      0.355500
     25 H2'1        3.8740    0.5120   -2.8980 hn        1 8CS      0.477800
     26 H2'2        5.0840   -0.2810   -2.0520 hn        1 8CS      0.477800
     27 H7          3.9100    0.1690    4.6080 h2        1 8CS      0.100700
     28 H6'         1.9920    1.5350    4.0240 h1        1 8CS      0.121700
     29 H8'         0.6760   -2.2320    5.7350 h1        1 8CS      0.112700
     30 H9'         3.1610   -1.9760    5.6990 h1        1 8CS      0.085700
     31 H101        2.3040   -4.2670    5.4030 h1        1 8CS      0.088700
     32 H102        3.7290   -4.0630    4.2360 h1        1 8CS      0.088700
     33 HO4        -0.9190   -4.8680    4.8580 ho        1 8CS      0.507000
     34 HN5'        0.2310    0.0740    2.5070 hn        1 8CS      0.479800
     35 HN8'        4.9820   -0.0550    2.4750 hn        1 8CS      0.425800
     36 H2'3        3.8240   -1.1600   -2.7240 hn        1 8CS      0.477800
@<TRIPOS>BOND
     1    1    2 2   
     2    2    3 1   
     3    2    5 1   
     4    3    4 1   
     5    3    9 2   
     6    4   12 1   
     7    4   34 1   
     8    5    6 1   
     9    5   24 1   
    10    6    7 1   
    11    6    8 2   
    12    7   25 1   
    13    7   26 1   
    14    7   36 1   
    15    8    9 1   
    16    9   10 1   
    17   10   11 1   
    18   10   35 1   
    19   11   12 1   
    20   11   17 1   
    21   11   27 1   
    22   12   13 1   
    23   12   28 1   
    24   13   14 2   
    25   13   15 1   
    26   15   16 1   
    27   15   18 1   
    28   15   29 1   
    29   16   21 1   
    30   17   18 1   
    31   18   19 1   
    32   18   30 1   
    33   19   20 1   
    34   19   31 1   
    35   19   32 1   
    36   20   21 1   
    37   21   22 2   
    38   21   23 1   
    39   23   33 1   
@<TRIPOS>SUBSTRUCTURE
     1 8CS         1 TEMP              0 ****  ****    0 ROOT
