@<TRIPOS>MOLECULE
8CS
   35    38     1     0     0
SMALL
bcc


@<TRIPOS>ATOM
      1 O4'         2.3770    1.5300    2.2710 o         1 8CS     -0.615500
      2 C4'         2.6780    0.8620    1.2660 c         1 8CS      0.720700
      3 C4A         1.9010   -0.2500    0.6950 cc        1 8CS     -0.122200
      4 N5'         0.7870   -0.6940    1.4440 nh        1 8CS     -0.642000
      5 N3'         3.8580    1.2140    0.5790 n         1 8CS     -0.492400
      6 C2'         4.2430    0.5360   -0.5900 cc        1 8CS      0.670800
      7 N2'         5.5010    0.8640   -1.1520 nh        1 8CS     -0.884800
      8 N1'         3.5020   -0.4310   -1.1590 nd        1 8CS     -0.693300
      9 C4B         2.3420   -0.8400   -0.4970 cd        1 8CS      0.334600
     10 N8'         1.6380   -1.9450   -1.0460 nh        1 8CS     -0.678000
     11 C7          0.2530   -2.0480   -0.6500 c3        1 8CS      0.359300
     12 C6'         0.0860   -1.8380    0.8910 c3        1 8CS      0.079500
     13 C7'        -1.4050   -1.8200    1.2000 c         1 8CS      0.570100
     14 O10        -1.9210   -2.5600    2.0300 o         1 8CS     -0.470100
     15 C8'        -2.2330   -0.8720    0.3450 c3        1 8CS      0.046100
     16 O3         -1.9190    0.4490    0.7260 os        1 8CS     -0.542200
     17 O9'        -0.5140   -1.0760   -1.4010 os        1 8CS     -0.432600
     18 C9'        -1.9050   -1.1360   -1.1410 c3        1 8CS      0.073100
     19 C10        -2.5810   -0.0640   -2.0120 c3        1 8CS      0.180400
     20 O1         -2.3350    1.2460   -1.5620 os        1 8CS     -0.546200
     21 P          -2.7060    1.6220   -0.0510 p5        1 8CS      1.634500
     22 O2         -2.5540    2.9870    0.4010 o         1 8CS     -0.763300
     23 O4         -4.2160    1.1150    0.0470 oh        1 8CS     -0.794400
     24 HN3'        4.4460    1.9070    0.9880 hn        1 8CS      0.339500
     25 H2'1        5.7140    1.8380   -1.1580 hn        1 8CS      0.416300
     26 H2'2        5.6900    0.4100   -2.0210 hn        1 8CS      0.416300
     27 H7         -0.1130   -3.0800   -0.9310 h2        1 8CS      0.072700
     28 H6'         0.5400   -2.7490    1.3950 h1        1 8CS      0.108700
     29 H8'        -3.3370   -1.0350    0.5240 h1        1 8CS      0.096700
     30 H9'        -2.3030   -2.1510   -1.4250 h1        1 8CS      0.069700
     31 H101       -2.1770   -0.1090   -3.0590 h1        1 8CS      0.079200
     32 H102       -3.6920   -0.2400   -2.0000 h1        1 8CS      0.079200
     33 HO4        -4.8570    1.7180    0.4160 ho        1 8CS      0.494000
     34 HN5'        0.1750    0.0780    1.6590 hn        1 8CS      0.411800
     35 HN8'        1.7750   -2.0720   -2.0310 hn        1 8CS      0.425800
@<TRIPOS>BOND
     1    1    2 2   
     2    2    3 1   
     3    2    5 1   
     4    3    4 1   
     5    3    9 2   
     6    4   12 1   
     7    4   34 1   
     8    5    6 1   
     9    5   24 1   
    10    6    7 1   
    11    6    8 2   
    12    7   25 1   
    13    7   26 1   
    14    8    9 1   
    15    9   10 1   
    16   10   11 1   
    17   10   35 1   
    18   11   12 1   
    19   11   17 1   
    20   11   27 1   
    21   12   13 1   
    22   12   28 1   
    23   13   14 2   
    24   13   15 1   
    25   15   16 1   
    26   15   18 1   
    27   15   29 1   
    28   16   21 1   
    29   17   18 1   
    30   18   19 1   
    31   18   30 1   
    32   19   20 1   
    33   19   31 1   
    34   19   32 1   
    35   20   21 1   
    36   21   22 2   
    37   21   23 1   
    38   23   33 1   
@<TRIPOS>SUBSTRUCTURE
     1 8CS         1 TEMP              0 ****  ****    0 ROOT
