@<TRIPOS>MOLECULE
8CX
   56    58     1     0     0
SMALL
bcc


@<TRIPOS>ATOM
      1 C1         -0.0140    3.1370    1.2910 c3        1 8CX      0.122400
      2 O1         -0.9400    2.1820    0.7760 os        1 8CX     -0.422600
      3 C2          1.2940    2.3830    1.5500 c3        1 8CX      0.165800
      4 N2          1.9600    1.9710    0.3310 n3        1 8CX     -0.825200
      5 C3          3.0410    1.0400    0.5680 c3        1 8CX      0.139800
      6 C4          3.6460    0.4940   -0.7550 c3        1 8CX      0.211900
      7 F5          2.7120   -0.2770   -1.4310 f         1 8CX     -0.238300
      8 N1'        -3.0010    2.9950   -1.9410 n3        1 8CX     -0.787200
      9 C11         4.9030   -0.2730   -0.4270 ca        1 8CX     -0.097300
     10 C12         4.9210   -1.6670   -0.4450 ca        1 8CX     -0.146000
     11 C13         6.1120   -2.3470   -0.1320 ca        1 8CX      0.125900
     12 F13         6.1360   -3.7020   -0.1470 f         1 8CX     -0.138900
     13 C14         7.2770   -1.6310    0.1980 ca        1 8CX     -0.161000
     14 C15         7.2380   -0.2390    0.2080 ca        1 8CX     -0.105000
     15 C16         6.0630    0.4410   -0.1030 ca        1 8CX     -0.136000
     16 N1A        -4.8820   -0.7060    1.1450 nb        1 8CX     -0.733000
     17 C2'        -2.0010    3.4940   -1.0060 c3        1 8CX      0.112800
     18 C2A        -3.7850   -0.7680    0.3580 ca        1 8CX      0.449600
     19 C3'        -2.1670    2.7730    0.3590 c3        1 8CX      0.116100
     20 C3A        -3.5720   -1.7890   -0.5890 ca        1 8CX     -0.290300
     21 C4'        -3.2120    1.6630    0.1160 c3        1 8CX     -0.079700
     22 C4A        -4.5360   -2.7940   -0.7330 ca        1 8CX     -0.006300
     23 C5'        -3.5380    1.7520   -1.3930 c3        1 8CX      0.140800
     24 C5A        -5.6800   -2.7500    0.0610 ca        1 8CX     -0.301300
     25 C6A        -5.8350   -1.6770    0.9910 ca        1 8CX      0.628200
     26 N6A        -7.0350   -1.5750    1.7180 nh        1 8CX     -0.922500
     27 C7A        -2.7240    0.2880    0.5210 c3        1 8CX     -0.113700
     28 C8A        -4.3450   -3.8770   -1.7250 c3        1 8CX     -0.061800
     29 H1          0.1270    3.9740    0.5570 h1        1 8CX      0.038700
     30 H1A        -0.4040    3.5500    2.2590 h1        1 8CX      0.038700
     31 H2          1.9890    3.0790    2.1010 h1        1 8CX      0.040700
     32 H2A         1.0650    1.5110    2.2310 h1        1 8CX      0.040700
     33 HN2         1.2940    1.5810   -0.3150 hn        1 8CX      0.379800
     34 H3          3.8570    1.5860    1.1200 h1        1 8CX      0.045700
     35 H3A         2.7280    0.1550    1.1960 h1        1 8CX      0.045700
     36 H4          3.9210    1.3620   -1.4280 h1        1 8CX      0.076700
     37 HN1'       -3.7360    3.6690   -2.0510 hn        1 8CX      0.345800
     38 H12         4.0160   -2.2360   -0.7080 ha        1 8CX      0.163000
     39 H14         8.2020   -2.1740    0.4410 ha        1 8CX      0.150000
     40 H15         8.1470    0.3270    0.4620 ha        1 8CX      0.140000
     41 H16         6.0440    1.5410   -0.0960 ha        1 8CX      0.140000
     42 H2'        -0.9860    3.2520   -1.4280 h1        1 8CX      0.056700
     43 H2'A       -2.0720    4.6060   -0.8780 h1        1 8CX      0.056700
     44 H3'        -2.5240    3.4870    1.1480 h1        1 8CX      0.041700
     45 H3AA       -2.6630   -1.7960   -1.2040 ha        1 8CX      0.145000
     46 H4'        -4.1310    1.9160    0.7100 hc        1 8CX      0.071700
     47 H5'        -4.6440    1.6760   -1.5620 h1        1 8CX      0.056700
     48 H5'A       -3.0440    0.9020   -1.9410 h1        1 8CX      0.056700
     49 H5A        -6.4540   -3.5220   -0.0340 ha        1 8CX      0.141000
     50 HN6A       -7.0210   -0.9360    2.4820 hn        1 8CX      0.398800
     51 HN6B       -7.4330   -2.4580    1.9450 hn        1 8CX      0.398800
     52 H7A        -2.3900    0.3240    1.5930 hc        1 8CX      0.068200
     53 H7AA       -1.8280    0.0110   -0.0960 hc        1 8CX      0.068200
     54 H8A        -3.2770   -4.2070   -1.7470 hc        1 8CX      0.049700
     55 H8AA       -4.9860   -4.7610   -1.4890 hc        1 8CX      0.049700
     56 H8AB       -4.6180   -3.5070   -2.7460 hc        1 8CX      0.049700
@<TRIPOS>BOND
     1    1    2 1   
     2    1    3 1   
     3    1   29 1   
     4    1   30 1   
     5    2   19 1   
     6    3    4 1   
     7    3   31 1   
     8    3   32 1   
     9    4    5 1   
    10    4   33 1   
    11    5    6 1   
    12    5   34 1   
    13    5   35 1   
    14    6    7 1   
    15    6    9 1   
    16    6   36 1   
    17    8   17 1   
    18    8   23 1   
    19    8   37 1   
    20    9   10 ar  
    21    9   15 ar  
    22   10   11 ar  
    23   10   38 1   
    24   11   12 1   
    25   11   13 ar  
    26   13   14 ar  
    27   13   39 1   
    28   14   15 ar  
    29   14   40 1   
    30   15   41 1   
    31   16   18 ar  
    32   16   25 ar  
    33   17   19 1   
    34   17   42 1   
    35   17   43 1   
    36   18   20 ar  
    37   18   27 1   
    38   19   21 1   
    39   19   44 1   
    40   20   22 ar  
    41   20   45 1   
    42   21   23 1   
    43   21   27 1   
    44   21   46 1   
    45   22   24 ar  
    46   22   28 1   
    47   23   47 1   
    48   23   48 1   
    49   24   25 ar  
    50   24   49 1   
    51   25   26 1   
    52   26   50 1   
    53   26   51 1   
    54   27   52 1   
    55   27   53 1   
    56   28   54 1   
    57   28   55 1   
    58   28   56 1   
@<TRIPOS>SUBSTRUCTURE
     1 8CX         1 TEMP              0 ****  ****    0 ROOT
