@<TRIPOS>MOLECULE
8CX
   58    60     1     0     0
SMALL
bcc


@<TRIPOS>ATOM
      1 C1         -0.0520    0.0380    0.0870 c3        1 8CX      0.101400
      2 O1          1.3700    0.0150   -0.0070 os        1 8CX     -0.460600
      3 C2         -0.5990   -0.1180   -1.3330 c3        1 8CX      0.101800
      4 N2         -0.1930   -1.4090   -1.9600 n4        1 8CX     -0.757000
      5 C3         -0.6930   -1.5440   -3.3570 c3        1 8CX      0.055800
      6 C4         -0.0970   -2.7890   -4.0850 c3        1 8CX      0.222900
      7 F5          1.2840   -2.7810   -3.9590 f         1 8CX     -0.226300
      8 N1'         3.5980   -1.8210    1.5770 n3        1 8CX     -0.783200
      9 C11        -0.5670   -2.7320   -5.5120 ca        1 8CX     -0.147300
     10 C12         0.1380   -1.9780   -6.4510 ca        1 8CX     -0.151000
     11 C13        -0.3130   -1.9400   -7.7830 ca        1 8CX      0.145900
     12 F13         0.3640   -1.2090   -8.6960 f         1 8CX     -0.115900
     13 C14        -1.4640   -2.6600   -8.1640 ca        1 8CX     -0.122000
     14 C15        -2.1470   -3.4090   -7.2110 ca        1 8CX     -0.089000
     15 C16        -1.7060   -3.4510   -5.8870 ca        1 8CX     -0.121000
     16 N1A         5.1950    3.1330    0.7310 nb        1 8CX     -0.669000
     17 C2'         2.2070   -1.4440    1.7690 c3        1 8CX      0.128800
     18 C2A         5.0190    2.0700   -0.0820 ca        1 8CX      0.455600
     19 C3'         2.0020    0.0150    1.2820 c3        1 8CX      0.113100
     20 C3A         6.0490    1.5870   -0.9280 ca        1 8CX     -0.203300
     21 C4'         3.4260    0.6010    1.1750 c3        1 8CX     -0.088700
     22 C4A         7.2950    2.2160   -0.9390 ca        1 8CX      0.011700
     23 C5'         4.3750   -0.6120    1.3400 c3        1 8CX      0.147800
     24 C5A         7.4970    3.3270   -0.0980 ca        1 8CX     -0.206300
     25 C6A         6.4190    3.7330    0.7070 ca        1 8CX      0.454200
     26 N6A         6.5920    4.8950    1.6100 n4        1 8CX     -0.819300
     27 C7A         3.6790    1.3800   -0.0990 c3        1 8CX     -0.119700
     28 C8A         8.3980    1.7350   -1.7990 c3        1 8CX     -0.085800
     29 H1         -0.4120   -0.7830    0.7640 h1        1 8CX      0.078700
     30 H1A        -0.3960    1.0300    0.4880 h1        1 8CX      0.078700
     31 H2         -1.7250   -0.0700   -1.3040 hx        1 8CX      0.119200
     32 H2A        -0.2080    0.7180   -1.9820 hx        1 8CX      0.119200
     33 HN2        -0.5400   -2.1910   -1.3930 hn        1 8CX      0.459800
     34 H3         -0.4050   -0.6160   -3.9290 hx        1 8CX      0.123700
     35 H3A        -1.8150   -1.6350   -3.3410 hx        1 8CX      0.123700
     36 H4         -0.4830   -3.7330   -3.5940 h1        1 8CX      0.087700
     37 HN1'        3.6990   -2.4700    0.8200 hn        1 8CX      0.364800
     38 H12         1.0540   -1.4380   -6.1700 ha        1 8CX      0.153000
     39 H14        -1.8040   -2.6280   -9.2120 ha        1 8CX      0.178000
     40 H15        -3.0410   -3.9820   -7.5070 ha        1 8CX      0.166000
     41 H16        -2.2500   -4.0630   -5.1520 ha        1 8CX      0.142000
     42 H2'         1.5060   -2.1410    1.2380 h1        1 8CX      0.064200
     43 H2'A        1.9900   -1.4960    2.8720 h1        1 8CX      0.064200
     44 H3'         1.3830    0.6060    2.0070 h1        1 8CX      0.075700
     45 H3AA        5.8620    0.7140   -1.5740 ha        1 8CX      0.176000
     46 H4'         3.5630    1.2870    2.0550 hc        1 8CX      0.084700
     47 H5'         5.0430   -0.7170    0.4420 h1        1 8CX      0.058200
     48 H5'A        5.0300   -0.4560    2.2420 h1        1 8CX      0.058200
     49 H5A         8.4730    3.8380   -0.0930 ha        1 8CX      0.176000
     50 HN6A        5.8580    5.5940    1.4320 hn        1 8CX      0.474467
     51 HN6B        7.5120    5.3170    1.4440 hn        1 8CX      0.474467
     52 H7A         2.8620    2.1410   -0.2320 hc        1 8CX      0.074200
     53 H7AA        3.6390    0.6900   -0.9840 hc        1 8CX      0.074200
     54 H8A         9.1470    1.1740   -1.1810 hc        1 8CX      0.081367
     55 H8AA        8.9240    2.5930   -2.2900 hc        1 8CX      0.081367
     56 H8AB        8.0200    1.0490   -2.5980 hc        1 8CX      0.081367
     57 H22         0.8380   -1.4610   -1.9650 hn        1 8CX      0.459800
     58 H6A3        6.5260    4.5880    2.5890 hn        1 8CX      0.474467
@<TRIPOS>BOND
     1    1    2 1   
     2    1    3 1   
     3    1   29 1   
     4    1   30 1   
     5    2   19 1   
     6    3    4 1   
     7    3   31 1   
     8    3   32 1   
     9    4    5 1   
    10    4   33 1   
    11    4   57 1   
    12    5    6 1   
    13    5   34 1   
    14    5   35 1   
    15    6    7 1   
    16    6    9 1   
    17    6   36 1   
    18    8   17 1   
    19    8   23 1   
    20    8   37 1   
    21    9   10 ar  
    22    9   15 ar  
    23   10   11 ar  
    24   10   38 1   
    25   11   12 1   
    26   11   13 ar  
    27   13   14 ar  
    28   13   39 1   
    29   14   15 ar  
    30   14   40 1   
    31   15   41 1   
    32   16   18 ar  
    33   16   25 ar  
    34   17   19 1   
    35   17   42 1   
    36   17   43 1   
    37   18   20 ar  
    38   18   27 1   
    39   19   21 1   
    40   19   44 1   
    41   20   22 ar  
    42   20   45 1   
    43   21   23 1   
    44   21   27 1   
    45   21   46 1   
    46   22   24 ar  
    47   22   28 1   
    48   23   47 1   
    49   23   48 1   
    50   24   25 ar  
    51   24   49 1   
    52   25   26 1   
    53   26   50 1   
    54   26   51 1   
    55   26   58 1   
    56   27   52 1   
    57   27   53 1   
    58   28   54 1   
    59   28   55 1   
    60   28   56 1   
@<TRIPOS>SUBSTRUCTURE
     1 8CX         1 TEMP              0 ****  ****    0 ROOT
