@<TRIPOS>MOLECULE
8CX
   57    59     1     0     0
SMALL
bcc


@<TRIPOS>ATOM
      1 C1          0.1330   -0.8330    0.8290 c3        1 8CX      0.109400
      2 O1          1.4850   -1.1330    1.1160 os        1 8CX     -0.437600
      3 C2          0.0120   -0.2990   -0.6080 c3        1 8CX      0.077800
      4 N2          0.7490   -1.1650   -1.5720 n4        1 8CX     -0.744000
      5 C3          0.5600   -0.7420   -2.9840 c3        1 8CX      0.055800
      6 C4          1.1340   -1.7760   -3.9970 c3        1 8CX      0.218900
      7 F5          2.4490   -2.0730   -3.6810 f         1 8CX     -0.220300
      8 N1'         3.0440   -1.2230    3.9130 n3        1 8CX     -0.788200
      9 C11         0.9710   -1.1900   -5.3740 ca        1 8CX     -0.134300
     10 C12         1.9750   -0.3890   -5.9200 ca        1 8CX     -0.139000
     11 C13         1.8010    0.1480   -7.2090 ca        1 8CX      0.139900
     12 F13         2.7680    0.9280   -7.7430 f         1 8CX     -0.121900
     13 C14         0.6280   -0.1220   -7.9400 ca        1 8CX     -0.133000
     14 C15        -0.3570   -0.9280   -7.3770 ca        1 8CX     -0.095000
     15 C16        -0.1920   -1.4640   -6.0990 ca        1 8CX     -0.128000
     16 N1A         3.1550    0.8680   -1.0140 nb        1 8CX     -0.793000
     17 C2'         1.9230   -0.4430    3.4090 c3        1 8CX      0.126800
     18 C2A         4.2590    0.1620   -0.6690 ca        1 8CX      0.430600
     19 C3'         2.1600   -0.1410    1.9060 c3        1 8CX      0.114100
     20 C3A         5.5190    0.3660   -1.2600 ca        1 8CX     -0.265300
     21 C4'         3.6820   -0.3030    1.7260 c3        1 8CX     -0.076700
     22 C4A         5.6580    1.3490   -2.2510 ca        1 8CX      0.014700
     23 C5'         4.1270   -1.1660    2.9340 c3        1 8CX      0.148800
     24 C5A         4.5410    2.1030   -2.6080 ca        1 8CX     -0.286300
     25 C6A         3.2950    1.8420   -1.9660 ca        1 8CX      0.604200
     26 N6A         2.1400    2.5510   -2.3760 nh        1 8CX     -0.929500
     27 C7A         4.1380   -0.8870    0.4070 c3        1 8CX     -0.118700
     28 C8A         6.9730    1.5930   -2.8840 c3        1 8CX     -0.073800
     29 H1         -0.3050   -0.0730    1.5260 h1        1 8CX      0.083200
     30 H1A        -0.4200   -1.8070    0.9390 h1        1 8CX      0.083200
     31 H2          0.4560    0.7350   -0.6740 hx        1 8CX      0.109200
     32 H2A        -1.0720   -0.2620   -0.9060 hx        1 8CX      0.109200
     33 HN2         1.7560   -1.1350   -1.3300 hn        1 8CX      0.463300
     34 H3          1.0810    0.2500   -3.1270 hx        1 8CX      0.126200
     35 H3A        -0.5390   -0.6160   -3.1890 hx        1 8CX      0.126200
     36 H4          0.5400   -2.7370   -3.9270 h1        1 8CX      0.076700
     37 HN1'        2.7700   -2.1730    4.0800 hn        1 8CX      0.364800
     38 H12         2.9030   -0.1900   -5.3620 ha        1 8CX      0.162000
     39 H14         0.5060    0.3000   -8.9500 ha        1 8CX      0.169000
     40 H15        -1.2720   -1.1490   -7.9490 ha        1 8CX      0.158000
     41 H16        -0.9750   -2.1110   -5.6750 ha        1 8CX      0.138000
     42 H2'         1.9010    0.5280    3.9760 h1        1 8CX      0.062200
     43 H2'A        0.9430   -0.9660    3.5560 h1        1 8CX      0.062200
     44 H3'         1.8150    0.8820    1.6140 h1        1 8CX      0.063700
     45 H3AA        6.3870   -0.2320   -0.9480 ha        1 8CX      0.159000
     46 H4'         4.1300    0.7230    1.8440 hc        1 8CX      0.080700
     47 H5'         5.0120   -0.6870    3.4350 h1        1 8CX      0.057700
     48 H5'A        4.4340   -2.1920    2.5930 h1        1 8CX      0.057700
     49 H5A         4.6240    2.8880   -3.3730 ha        1 8CX      0.157000
     50 HN6A        2.3690    3.3710   -2.9000 hn        1 8CX      0.396300
     51 HN6B        1.4980    2.7500   -1.6380 hn        1 8CX      0.396300
     52 H7A         3.4390   -1.6990    0.0730 hc        1 8CX      0.062700
     53 H7AA        5.1480   -1.3620    0.5510 hc        1 8CX      0.062700
     54 H8A         7.5020    0.6260   -3.0810 hc        1 8CX      0.064367
     55 H8AA        7.6130    2.2080   -2.2010 hc        1 8CX      0.064367
     56 H8AB        6.8630    2.1420   -3.8520 hc        1 8CX      0.064367
     57 H22         0.4370   -2.1360   -1.4570 hn        1 8CX      0.463300
@<TRIPOS>BOND
     1    1    2 1   
     2    1    3 1   
     3    1   29 1   
     4    1   30 1   
     5    2   19 1   
     6    3    4 1   
     7    3   31 1   
     8    3   32 1   
     9    4    5 1   
    10    4   33 1   
    11    4   57 1   
    12    5    6 1   
    13    5   34 1   
    14    5   35 1   
    15    6    7 1   
    16    6    9 1   
    17    6   36 1   
    18    8   17 1   
    19    8   23 1   
    20    8   37 1   
    21    9   10 ar  
    22    9   15 ar  
    23   10   11 ar  
    24   10   38 1   
    25   11   12 1   
    26   11   13 ar  
    27   13   14 ar  
    28   13   39 1   
    29   14   15 ar  
    30   14   40 1   
    31   15   41 1   
    32   16   18 ar  
    33   16   25 ar  
    34   17   19 1   
    35   17   42 1   
    36   17   43 1   
    37   18   20 ar  
    38   18   27 1   
    39   19   21 1   
    40   19   44 1   
    41   20   22 ar  
    42   20   45 1   
    43   21   23 1   
    44   21   27 1   
    45   21   46 1   
    46   22   24 ar  
    47   22   28 1   
    48   23   47 1   
    49   23   48 1   
    50   24   25 ar  
    51   24   49 1   
    52   25   26 1   
    53   26   50 1   
    54   26   51 1   
    55   27   52 1   
    56   27   53 1   
    57   28   54 1   
    58   28   55 1   
    59   28   56 1   
@<TRIPOS>SUBSTRUCTURE
     1 8CX         1 TEMP              0 ****  ****    0 ROOT
