@<TRIPOS>MOLECULE
8CX
   56    53     1     0     0
SMALL
bcc


@<TRIPOS>ATOM
      1 C1         -1.0220   -1.6520   -0.4580 c3        1 8CX     -0.066000
      2 O1          0.4040   -1.4410   -0.5200 os        1 8CX     -0.285000
      3 C2         -1.7650   -0.4550   -1.1470 c3        1 8CX     -0.079000
      4 N2         -3.1200   -0.7580   -1.2640 n3        1 8CX     -0.294000
      5 C3         -3.8860    0.3250   -0.7770 c3        1 8CX     -0.094000
      6 C4         -5.1760   -0.2010   -0.1690 c3        1 8CX      0.047000
      7 F5         -5.9420   -0.6010   -1.0920 f         1 8CX     -0.175000
      8 N1'         2.0870   -3.8140    1.3070 n3        1 8CX     -0.267000
      9 C11        -5.8790    0.9310    0.6270 c2        1 8CX     -0.090000
     10 C12        -7.0870    1.5050    0.1320 c1        1 8CX     -0.148000
     11 C13        -7.7090    2.4810    0.8340 c1        1 8CX      0.086000
     12 F13        -8.8300    3.0210    0.3690 f         1 8CX     -0.107000
     13 C14        -7.1640    2.9220    2.0420 c1        1 8CX     -0.161000
     14 C15        -5.9550    2.3430    2.5300 c1        1 8CX     -0.105000
     15 C16        -5.3390    1.3680    1.8230 c2        1 8CX     -0.127000
     16 N1A         4.1160    1.0690    0.4010 n1        1 8CX     -0.210000
     17 C2'         0.7600   -2.9570    1.4500 c3        1 8CX     -0.121000
     18 C2A         4.0940   -0.0060   -0.4530 c1        1 8CX      0.026000
     19 C3'         1.0790   -1.5460    0.7680 c3        1 8CX      0.002000
     20 C3A         5.0060   -0.0950   -1.4710 c1        1 8CX     -0.229000
     21 C4'         2.3640   -1.5360    0.6000 c3        1 8CX     -0.122000
     22 C4A         5.9730    0.9220   -1.6420 c1        1 8CX      0.004000
     23 C5'         2.8320   -3.1410    0.4640 c3        1 8CX     -0.098000
     24 C5A         5.9920    1.9710   -0.8050 c1        1 8CX     -0.236000
     25 C6A         5.0470    2.0530    0.2420 c1        1 8CX      0.111000
     26 N6A         5.1000    3.1020    1.1470 n3        1 8CX     -0.322000
     27 C7A         2.7280   -0.7720   -0.6760 c3        1 8CX     -0.103000
     28 C8A         6.9740    0.9300   -2.7040 c3        1 8CX     -0.187000
     29 H1         -1.3000   -1.7110    0.4660 h1        1 8CX      0.076000
     30 H1A        -1.2370   -2.4490   -0.9020 h1        1 8CX      0.076000
     31 H2         -1.6600    0.3460   -0.6060 h1        1 8CX      0.106000
     32 H2A        -1.3690   -0.2950   -2.0720 h1        1 8CX      0.106000
     33 HN2        -3.3180   -1.5440   -0.7550 hn        1 8CX      0.166000
     34 H3         -4.0960    0.9360   -1.5200 h1        1 8CX      0.107500
     35 H3A        -3.3890    0.7950   -0.1120 h1        1 8CX      0.107500
     36 H4         -4.9720   -0.9510    0.4370 h1        1 8CX      0.115000
     37 HN1'        1.8760   -4.6440    0.9360 hn        1 8CX      0.144000
     38 H12        -7.5050    1.1410   -0.6880 ha        1 8CX      0.156000
     39 H14        -7.6370    3.6700    2.5850 ha        1 8CX      0.148000
     40 H15        -5.5540    2.6620    3.4100 ha        1 8CX      0.145000
     41 H16        -4.5650    0.9980    2.1350 ha        1 8CX      0.153000
     42 H2'         0.5450   -2.8320    2.3770 h1        1 8CX      0.094500
     43 H2'A        0.0820   -3.3630    1.0280 h1        1 8CX      0.094500
     44 H3'         0.8180   -0.8470    1.3290 h1        1 8CX      0.091000
     45 H3AA        4.9870   -0.8630   -2.0780 ha        1 8CX      0.142000
     46 H4'         2.7980   -1.1260    1.3680 hc        1 8CX      0.117000
     47 H5'         3.8320   -3.2410    0.7160 h1        1 8CX      0.095000
     48 H5'A        2.6760   -3.4740   -0.4840 h1        1 8CX      0.095000
     49 H5A         6.6520    2.6700   -0.9170 ha        1 8CX      0.142000
     50 HN6A        4.3850    3.2240    1.7800 hn        1 8CX      0.197000
     51 HN6B        5.8910    3.6190    1.2240 hn        1 8CX      0.197000
     52 H7A         2.8270   -1.4090   -1.4230 hc        1 8CX      0.104000
     53 H7AA        1.9600   -0.0710   -0.9060 hc        1 8CX      0.104000
     54 H8A         7.0580   -0.0140   -3.1000 hc        1 8CX      0.089667
     55 H8AA        6.6840    1.5980   -3.4580 hc        1 8CX      0.089667
     56 H8AB        7.8480    1.2120   -2.3290 hc        1 8CX      0.089667
@<TRIPOS>BOND
     1    1    2 1   
     2    1    3 1   
     3    1   29 1   
     4    1   30 1   
     5    2   19 1   
     6    3    4 1   
     7    3   31 1   
     8    3   32 1   
     9    4    5 1   
    10    4   33 1   
    11    5    6 1   
    12    5   34 1   
    13    5   35 1   
    14    6    7 1   
    15    6    9 1   
    16    6   36 1   
    17    8   17 1   
    18    8   23 1   
    19    8   37 1   
    20    9   10 1   
    21    9   15 1   
    22   10   38 1   
    23   11   12 1   
    24   11   13 1   
    25   13   39 1   
    26   14   15 1   
    27   14   40 1   
    28   15   41 1   
    29   16   25 1   
    30   17   19 1   
    31   17   42 1   
    32   17   43 1   
    33   18   20 1   
    34   18   27 1   
    35   19   21 1   
    36   19   44 1   
    37   20   45 1   
    38   21   23 1   
    39   21   27 1   
    40   21   46 1   
    41   22   24 1   
    42   22   28 1   
    43   23   47 1   
    44   23   48 1   
    45   24   49 1   
    46   25   26 1   
    47   26   50 1   
    48   26   51 1   
    49   27   52 1   
    50   27   53 1   
    51   28   54 1   
    52   28   55 1   
    53   28   56 1   
@<TRIPOS>SUBSTRUCTURE
     1 8CX         1 TEMP              0 ****  ****    0 ROOT
