@<TRIPOS>MOLECULE
8CX
   57    59     1     0     0
SMALL
bcc


@<TRIPOS>ATOM
      1 C1          0.3010   -0.5180    0.5180 c3        1 8CX      0.108400
      2 O1          1.5340   -1.1260    0.8480 os        1 8CX     -0.437600
      3 C2          0.4250    0.2390   -0.8130 c3        1 8CX      0.078800
      4 N2          1.1200   -0.5640   -1.8590 ny        1 8CX     -0.789000
      5 C3          0.4890   -0.4190   -3.1910 c3        1 8CX      0.062800
      6 C4          1.1600   -1.3070   -4.2790 c3        1 8CX      0.217900
      7 F5          2.5110   -1.0090   -4.3650 f         1 8CX     -0.224300
      8 N1'         2.9590   -1.9800    3.5790 n7        1 8CX     -0.788200
      9 C11         0.4250   -1.0650   -5.5710 ca        1 8CX     -0.135300
     10 C12         0.7210    0.0600   -6.3420 ca        1 8CX     -0.150000
     11 C13         0.0250    0.2740   -7.5450 ca        1 8CX      0.143900
     12 F13         0.3060    1.3630   -8.2950 f         1 8CX     -0.120900
     13 C14        -0.9600   -0.6410   -7.9680 ca        1 8CX     -0.132000
     14 C15        -1.2340   -1.7580   -7.1860 ca        1 8CX     -0.093000
     15 C16        -0.5470   -1.9770   -5.9900 ca        1 8CX     -0.123000
     16 N1A         3.7710    0.3950   -1.6640 nb        1 8CX     -0.818000
     17 C2'         1.9840   -0.9570    3.2300 c3        1 8CX      0.130800
     18 C2A         4.5610    0.0630   -0.6150 ca        1 8CX      0.456600
     19 C3'         2.3170   -0.4130    1.8160 c3        1 8CX      0.107100
     20 C3A         5.7140    0.7910   -0.2720 ca        1 8CX     -0.274300
     21 C4'         3.8050   -0.7640    1.6200 c3        1 8CX     -0.086700
     22 C4A         6.0660    1.9170   -1.0300 ca        1 8CX      0.025700
     23 C5'         4.0720   -1.9020    2.6380 c3        1 8CX      0.150800
     24 C5A         5.2670    2.2700   -2.1160 ca        1 8CX     -0.287300
     25 C6A         4.1200    1.4820   -2.4220 ca        1 8CX      0.635200
     26 N6A         3.2680    1.8630   -3.4810 nv        1 8CX     -0.933500
     27 C7A         4.2180   -1.1470    0.2150 c3        1 8CX     -0.128700
     28 C8A         7.2770    2.6990   -0.6940 c3        1 8CX     -0.075800
     29 H1         -0.0580    0.1970    1.3030 h1        1 8CX      0.083200
     30 H1A        -0.4310   -1.3680    0.4230 h1        1 8CX      0.083200
     31 H2         -0.6080    0.5150   -1.1660 hx        1 8CX      0.103200
     32 H2A         1.0190    1.1850   -0.6640 hx        1 8CX      0.103200
     33 HN2         1.1160   -1.5500   -1.5790 hn        1 8CX      0.482800
     34 H3         -0.5980   -0.7070   -3.1270 hx        1 8CX      0.111700
     35 H3A         0.5660    0.6630   -3.5000 hx        1 8CX      0.111700
     36 H4          1.0680   -2.3960   -3.9890 h1        1 8CX      0.081700
     37 HN1'        2.5420   -2.8920    3.5580 hn        1 8CX      0.365800
     38 H12         1.5020    0.7680   -6.0270 ha        1 8CX      0.148000
     39 H14        -1.4960   -0.4650   -8.9140 ha        1 8CX      0.171000
     40 H15        -1.9980   -2.4810   -7.5170 ha        1 8CX      0.159000
     41 H16        -0.7680   -2.8740   -5.3920 ha        1 8CX      0.142000
     42 H2'         0.9320   -1.3430    3.2650 h1        1 8CX      0.065200
     43 H2'A        2.0850   -0.1200    3.9760 h1        1 8CX      0.065200
     44 H3'         2.1340    0.6880    1.7320 h1        1 8CX      0.060700
     45 H3AA        6.3340    0.4750    0.5790 ha        1 8CX      0.161000
     46 H4'         4.3950    0.1390    1.9430 hc        1 8CX      0.077700
     47 H5'         5.0010   -1.6710    3.2280 h1        1 8CX      0.058200
     48 H5'A        4.2350   -2.8770    2.1030 h1        1 8CX      0.058200
     49 H5A         5.5210    3.1470   -2.7300 ha        1 8CX      0.160000
     50 HN6A        3.6700    2.5760   -4.0530 hn        1 8CX      0.402800
     51 HN6B        2.9120    1.1010   -4.0220 hn        1 8CX      0.402800
     52 H7A         3.4180   -1.7680   -0.2670 hc        1 8CX      0.069700
     53 H7AA        5.1440   -1.7850    0.2650 hc        1 8CX      0.069700
     54 H8A         7.4210    2.7520    0.4140 hc        1 8CX      0.066033
     55 H8AA        7.2130    3.7400   -1.0950 hc        1 8CX      0.066033
     56 H8AB        8.1790    2.2050   -1.1390 hc        1 8CX      0.066033
     57 H22         2.1500   -0.2600   -1.9020 hn        1 8CX      0.482800
@<TRIPOS>BOND
     1    1    2 1   
     2    1    3 1   
     3    1   29 1   
     4    1   30 1   
     5    2   19 1   
     6    3    4 1   
     7    3   31 1   
     8    3   32 1   
     9    4    5 1   
    10    4   33 1   
    11    4   57 1   
    12    5    6 1   
    13    5   34 1   
    14    5   35 1   
    15    6    7 1   
    16    6    9 1   
    17    6   36 1   
    18    8   17 1   
    19    8   23 1   
    20    8   37 1   
    21    9   10 ar  
    22    9   15 ar  
    23   10   11 ar  
    24   10   38 1   
    25   11   12 1   
    26   11   13 ar  
    27   13   14 ar  
    28   13   39 1   
    29   14   15 ar  
    30   14   40 1   
    31   15   41 1   
    32   16   18 ar  
    33   16   25 ar  
    34   17   19 1   
    35   17   42 1   
    36   17   43 1   
    37   18   20 ar  
    38   18   27 1   
    39   19   21 1   
    40   19   44 1   
    41   20   22 ar  
    42   20   45 1   
    43   21   23 1   
    44   21   27 1   
    45   21   46 1   
    46   22   24 ar  
    47   22   28 1   
    48   23   47 1   
    49   23   48 1   
    50   24   25 ar  
    51   24   49 1   
    52   25   26 1   
    53   26   50 1   
    54   26   51 1   
    55   27   52 1   
    56   27   53 1   
    57   28   54 1   
    58   28   55 1   
    59   28   56 1   
@<TRIPOS>SUBSTRUCTURE
     1 8CX         1 TEMP              0 ****  ****    0 ROOT
