@<TRIPOS>MOLECULE
8DA
   34    34     1     0     0
SMALL
bcc


@<TRIPOS>ATOM
      1 O19        -3.7020   -0.4530    0.4730 oh        1 8DA     -0.327000
      2 C5'        -2.2960   -0.6640    0.4670 c3        1 8DA     -0.048000
      3 C4'        -1.7910   -0.8390    1.9330 c3        1 8DA      0.029000
      4 C3'        -0.9220   -2.1160    2.0540 c3        1 8DA      0.012000
      5 O3'        -1.2810   -2.8270    3.1580 oh        1 8DA     -0.317000
      6 O4'        -1.0310    0.1000    2.2420 os        1 8DA     -0.285000
      7 C1'         0.4610   -0.3950    1.8880 c3        1 8DA      0.169000
      8 C2'         0.5090   -1.6230    2.1860 c3        1 8DA     -0.221000
      9 N9          0.7200   -0.2190    0.4810 n         1 8DA     -0.276000
     10 C4          1.3180    0.9520   -0.1330 c2        1 8DA      0.164000
     11 N3          0.8610    2.2630    0.2250 n1        1 8DA     -0.232000
     12 C5          1.5880    0.6420   -1.5100 c2        1 8DA     -0.257000
     13 N7          1.0850   -0.6860   -1.7740 n         1 8DA     -0.217000
     14 C8          0.6220   -1.2420   -0.5250 c2        1 8DA      0.366000
     15 O18         0.2870   -2.4080   -0.3360 o         1 8DA     -0.342000
     16 C6          1.4660    1.6840   -2.5230 c1        1 8DA      0.163000
     17 N6          1.8500    1.4140   -3.8800 n2        1 8DA     -0.323000
     18 N1          1.0380    3.0010   -2.1470 n3        1 8DA     -0.311000
     19 C2          1.0310    3.3970   -0.7250 c2        1 8DA      0.021000
     20 H19        -4.0570   -0.7810   -0.2790 ho        1 8DA      0.203000
     21 H5'1       -1.8510    0.1090    0.0570 h1        1 8DA      0.082000
     22 H5'2       -2.0850   -1.4890   -0.0600 h1        1 8DA      0.082000
     23 H4'        -2.5370   -0.8820    2.5430 h1        1 8DA      0.143000
     24 H3'        -1.0160   -2.6680    1.2500 h1        1 8DA      0.111000
     25 H1         -1.3560   -3.6570    2.9520 ho        1 8DA      0.202000
     26 H1'         1.1210    0.1110    2.4210 h2        1 8DA      0.151000
     27 H2'1        1.1100   -2.1160    1.5450 hc        1 8DA      0.119500
     28 H2'2        0.8320   -1.7390    3.1240 hc        1 8DA      0.119500
     29 HN7         1.1270   -1.1260   -2.5750 hn        1 8DA      0.212000
     30 HN61        1.6350    0.6100   -4.2660 hn        1 8DA      0.199500
     31 HN62        2.3270    2.0290   -4.3470 hn        1 8DA      0.199500
     32 HN1         0.8020    3.6070   -2.7910 hn        1 8DA      0.199000
     33 H21         1.8230    3.9840   -0.6170 h4        1 8DA      0.104500
     34 H22         0.3140    4.0260   -0.5100 h4        1 8DA      0.104500
@<TRIPOS>BOND
     1    1    2 1   
     2    1   20 1   
     3    2    3 1   
     4    2   21 1   
     5    2   22 1   
     6    3    4 1   
     7    3    6 1   
     8    3   23 1   
     9    4    5 1   
    10    4    8 1   
    11    4   24 1   
    12    5   25 1   
    13    6    7 1   
    14    7    8 1   
    15    7    9 1   
    16    7   26 1   
    17    8   27 1   
    18    8   28 1   
    19    9   10 1   
    20    9   14 1   
    21   10   11 1   
    22   10   12 1   
    23   12   13 1   
    24   12   16 1   
    25   13   14 1   
    26   13   29 1   
    27   14   15 1   
    28   16   18 1   
    29   17   30 1   
    30   17   31 1   
    31   18   19 1   
    32   18   32 1   
    33   19   33 1   
    34   19   34 1   
@<TRIPOS>SUBSTRUCTURE
     1 8DA         1 TEMP              0 ****  ****    0 ROOT
