@<TRIPOS>MOLECULE
8DA
   34    36     1     0     0
SMALL
bcc


@<TRIPOS>ATOM
      1 O19        -2.4210   -2.0610   -2.0750 oh        1 8DA     -0.598800
      2 C5'        -2.4210   -1.6950   -0.7110 c3        1 8DA      0.122400
      3 C4'        -2.7920   -0.2250   -0.5300 c3        1 8DA      0.099100
      4 C3'        -2.8390    0.1980    0.9490 c3        1 8DA      0.121100
      5 O3'        -4.1940    0.4740    1.2620 oh        1 8DA     -0.592800
      6 O4'        -1.8140    0.5860   -1.1960 os        1 8DA     -0.441600
      7 C1'        -1.1870    1.5140   -0.2880 c3        1 8DA      0.321500
      8 C2'        -1.9640    1.4520    1.0420 c3        1 8DA     -0.137400
      9 N9          0.2320    1.2650   -0.1750 n         1 8DA     -0.396300
     10 C4          0.8630    0.1540    0.4480 cc        1 8DA      0.551200
     11 N3          0.4010   -0.6630    1.3510 n2        1 8DA     -0.669900
     12 C5          2.2560    0.0980   -0.1010 cc        1 8DA     -0.350000
     13 N7          2.4590    1.1890   -0.9960 n         1 8DA     -0.367100
     14 C8          1.1630    1.8240   -1.1230 c         1 8DA      0.775500
     15 O18         0.9140    2.7840   -1.8650 o         1 8DA     -0.592500
     16 C6          3.1280   -0.8720    0.3460 c2        1 8DA      0.337000
     17 N6          4.4020   -1.0290   -0.2240 nh        1 8DA     -0.816600
     18 N1          2.7050   -1.7500    1.3760 nh        1 8DA     -0.759000
     19 C2          1.3300   -1.6370    1.8840 c3        1 8DA      0.388000
     20 H19        -1.8670   -1.4220   -2.5400 ho        1 8DA      0.412000
     21 H5'1       -1.4170   -1.9070   -0.2590 h1        1 8DA      0.054200
     22 H5'2       -3.2020   -2.3440   -0.2320 h1        1 8DA      0.054200
     23 H4'        -3.7710   -0.0080   -1.0420 h1        1 8DA      0.095700
     24 H3'        -2.4500   -0.6170    1.6170 h1        1 8DA      0.067700
     25 H1         -4.2180    0.7150    2.1960 ho        1 8DA      0.406000
     26 H1'        -1.2860    2.5250   -0.7920 h2        1 8DA      0.111700
     27 H2'1       -1.2940    1.4160    1.9330 hc        1 8DA      0.079200
     28 H2'2       -2.6060    2.3660    1.1210 hc        1 8DA      0.079200
     29 HN7         2.8790    0.9560   -1.8740 hn        1 8DA      0.298500
     30 HN61        4.8000   -0.1680   -0.5360 hn        1 8DA      0.407300
     31 HN62        5.0430   -1.5810    0.3030 hn        1 8DA      0.407300
     32 HN1         2.9800   -2.7000    1.2250 hn        1 8DA      0.406800
     33 H21         1.4460   -1.4000    2.9890 h2        1 8DA      0.061200
     34 H22         0.8200   -2.6460    1.7900 h2        1 8DA      0.061200
@<TRIPOS>BOND
     1    1    2 1   
     2    1   20 1   
     3    2    3 1   
     4    2   21 1   
     5    2   22 1   
     6    3    4 1   
     7    3    6 1   
     8    3   23 1   
     9    4    5 1   
    10    4    8 1   
    11    4   24 1   
    12    5   25 1   
    13    6    7 1   
    14    7    8 1   
    15    7    9 1   
    16    7   26 1   
    17    8   27 1   
    18    8   28 1   
    19    9   10 1   
    20    9   14 1   
    21   10   11 2   
    22   10   12 1   
    23   11   19 1   
    24   12   13 1   
    25   12   16 2   
    26   13   14 1   
    27   13   29 1   
    28   14   15 2   
    29   16   17 1   
    30   16   18 1   
    31   17   30 1   
    32   17   31 1   
    33   18   19 1   
    34   18   32 1   
    35   19   33 1   
    36   19   34 1   
@<TRIPOS>SUBSTRUCTURE
     1 8DA         1 TEMP              0 ****  ****    0 ROOT
