@<TRIPOS>MOLECULE
8DA
   35    37     1     0     0
SMALL
bcc


@<TRIPOS>ATOM
      1 O19         0.3660    2.1110    2.3290 oh        1 8DA     -0.627800
      2 C5'         0.7300    1.1350    1.3710 c3        1 8DA      0.118400
      3 C4'         1.8400    0.2140    1.8870 c3        1 8DA      0.094100
      4 C3'         3.1260    0.2510    1.0340 c3        1 8DA      0.127100
      5 O3'         3.3460   -1.0710    0.5810 oh        1 8DA     -0.583800
      6 O4'         2.1890    0.5990    3.2260 os        1 8DA     -0.428600
      7 C1'         3.5300    1.0950    3.2960 c3        1 8DA      0.304500
      8 C2'         4.2380    0.7190    1.9820 c3        1 8DA     -0.138400
      9 N9          3.5480    2.5300    3.5940 n         1 8DA     -0.345300
     10 C4          2.9370    3.5140    2.7550 cc        1 8DA      0.499200
     11 N3          2.9530    3.6430    1.4700 n2        1 8DA     -0.557900
     12 C5          2.3330    4.5770    3.6990 cc        1 8DA      0.000000
     13 N7          2.6720    4.2310    4.9810 n         1 8DA     -0.483100
     14 C8          3.3490    2.9450    4.9590 c         1 8DA      0.804500
     15 O18         3.7300    2.3810    5.9830 o         1 8DA     -0.516500
     16 C6          1.6540    5.6080    3.1100 c2        1 8DA     -0.051000
     17 N6          1.1730    6.7720    3.8640 n4        1 8DA     -0.685400
     18 N1          1.3910    5.6280    1.7010 nh        1 8DA     -0.683000
     19 C2          2.3640    4.8530    0.9140 c3        1 8DA      0.343000
     20 H19         0.1260    1.6370    3.1370 ho        1 8DA      0.419000
     21 H5'1        1.0580    1.7250    0.4740 h1        1 8DA      0.061700
     22 H5'2       -0.1670    0.5180    1.0960 h1        1 8DA      0.061700
     23 H4'         1.4640   -0.8460    1.9750 h1        1 8DA      0.112700
     24 H3'         3.0250    0.9470    0.1590 h1        1 8DA      0.064700
     25 H1          4.1020   -1.0450   -0.0190 ho        1 8DA      0.418000
     26 H1'         3.9940    0.5920    4.2000 h2        1 8DA      0.128700
     27 H2'1        4.9470   -0.1230    2.1920 hc        1 8DA      0.092700
     28 H2'2        4.8200    1.5640    1.5420 hc        1 8DA      0.092700
     29 HN7         2.4100    4.6750    5.8230 hn        1 8DA      0.361500
     30 HN61        1.1670    7.6020    3.2520 hn        1 8DA      0.461800
     31 HN62        1.7890    6.9490    4.6600 hn        1 8DA      0.461800
     32 HN1         0.4550    5.2820    1.5420 hn        1 8DA      0.393800
     33 H21         1.8520    4.5450   -0.0490 h2        1 8DA      0.110200
     34 H22         3.2220    5.5510    0.6610 h2        1 8DA      0.110200
     35 H63         0.2170    6.6010    4.1970 hn        1 8DA      0.461800
@<TRIPOS>BOND
     1    1    2 1   
     2    1   20 1   
     3    2    3 1   
     4    2   21 1   
     5    2   22 1   
     6    3    4 1   
     7    3    6 1   
     8    3   23 1   
     9    4    5 1   
    10    4    8 1   
    11    4   24 1   
    12    5   25 1   
    13    6    7 1   
    14    7    8 1   
    15    7    9 1   
    16    7   26 1   
    17    8   27 1   
    18    8   28 1   
    19    9   10 1   
    20    9   14 1   
    21   10   11 2   
    22   10   12 1   
    23   11   19 1   
    24   12   13 1   
    25   12   16 2   
    26   13   14 1   
    27   13   29 1   
    28   14   15 2   
    29   16   17 1   
    30   16   18 1   
    31   17   30 1   
    32   17   31 1   
    33   17   35 1   
    34   18   19 1   
    35   18   32 1   
    36   19   33 1   
    37   19   34 1   
@<TRIPOS>SUBSTRUCTURE
     1 8DA         1 TEMP              0 ****  ****    0 ROOT
