@<TRIPOS>MOLECULE
8DA
   35    37     1     0     0
SMALL
bcc


@<TRIPOS>ATOM
      1 O19         0.3670    2.1490    2.2330 oh        1 8DA     -0.627800
      2 C5'         0.7560    1.1780    1.2790 c3        1 8DA      0.118400
      3 C4'         1.8280    0.2330    1.8310 c3        1 8DA      0.094100
      4 C3'         3.1500    0.2590    1.0350 c3        1 8DA      0.127100
      5 O3'         3.3680   -1.0610    0.5750 oh        1 8DA     -0.583800
      6 O4'         2.1240    0.5960    3.1880 os        1 8DA     -0.428600
      7 C1'         3.4690    1.0690    3.3230 c3        1 8DA      0.304500
      8 C2'         4.2270    0.6970    2.0360 c3        1 8DA     -0.138400
      9 N9          3.4970    2.5000    3.6400 n         1 8DA     -0.345300
     10 C4          2.9390    3.5040    2.7870 cc        1 8DA      0.499200
     11 N3          3.0140    3.6480    1.5050 n2        1 8DA     -0.557900
     12 C5          2.3120    4.5660    3.7170 cc        1 8DA      0.000000
     13 N7          2.5890    4.1990    5.0080 ns        1 8DA     -0.483100
     14 C8          3.2450    2.9020    4.9990 c         1 8DA      0.804500
     15 O18         3.5710    2.3190    6.0320 o         1 8DA     -0.516500
     16 C6          1.6760    5.6150    3.1120 c2        1 8DA     -0.051000
     17 N6          1.1810    6.7780    3.8590 nz        1 8DA     -0.685400
     18 N1          1.4760    5.6550    1.6930 nu        1 8DA     -0.684000
     19 C2          2.4690    4.8740    0.9400 c3        1 8DA      0.343000
     20 H19         0.0850    1.6700    3.0230 ho        1 8DA      0.419000
     21 H5'1        1.1330    1.7740    0.4040 h1        1 8DA      0.061700
     22 H5'2       -0.1380    0.5800    0.9570 h1        1 8DA      0.061700
     23 H4'         1.4320   -0.8210    1.8890 h1        1 8DA      0.112700
     24 H3'         3.0980    0.9680    0.1650 h1        1 8DA      0.064700
     25 H1          4.1500   -1.0400    0.0090 ho        1 8DA      0.418000
     26 H1'         3.8850    0.5480    4.2400 h2        1 8DA      0.128700
     27 H2'1        4.8410    1.5370    1.6320 hc        1 8DA      0.092700
     28 H2'2        4.9130   -0.1590    2.2660 hc        1 8DA      0.092700
     29 HN7         2.2970    4.6370    5.8440 hn        1 8DA      0.361500
     30 HN61        0.2090    6.6200    4.1460 hn        1 8DA      0.461800
     31 HN62        1.7640    6.9340    4.6850 hn        1 8DA      0.461800
     32 HN1         0.5420    5.3280    1.4900 hn        1 8DA      0.393800
     33 H21         1.9940    4.5870   -0.0480 h2        1 8DA      0.110200
     34 H22         3.3480    5.5610    0.7340 h2        1 8DA      0.110200
     35 H63         1.2180    7.6150    3.2590 hn        1 8DA      0.461800
@<TRIPOS>BOND
     1    1    2 1   
     2    1   20 1   
     3    2    3 1   
     4    2   21 1   
     5    2   22 1   
     6    3    4 1   
     7    3    6 1   
     8    3   23 1   
     9    4    5 1   
    10    4    8 1   
    11    4   24 1   
    12    5   25 1   
    13    6    7 1   
    14    7    8 1   
    15    7    9 1   
    16    7   26 1   
    17    8   27 1   
    18    8   28 1   
    19    9   10 1   
    20    9   14 1   
    21   10   11 2   
    22   10   12 1   
    23   11   19 1   
    24   12   13 1   
    25   12   16 2   
    26   13   14 1   
    27   13   29 1   
    28   14   15 2   
    29   16   17 1   
    30   16   18 1   
    31   17   30 1   
    32   17   31 1   
    33   17   35 1   
    34   18   19 1   
    35   18   32 1   
    36   19   33 1   
    37   19   34 1   
@<TRIPOS>SUBSTRUCTURE
     1 8DA         1 TEMP              0 ****  ****    0 ROOT
