@<TRIPOS>MOLECULE
8DA
   35    37     1     0     0
SMALL
bcc


@<TRIPOS>ATOM
      1 O19         0.3580    2.1610    2.2630 oh        1 8DA     -0.627800
      2 C5'         0.7290    1.1700    1.3230 c3        1 8DA      0.118400
      3 C4'         1.7990    0.2260    1.8800 c3        1 8DA      0.094100
      4 C3'         3.1120    0.2270    1.0700 c3        1 8DA      0.127100
      5 O3'         3.3150   -1.1030    0.6310 oh        1 8DA     -0.583800
      6 O4'         2.1130    0.6120    3.2270 os        1 8DA     -0.428600
      7 C1'         3.4630    1.0760    3.3380 c3        1 8DA      0.304500
      8 C2'         4.2040    0.6750    2.0510 c3        1 8DA     -0.138400
      9 N9          3.5050    2.5120    3.6290 n         1 8DA     -0.345300
     10 C4          2.9460    3.5050    2.7650 cc        1 8DA      0.499200
     11 N3          3.0070    3.6250    1.4800 n2        1 8DA     -0.557900
     12 C5          2.3380    4.5880    3.6820 cc        1 8DA      0.000000
     13 N7          2.6260    4.2420    4.9760 n         1 8DA     -0.483100
     14 C8          3.2720    2.9410    4.9840 c         1 8DA      0.804500
     15 O18         3.6060    2.3740    6.0230 o         1 8DA     -0.516500
     16 C6          1.7030    5.6310    3.0650 c2        1 8DA     -0.051000
     17 N6          1.2260    6.8120    3.7960 n4        1 8DA     -0.685400
     18 N1          1.4870    5.6480    1.6480 nh        1 8DA     -0.684000
     19 C2          2.4660    4.8450    0.8980 c3        1 8DA      0.343000
     20 H19         0.0800    1.6980    3.0650 ho        1 8DA      0.419000
     21 H5'1        1.1000    1.7460    0.4340 h1        1 8DA      0.061700
     22 H5'2       -0.1740    0.5730    1.0220 h1        1 8DA      0.061700
     23 H4'         1.3950   -0.8230    1.9620 h1        1 8DA      0.112700
     24 H3'         3.0560    0.9200    0.1880 h1        1 8DA      0.064700
     25 H1          4.0910   -1.0990    0.0560 ho        1 8DA      0.418000
     26 H1'         3.8850    0.5680    4.2600 h2        1 8DA      0.128700
     27 H2'1        4.8200    1.5020    1.6250 hc        1 8DA      0.092700
     28 H2'2        4.8850   -0.1820    2.2890 hc        1 8DA      0.092700
     29 HN7         2.3470    4.6980    5.8070 hn        1 8DA      0.361500
     30 HN61        1.2620    7.6380    3.1810 hn        1 8DA      0.461800
     31 HN62        0.2560    6.6660    4.0980 hn        1 8DA      0.461800
     32 HN1         0.5490    5.3240    1.4610 hn        1 8DA      0.393800
     33 H21         3.3480    5.5210    0.6700 h2        1 8DA      0.110200
     34 H22         1.9780    4.5440   -0.0790 h2        1 8DA      0.110200
     35 H63         1.8190    6.9780    4.6120 hn        1 8DA      0.461800
@<TRIPOS>BOND
     1    1    2 1   
     2    1   20 1   
     3    2    3 1   
     4    2   21 1   
     5    2   22 1   
     6    3    4 1   
     7    3    6 1   
     8    3   23 1   
     9    4    5 1   
    10    4    8 1   
    11    4   24 1   
    12    5   25 1   
    13    6    7 1   
    14    7    8 1   
    15    7    9 1   
    16    7   26 1   
    17    8   27 1   
    18    8   28 1   
    19    9   10 1   
    20    9   14 1   
    21   10   11 2   
    22   10   12 1   
    23   11   19 1   
    24   12   13 1   
    25   12   16 2   
    26   13   14 1   
    27   13   29 1   
    28   14   15 2   
    29   16   17 1   
    30   16   18 1   
    31   17   30 1   
    32   17   31 1   
    33   17   35 1   
    34   18   19 1   
    35   18   32 1   
    36   19   33 1   
    37   19   34 1   
@<TRIPOS>SUBSTRUCTURE
     1 8DA         1 TEMP              0 ****  ****    0 ROOT
