@<TRIPOS>MOLECULE
8DD
   39    41     1     0     0
SMALL
bcc


@<TRIPOS>ATOM
      1 N1          0.0000    0.0000    0.0000 nb        1 8DD     -0.662000
      2 C2          1.3190    0.0000    0.0000 ca        1 8DD      0.568900
      3 N3          2.0220    0.0000    1.1140 nb        1 8DD     -0.740000
      4 C4          1.4170    0.0000    2.2970 ca        1 8DD      0.351200
      5 C5          0.0220   -0.0000    2.3430 ca        1 8DD     -0.426000
      6 C6         -0.6850    0.0010    1.1420 ca        1 8DD      0.343200
      7 N6         -2.0720    0.0010    1.1350 nv        1 8DD     -0.625500
      8 N7         -0.3390    0.0000    3.6880 ns        1 8DD      0.035900
      9 C8          0.7900   -0.0000    4.4230 c         1 8DD      0.546500
     10 O8          0.8350   -0.0020    5.6400 o         1 8DD     -0.723500
     11 N9          1.8610   -0.0010    3.6070 n         1 8DD     -0.015300
     12 PA          4.9700   -3.8920    8.0920 p5        1 8DD      0.940800
     13 PB          5.3470   -6.8260    7.8800 p5        1 8DD      0.829900
     14 C1'         3.2620   -0.0020    4.0350 c3        1 8DD      0.241500
     15 O1A         3.6320   -4.0710    8.6960 o         1 8DD     -0.702000
     16 O1B         6.4500   -7.6890    7.0870 o         1 8DD     -0.642833
     17 C2'         3.5850    1.3110    4.7730 c3        1 8DD     -0.113400
     18 O2A         6.0170   -3.4460    9.2300 o         1 8DD     -0.702000
     19 O2B         5.5860   -6.9370    9.3360 o         1 8DD     -0.642833
     20 C3'         4.0630    0.8520    6.1730 c3        1 8DD      0.145100
     21 O3'         5.1830    1.6240    6.6090 oh        1 8DD     -0.583800
     22 O3A         5.4530   -5.2810    7.4350 os        1 8DD     -0.476800
     23 O3B         3.8770   -7.3840    7.5340 o         1 8DD     -0.642833
     24 C4'         4.4750   -0.6190    5.9080 c3        1 8DD      0.158100
     25 O4'         3.4900   -1.0800    4.9590 os        1 8DD     -0.348600
     26 C5'         4.4040   -1.4390    7.1990 c3        1 8DD      0.305400
     27 O5'         4.8990   -2.7570    6.9530 os        1 8DD     -0.494200
     28 H2          1.8420    0.0000   -0.9490 h5        1 8DD     -0.034900
     29 HN6        -2.5720   -0.8660    1.1130 hn        1 8DD      0.236300
     30 HN6A       -2.5720    0.8670    1.1140 hn        1 8DD      0.236300
     31 HN7        -1.2740    0.0000    4.0450 hn        1 8DD      0.167500
     32 H1'         3.9140   -0.1110    3.1770 h2        1 8DD      0.036700
     33 H2'         4.3760    1.8470    4.2620 hc        1 8DD      0.018200
     34 H2'A        2.6970    1.9240    4.8600 hc        1 8DD      0.018200
     35 H3'         3.2510    0.8990    6.8890 h1        1 8DD      0.035700
     36 HO3'        4.8900    2.2960    7.2020 ho        1 8DD      0.367000
     37 H4'         5.4680   -0.6620    5.4760 h1        1 8DD      0.021700
     38 H5'         3.3760   -1.4970    7.5340 h1        1 8DD     -0.013300
     39 H5'A        5.0070   -0.9640    7.9630 h1        1 8DD     -0.013300
@<TRIPOS>BOND
     1    1    2 ar  
     2    1    6 ar  
     3    2    3 ar  
     4    2   28 1   
     5    3    4 ar  
     6    4    5 ar  
     7    4   11 1   
     8    5    6 ar  
     9    5    8 1   
    10    6    7 1   
    11    7   29 1   
    12    7   30 1   
    13    8    9 1   
    14    8   31 1   
    15    9   10 2   
    16    9   11 1   
    17   11   14 1   
    18   12   15 1   
    19   12   18 1   
    20   12   22 1   
    21   12   27 1   
    22   13   16 1   
    23   13   19 1   
    24   13   22 1   
    25   13   23 1   
    26   14   17 1   
    27   14   25 1   
    28   14   32 1   
    29   17   20 1   
    30   17   33 1   
    31   17   34 1   
    32   20   21 1   
    33   20   24 1   
    34   20   35 1   
    35   21   36 1   
    36   24   25 1   
    37   24   26 1   
    38   24   37 1   
    39   26   27 1   
    40   26   38 1   
    41   26   39 1   
@<TRIPOS>SUBSTRUCTURE
     1 8DD         1 TEMP              0 ****  ****    0 ROOT
