@<TRIPOS>MOLECULE
8DQ
   41    37     1     0     0
SMALL
bcc


@<TRIPOS>ATOM
      1 O          -4.5950   -0.0560    0.9780 o         1 8DQ     -0.304000
      2 C          -3.4060    0.0510    0.7480 c1        1 8DQ      0.310000
      3 C8         -2.4150    0.0070    1.8780 c2        1 8DQ     -0.202000
      4 C7         -2.8610   -0.0170    3.2020 c2        1 8DQ     -0.044000
      5 C6         -1.9390   -0.0180    4.2490 c1        1 8DQ     -0.167000
      6 C5         -0.5630    0.0060    3.9740 c1        1 8DQ     -0.072000
      7 C3         -1.0370    0.0310    1.6020 c1        1 8DQ      0.120000
      8 C4         -0.1150    0.0300    2.6530 c2        1 8DQ     -0.063000
      9 C9          1.3680    0.0360    2.3580 c1        1 8DQ     -0.034000
     10 C14         2.0820    1.2230    2.4270 c1        1 8DQ     -0.119000
     11 C13         3.4580    1.2140    2.2570 c1        1 8DQ     -0.123500
     12 C12         4.1200    0.0210    2.0180 c1        1 8DQ     -0.123500
     13 C11         3.4060   -1.1660    1.9480 c1        1 8DQ     -0.123500
     14 C10         2.0310   -1.1580    2.1180 c1        1 8DQ     -0.123500
     15 O1         -0.5550   -0.0470    0.1900 o         1 8DQ     -0.170000
     16 C2         -1.4880    0.0620   -0.8950 c1        1 8DQ      0.162000
     17 C1         -2.9370    0.0880   -0.6180 c1        1 8DQ     -0.272000
     18 N          -1.0240    0.0250   -2.2330 n2        1 8DQ     -0.215000
     19 C18        -0.1740   -1.1690   -2.7230 c3        1 8DQ     -0.103000
     20 C17         0.0020   -1.1840   -4.2240 c3        1 8DQ     -0.086000
     21 N1         -0.2240   -0.0400   -4.7260 n3        1 8DQ     -0.272000
     22 C16         0.1120    1.0870   -4.2490 c3        1 8DQ     -0.086000
     23 C15        -0.0630    1.1210   -2.7470 c3        1 8DQ     -0.103000
     24 H1         -3.8180   -0.0340    3.3940 ha        1 8DQ      0.162000
     25 H2         -2.2520   -0.0350    5.1740 ha        1 8DQ      0.143000
     26 H3          0.0810    0.0050    4.7070 ha        1 8DQ      0.144000
     27 H4          1.6170    2.0630    2.5950 ha        1 8DQ      0.134000
     28 H5          3.9610    2.0500    2.3060 ha        1 8DQ      0.134500
     29 H6          5.0890    0.0150    1.8980 ha        1 8DQ      0.134500
     30 H7          3.8730   -2.0070    1.7800 ha        1 8DQ      0.134500
     31 H8          1.5290   -1.9930    2.0700 ha        1 8DQ      0.134500
     32 H9         -3.5750    0.1620   -1.3530 ha        1 8DQ      0.180000
     33 H10        -0.6100   -2.0000   -2.4480 h1        1 8DQ      0.092250
     34 H11         0.7080   -1.1210   -2.3030 h1        1 8DQ      0.092250
     35 H12         0.9210   -1.4510   -4.4370 h1        1 8DQ      0.097250
     36 H13        -0.6200   -1.8340   -4.6140 h1        1 8DQ      0.097250
     37 H14        -1.0920   -0.0010   -5.0190 hn        1 8DQ      0.154000
     38 H16        -0.4440    1.7860   -4.6520 h1        1 8DQ      0.097250
     39 H17         1.0520    1.2600   -4.4660 h1        1 8DQ      0.097250
     40 H18         0.8110    0.9970   -2.3250 h1        1 8DQ      0.092250
     41 H19        -0.4170    1.9960   -2.4910 h1        1 8DQ      0.092250
@<TRIPOS>BOND
     1    1    2 1   
     2    2    3 1   
     3    3    4 1   
     4    3    7 1   
     5    4    5 1   
     6    4   24 1   
     7    5   25 1   
     8    6    8 1   
     9    6   26 1   
    10    7    8 1   
    11    8    9 1   
    12    9   10 1   
    13   10   27 1   
    14   11   12 1   
    15   11   28 1   
    16   12   29 1   
    17   13   14 1   
    18   13   30 1   
    19   14   31 1   
    20   15   16 1   
    21   16   17 1   
    22   17   32 1   
    23   18   19 1   
    24   18   23 1   
    25   19   20 1   
    26   19   33 1   
    27   19   34 1   
    28   20   21 1   
    29   20   35 1   
    30   20   36 1   
    31   21   22 1   
    32   21   37 1   
    33   22   23 1   
    34   22   38 1   
    35   22   39 1   
    36   23   40 1   
    37   23   41 1   
@<TRIPOS>SUBSTRUCTURE
     1 8DQ         1 TEMP              0 ****  ****    0 ROOT
