@<TRIPOS>MOLECULE
8DQ
   41    44     1     0     0
SMALL
bcc


@<TRIPOS>ATOM
      1 O          -0.1190    0.1380   -0.0090 o         1 8DQ     -0.559100
      2 C           1.1180    0.0410   -0.0470 c         1 8DQ      0.600900
      3 C8          1.9550    0.1280    1.1620 ca        1 8DQ     -0.211600
      4 C7          1.3770    0.3090    2.4260 ca        1 8DQ     -0.046000
      5 C6          2.1810    0.3810    3.5570 ca        1 8DQ     -0.165000
      6 C5          3.5680    0.2670    3.4420 ca        1 8DQ     -0.075000
      7 C3          3.3500    0.0190    1.0570 ca        1 8DQ      0.159100
      8 C4          4.1820    0.0780    2.2000 cp        1 8DQ     -0.064000
      9 C9          5.6350   -0.0560    2.1230 cp        1 8DQ     -0.033000
     10 C14         6.4580    0.8520    2.8060 ca        1 8DQ     -0.114500
     11 C13         7.8440    0.7130    2.7620 ca        1 8DQ     -0.133500
     12 C12         8.4220   -0.3330    2.0430 ca        1 8DQ     -0.125000
     13 C11         7.6090   -1.2400    1.3630 ca        1 8DQ     -0.133500
     14 C10         6.2230   -1.1020    1.3990 ca        1 8DQ     -0.114500
     15 O1          4.0030   -0.1260   -0.1570 os        1 8DQ     -0.247200
     16 C2          3.2200   -0.2350   -1.3090 cc        1 8DQ      0.333100
     17 C1          1.8560   -0.1700   -1.2790 cd        1 8DQ     -0.384200
     18 N           3.9950   -0.5100   -2.4500 nh        1 8DQ     -0.615400
     19 C18         3.6280    0.2040   -3.6670 c3        1 8DQ      0.178800
     20 C17         4.3810    1.5370   -3.8730 c3        1 8DQ      0.129800
     21 N1          5.8150    1.4020   -3.7080 n3        1 8DQ     -0.821200
     22 C16         6.1980    0.7140   -2.4910 c3        1 8DQ      0.129800
     23 C15         5.4400   -0.6170   -2.3010 c3        1 8DQ      0.178800
     24 H1          0.2800    0.3910    2.4960 ha        1 8DQ      0.163000
     25 H2          1.7260    0.5260    4.5490 ha        1 8DQ      0.142000
     26 H3          4.1980    0.3200    4.3450 ha        1 8DQ      0.143000
     27 H4          6.0050    1.6790    3.3730 ha        1 8DQ      0.138000
     28 H5          8.4820    1.4310    3.2980 ha        1 8DQ      0.133000
     29 H6          9.5160   -0.4440    2.0140 ha        1 8DQ      0.133000
     30 H7          8.0620   -2.0680    0.7990 ha        1 8DQ      0.133000
     31 H8          5.5800   -1.8140    0.8590 ha        1 8DQ      0.138000
     32 H9          1.2540   -0.2940   -2.1900 ha        1 8DQ      0.169000
     33 H10         3.8680   -0.4930   -4.5190 h1        1 8DQ      0.073950
     34 H11         2.5250    0.4190   -3.6820 h1        1 8DQ      0.073950
     35 H12         4.1920    1.8810   -4.9290 h1        1 8DQ      0.042700
     36 H13         3.9390    2.3070   -3.1760 h1        1 8DQ      0.042700
     37 H14         6.2530    2.3030   -3.7480 hn        1 8DQ      0.369800
     38 H16         6.0380    1.3450   -1.5690 h1        1 8DQ      0.042700
     39 H17         7.2970    0.4810   -2.5660 h1        1 8DQ      0.042700
     40 H18         5.7750   -1.3510   -3.0880 h1        1 8DQ      0.073950
     41 H19         5.7010   -1.0340   -1.2890 h1        1 8DQ      0.073950
@<TRIPOS>BOND
     1    1    2 2   
     2    2    3 1   
     3    2   17 1   
     4    3    4 ar  
     5    3    7 ar  
     6    4    5 ar  
     7    4   24 1   
     8    5    6 ar  
     9    5   25 1   
    10    6    8 ar  
    11    6   26 1   
    12    7    8 ar  
    13    7   15 1   
    14    8    9 1   
    15    9   10 ar  
    16    9   14 ar  
    17   10   11 ar  
    18   10   27 1   
    19   11   12 ar  
    20   11   28 1   
    21   12   13 ar  
    22   12   29 1   
    23   13   14 ar  
    24   13   30 1   
    25   14   31 1   
    26   15   16 1   
    27   16   17 2   
    28   16   18 1   
    29   17   32 1   
    30   18   19 1   
    31   18   23 1   
    32   19   20 1   
    33   19   33 1   
    34   19   34 1   
    35   20   21 1   
    36   20   35 1   
    37   20   36 1   
    38   21   22 1   
    39   21   37 1   
    40   22   23 1   
    41   22   38 1   
    42   22   39 1   
    43   23   40 1   
    44   23   41 1   
@<TRIPOS>SUBSTRUCTURE
     1 8DQ         1 TEMP              0 ****  ****    0 ROOT
