@<TRIPOS>MOLECULE
8DQ
   41    44     1     0     0
SMALL
bcc


@<TRIPOS>ATOM
      1 O          -0.1190    0.1210   -0.0020 o         1 8DQ     -0.559100
      2 C           1.1180    0.0290   -0.0420 c         1 8DQ      0.600900
      3 C8          1.9570    0.1160    1.1660 ca        1 8DQ     -0.211600
      4 C7          1.3810    0.2930    2.4320 ca        1 8DQ     -0.046000
      5 C6          2.1860    0.3670    3.5610 ca        1 8DQ     -0.165000
      6 C5          3.5730    0.2580    3.4440 ca        1 8DQ     -0.075000
      7 C3          3.3520    0.0120    1.0590 ca        1 8DQ      0.159100
      8 C4          4.1860    0.0730    2.2000 cp        1 8DQ     -0.064000
      9 C9          5.6390   -0.0560    2.1210 cp        1 8DQ     -0.033000
     10 C14         6.4600    0.8540    2.8040 ca        1 8DQ     -0.114500
     11 C13         7.8460    0.7210    2.7580 ca        1 8DQ     -0.133500
     12 C12         8.4270   -0.3220    2.0370 ca        1 8DQ     -0.125000
     13 C11         7.6170   -1.2310    1.3560 ca        1 8DQ     -0.133500
     14 C10         6.2300   -1.0990    1.3950 ca        1 8DQ     -0.114500
     15 O1          4.0040   -0.1280   -0.1570 os        1 8DQ     -0.247200
     16 C2          3.2190   -0.2380   -1.3080 cc        1 8DQ      0.333100
     17 C1          1.8550   -0.1780   -1.2750 cd        1 8DQ     -0.384200
     18 N           3.9940   -0.5080   -2.4500 nh        1 8DQ     -0.615400
     19 C18         3.6230    0.2070   -3.6650 c3        1 8DQ      0.178800
     20 C17         4.3720    1.5420   -3.8700 c3        1 8DQ      0.129800
     21 N1          5.8060    1.4110   -3.7080 n7        1 8DQ     -0.821200
     22 C16         6.1930    0.7220   -2.4930 c3        1 8DQ      0.129800
     23 C15         5.4390   -0.6110   -2.3040 c3        1 8DQ      0.178800
     24 H1          0.2830    0.3710    2.5030 ha        1 8DQ      0.163000
     25 H2          1.7320    0.5080    4.5530 ha        1 8DQ      0.142000
     26 H3          4.2040    0.3110    4.3450 ha        1 8DQ      0.143000
     27 H4          6.0040    1.6790    3.3730 ha        1 8DQ      0.138000
     28 H5          8.4830    1.4410    3.2930 ha        1 8DQ      0.133000
     29 H6          9.5210   -0.4280    2.0060 ha        1 8DQ      0.133000
     30 H7          8.0710   -2.0570    0.7900 ha        1 8DQ      0.133000
     31 H8          5.5890   -1.8120    0.8540 ha        1 8DQ      0.138000
     32 H9          1.2520   -0.3020   -2.1860 ha        1 8DQ      0.169000
     33 H10         3.8640   -0.4880   -4.5190 h1        1 8DQ      0.073950
     34 H11         2.5190    0.4180   -3.6780 h1        1 8DQ      0.073950
     35 H12         3.9280    2.3100   -3.1710 h1        1 8DQ      0.042700
     36 H13         4.1800    1.8870   -4.9250 h1        1 8DQ      0.042700
     37 H14         6.2410    2.3140   -3.7470 hn        1 8DQ      0.369800
     38 H16         7.2930    0.4930   -2.5690 h1        1 8DQ      0.042700
     39 H17         6.0330    1.3510   -1.5690 h1        1 8DQ      0.042700
     40 H18         5.7030   -1.0290   -1.2930 h1        1 8DQ      0.073950
     41 H19         5.7750   -1.3430   -3.0930 h1        1 8DQ      0.073950
@<TRIPOS>BOND
     1    1    2 2   
     2    2    3 1   
     3    2   17 1   
     4    3    4 ar  
     5    3    7 ar  
     6    4    5 ar  
     7    4   24 1   
     8    5    6 ar  
     9    5   25 1   
    10    6    8 ar  
    11    6   26 1   
    12    7    8 ar  
    13    7   15 1   
    14    8    9 1   
    15    9   10 ar  
    16    9   14 ar  
    17   10   11 ar  
    18   10   27 1   
    19   11   12 ar  
    20   11   28 1   
    21   12   13 ar  
    22   12   29 1   
    23   13   14 ar  
    24   13   30 1   
    25   14   31 1   
    26   15   16 1   
    27   16   17 2   
    28   16   18 1   
    29   17   32 1   
    30   18   19 1   
    31   18   23 1   
    32   19   20 1   
    33   19   33 1   
    34   19   34 1   
    35   20   21 1   
    36   20   35 1   
    37   20   36 1   
    38   21   22 1   
    39   21   37 1   
    40   22   23 1   
    41   22   38 1   
    42   22   39 1   
    43   23   40 1   
    44   23   41 1   
@<TRIPOS>SUBSTRUCTURE
     1 8DQ         1 TEMP              0 ****  ****    0 ROOT
