@<TRIPOS>MOLECULE
8DQ
   41    44     1     0     0
SMALL
bcc


@<TRIPOS>ATOM
      1 O          -0.1190    0.1320    0.0050 o         1 8DQ     -0.559100
      2 C           1.1180    0.0370   -0.0360 c         1 8DQ      0.600900
      3 C8          1.9590    0.1190    1.1700 ca        1 8DQ     -0.211600
      4 C7          1.3850    0.2940    2.4370 ca        1 8DQ     -0.046000
      5 C6          2.1920    0.3630    3.5660 ca        1 8DQ     -0.165000
      6 C5          3.5790    0.2520    3.4460 ca        1 8DQ     -0.075000
      7 C3          3.3530    0.0120    1.0600 ca        1 8DQ      0.159100
      8 C4          4.1890    0.0680    2.2010 cp        1 8DQ     -0.064000
      9 C9          5.6420   -0.0640    2.1190 cp        1 8DQ     -0.033000
     10 C14         6.4660    0.8420    2.8020 ca        1 8DQ     -0.114500
     11 C13         7.8520    0.7050    2.7530 ca        1 8DQ     -0.133500
     12 C12         8.4290   -0.3370    2.0290 ca        1 8DQ     -0.125000
     13 C11         7.6150   -1.2420    1.3480 ca        1 8DQ     -0.133500
     14 C10         6.2290   -1.1070    1.3890 ca        1 8DQ     -0.114500
     15 O1          4.0030   -0.1270   -0.1570 os        1 8DQ     -0.247200
     16 C2          3.2160   -0.2310   -1.3070 cc        1 8DQ      0.333100
     17 C1          1.8520   -0.1680   -1.2720 cd        1 8DQ     -0.384200
     18 N           3.9880   -0.5010   -2.4510 nh        1 8DQ     -0.615400
     19 C18         3.6170    0.2190   -3.6640 c3        1 8DQ      0.178800
     20 C17         4.3690    1.5530   -3.8660 c3        1 8DQ      0.129800
     21 N1          5.8030    1.4180   -3.7060 n3        1 8DQ     -0.821200
     22 C16         6.1910    0.7240   -2.4940 c3        1 8DQ      0.129800
     23 C15         5.4330   -0.6080   -2.3070 c3        1 8DQ      0.178800
     24 H1          0.2870    0.3750    2.5110 ha        1 8DQ      0.163000
     25 H2          1.7410    0.5030    4.5590 ha        1 8DQ      0.142000
     26 H3          4.2120    0.3010    4.3460 ha        1 8DQ      0.143000
     27 H4          6.0140    1.6660    3.3740 ha        1 8DQ      0.138000
     28 H5          8.4910    1.4220    3.2900 ha        1 8DQ      0.133000
     29 H6          9.5230   -0.4460    1.9960 ha        1 8DQ      0.133000
     30 H7          8.0670   -2.0680    0.7780 ha        1 8DQ      0.133000
     31 H8          5.5850   -1.8170    0.8480 ha        1 8DQ      0.138000
     32 H9          1.2480   -0.2890   -2.1820 ha        1 8DQ      0.169000
     33 H10         2.5140    0.4330   -3.6740 h1        1 8DQ      0.073950
     34 H11         3.8540   -0.4740   -4.5200 h1        1 8DQ      0.073950
     35 H12         3.9280    2.3200   -3.1630 h1        1 8DQ      0.042700
     36 H13         4.1760    1.9010   -4.9190 h1        1 8DQ      0.042700
     37 H14         6.2400    2.3200   -3.7430 hn        1 8DQ      0.369800
     38 H16         6.0330    1.3510   -1.5680 h1        1 8DQ      0.042700
     39 H17         7.2890    0.4930   -2.5730 h1        1 8DQ      0.042700
     40 H18         5.7660   -1.3380   -3.0990 h1        1 8DQ      0.073950
     41 H19         5.6980   -1.0290   -1.2980 h1        1 8DQ      0.073950
@<TRIPOS>BOND
     1    1    2 2   
     2    2    3 1   
     3    2   17 1   
     4    3    4 ar  
     5    3    7 ar  
     6    4    5 ar  
     7    4   24 1   
     8    5    6 ar  
     9    5   25 1   
    10    6    8 ar  
    11    6   26 1   
    12    7    8 ar  
    13    7   15 1   
    14    8    9 1   
    15    9   10 ar  
    16    9   14 ar  
    17   10   11 ar  
    18   10   27 1   
    19   11   12 ar  
    20   11   28 1   
    21   12   13 ar  
    22   12   29 1   
    23   13   14 ar  
    24   13   30 1   
    25   14   31 1   
    26   15   16 1   
    27   16   17 2   
    28   16   18 1   
    29   17   32 1   
    30   18   19 1   
    31   18   23 1   
    32   19   20 1   
    33   19   33 1   
    34   19   34 1   
    35   20   21 1   
    36   20   35 1   
    37   20   36 1   
    38   21   22 1   
    39   21   37 1   
    40   22   23 1   
    41   22   38 1   
    42   22   39 1   
    43   23   40 1   
    44   23   41 1   
@<TRIPOS>SUBSTRUCTURE
     1 8DQ         1 TEMP              0 ****  ****    0 ROOT
