@<TRIPOS>MOLECULE
8DQ
   41    44     1     0     0
SMALL
bcc


@<TRIPOS>ATOM
      1 O          -0.6430   -4.3440    0.0650 o         1 8DQ     -0.559100
      2 C          -0.5400   -3.1130   -0.0530 c         1 8DQ      0.600900
      3 C8          0.7430   -2.4070    0.1060 ca        1 8DQ     -0.211600
      4 C7          1.9220   -3.1120    0.3850 ca        1 8DQ     -0.046000
      5 C6          3.1250   -2.4320    0.5260 ca        1 8DQ     -0.165000
      6 C5          3.1680   -1.0430    0.3830 ca        1 8DQ     -0.075000
      7 C3          0.7960   -1.0120   -0.0310 ca        1 8DQ      0.159100
      8 C4          2.0150   -0.3050    0.0960 cp        1 8DQ     -0.064000
      9 C9          2.1040    1.1450   -0.0650 cp        1 8DQ     -0.033000
     10 C14         2.8070    1.9110    0.8770 ca        1 8DQ     -0.114500
     11 C13         2.9220    3.2900    0.7150 ca        1 8DQ     -0.133500
     12 C12         2.3440    3.9170   -0.3890 ca        1 8DQ     -0.125000
     13 C11         1.6450    3.1610   -1.3290 ca        1 8DQ     -0.133500
     14 C10         1.5220    1.7820   -1.1690 ca        1 8DQ     -0.114500
     15 O1         -0.3280   -0.2370   -0.2720 os        1 8DQ     -0.247200
     16 C2         -1.5480   -0.8960   -0.4500 cc        1 8DQ      0.333100
     17 C1         -1.6690   -2.2530   -0.3620 cd        1 8DQ     -0.384200
     18 N          -2.5770   -0.0100   -0.8170 nh        1 8DQ     -0.615400
     19 C18        -3.8720   -0.2290   -0.1850 c3        1 8DQ      0.178800
     20 C17        -4.0870    0.5730    1.1180 c3        1 8DQ      0.129800
     21 N1         -3.7600    1.9770    0.9730 n3        1 8DQ     -0.821200
     22 C16        -2.4640    2.2130    0.3660 c3        1 8DQ      0.129800
     23 C15        -2.2660    1.4080   -0.9360 c3        1 8DQ      0.178800
     24 H1          1.8680   -4.2090    0.4880 ha        1 8DQ      0.163000
     25 H2          4.0490   -2.9860    0.7470 ha        1 8DQ      0.142000
     26 H3          4.1270   -0.5120    0.4900 ha        1 8DQ      0.143000
     27 H4          3.2640    1.4190    1.7490 ha        1 8DQ      0.138000
     28 H5          3.4730    3.8840    1.4590 ha        1 8DQ      0.133000
     29 H6          2.4410    5.0050   -0.5170 ha        1 8DQ      0.133000
     30 H7          1.1910    3.6520   -2.2030 ha        1 8DQ      0.133000
     31 H8          0.9660    1.1840   -1.9070 ha        1 8DQ      0.138000
     32 H9         -2.6290   -2.7580   -0.5410 ha        1 8DQ      0.169000
     33 H10        -4.6440    0.0840   -0.9450 h1        1 8DQ      0.073950
     34 H11        -4.0200   -1.3190    0.0450 h1        1 8DQ      0.073950
     35 H12        -5.1770    0.5050    1.3890 h1        1 8DQ      0.042700
     36 H13        -3.4950    0.0760    1.9420 h1        1 8DQ      0.042700
     37 H14        -3.8140    2.4370    1.8620 hn        1 8DQ      0.369800
     38 H16        -2.4040    3.3080    0.1120 h1        1 8DQ      0.042700
     39 H17        -1.6100    1.9710    1.0630 h1        1 8DQ      0.042700
     40 H18        -1.2060    1.5500   -1.2840 h1        1 8DQ      0.073950
     41 H19        -2.9600    1.8080   -1.7290 h1        1 8DQ      0.073950
@<TRIPOS>BOND
     1    1    2 2   
     2    2    3 1   
     3    2   17 1   
     4    3    4 ar  
     5    3    7 ar  
     6    4    5 ar  
     7    4   24 1   
     8    5    6 ar  
     9    5   25 1   
    10    6    8 ar  
    11    6   26 1   
    12    7    8 ar  
    13    7   15 1   
    14    8    9 1   
    15    9   10 ar  
    16    9   14 ar  
    17   10   11 ar  
    18   10   27 1   
    19   11   12 ar  
    20   11   28 1   
    21   12   13 ar  
    22   12   29 1   
    23   13   14 ar  
    24   13   30 1   
    25   14   31 1   
    26   15   16 1   
    27   16   17 2   
    28   16   18 1   
    29   17   32 1   
    30   18   19 1   
    31   18   23 1   
    32   19   20 1   
    33   19   33 1   
    34   19   34 1   
    35   20   21 1   
    36   20   35 1   
    37   20   36 1   
    38   21   22 1   
    39   21   37 1   
    40   22   23 1   
    41   22   38 1   
    42   22   39 1   
    43   23   40 1   
    44   23   41 1   
@<TRIPOS>SUBSTRUCTURE
     1 8DQ         1 TEMP              0 ****  ****    0 ROOT
