@<TRIPOS>MOLECULE
8DR
   53    52     1     0     0
SMALL
bcc


@<TRIPOS>ATOM
      1 C         -25.8200    7.6070  -46.4710 c1        1 8DR      0.448000
      2 N         -23.3040   10.5730  -47.5460 n4        1 8DR     -0.105000
      3 O         -25.0760    8.5260  -46.6650 o         1 8DR     -0.223000
      4 CA        -23.5230   11.9790  -48.0000 c3        1 8DR     -0.087000
      5 CB        -24.9650   12.3550  -48.0030 c2        1 8DR     -0.257000
      6 NE         79.7930  -28.4660  143.4940 n4        1 8DR     -0.048000
      7 CG        -25.6190   12.6920  -49.1120 c2        1 8DR     -0.119000
      8 CZ         76.9570  -26.8880  141.0930 c1        1 8DR      0.052000
      9 OAE       -16.6310   10.3030  -46.3320 o         1 8DR     -0.902500
     10 OAF       -17.1620    8.0150  -46.6900 o         1 8DR     -0.902500
     11 CAH       -17.3450    9.7430  -51.1030 c3        1 8DR     -0.189000
     12 CAI       -20.2820   10.3990  -44.0160 c1        1 8DR     -0.483000
     13 CAJ       -17.6630    9.6430  -49.6900 c1        1 8DR     -0.176000
     14 CAK       -19.2590   10.1620  -44.8280 c2        1 8DR     -0.205000
     15 CAL       -15.9280    9.6420  -51.4970 c2        1 8DR      0.129000
     16 NAP       -13.6010    9.3180  -50.6820 n2        1 8DR     -0.346000
     17 NAQ       -14.2730    9.1400  -48.2990 n2        1 8DR     -0.424000
     18 SAU       -12.9620    9.1010  -49.2750 ss        1 8DR      0.974000
     19 SAV       -21.7430   10.5350  -44.7850 s4        1 8DR      1.109000
     20 CAY       -21.8100   10.2190  -47.5840 c2        1 8DR      0.371000
     21 CAZ       -19.7200   10.0040  -46.2540 c2        1 8DR      0.309000
     22 CBA       -16.7150    9.4530  -48.7120 c2        1 8DR     -0.931000
     23 CBB       -21.1440   10.2340  -46.3510 c2        1 8DR     -0.850000
     24 CBC       -14.9680    9.4480  -50.5320 c2        1 8DR     -0.204000
     25 CBD       -15.3480    9.3410  -49.0710 c2        1 8DR      0.160000
     26 SBF       -17.2100    9.3300  -47.1440 s6        1 8DR      2.888000
     27 NH1        76.1220  -26.4640  140.1280 n3        1 8DR     -0.284000
     28 NH2        77.7390  -27.3060  141.8590 n1        1 8DR     -0.254000
     29 OXT       -26.5550    6.7030  -46.2780 o         1 8DR     -0.223000
     30 HN        -23.6890   10.4450  -46.6080 hn        1 8DR      0.242000
     31 HA        -22.9520   12.6580  -47.3020 hx        1 8DR      0.146000
     32 HB        -23.0690   12.0680  -49.0310 hx        1 8DR      0.146000
     33 HBA       -25.4500   12.3920  -47.0130 ha        1 8DR      0.146000
     34 HD        -25.1600   12.6800  -50.1120 ha        1 8DR      0.139500
     35 HDA        81.8530  -28.6850  144.0010 hx        1 8DR      0.152000
     36 HNE        78.8650  -28.8000  143.7810 hn        1 8DR      0.264000
     37 HG        -26.6700   13.0200  -49.0880 ha        1 8DR      0.139500
     38 HGA        80.6800  -28.7830  145.4080 hx        1 8DR      0.152000
     39 HAI       -22.3140    9.3870  -44.5040 hs        1 8DR     -0.084000
     40 HAK       -18.1920   10.1320  -44.5690 ha        1 8DR      0.218000
     41 HNH1       80.8200  -30.1840  144.2310 hx        1 8DR      0.152000
     42 HNHA       76.1630  -25.4880  139.9200 hn        1 8DR      0.245000
     43 HNH2       79.9280  -28.7120  142.5060 hn        1 8DR      0.264000
     44 HAH       -17.9310    8.9360  -51.6470 hc        1 8DR      0.190000
     45 CD         80.8490  -29.0650  144.3330 c3        1 8DR     -0.205000
     46 OAD       -21.4190    9.9700  -48.7270 o         1 8DR     -0.284000
     47 HAJ       -17.7630   10.7250  -51.4900 hc        1 8DR      0.190000
     48 H2        -23.8070    9.9350  -48.1750 hn        1 8DR      0.242000
     49 HE3        79.8000  -27.4420  143.5720 hn        1 8DR      0.264000
     50 HH13       75.2090  -26.8700  140.1390 hn        1 8DR      0.245000
     51 NAT       -18.8930    9.7320  -47.2590 n3        1 8DR     -0.667000
     52 HAL       -15.6580    9.7220  -52.5660 ha        1 8DR      0.173000
     53 HNAT      -19.2870    9.7310  -48.1970 hn        1 8DR      0.301000
@<TRIPOS>BOND
     1    1    3 1   
     2    1   29 1   
     3    2    4 1   
     4    2   20 1   
     5    2   30 1   
     6    2   48 1   
     7    4    5 1   
     8    4   31 1   
     9    4   32 1   
    10    5    7 1   
    11    5   33 1   
    12    6   36 1   
    13    6   43 1   
    14    6   45 1   
    15    6   49 1   
    16    7   34 1   
    17    7   37 1   
    18    8   27 1   
    19    8   28 1   
    20    9   26 1   
    21   10   26 1   
    22   11   13 1   
    23   11   15 1   
    24   11   44 1   
    25   11   47 1   
    26   12   14 1   
    27   12   19 1   
    28   13   22 1   
    29   14   21 1   
    30   14   40 1   
    31   15   24 1   
    32   15   52 1   
    33   16   18 1   
    34   16   24 1   
    35   17   18 1   
    36   17   25 1   
    37   19   23 1   
    38   19   39 1   
    39   20   23 1   
    40   20   46 1   
    41   21   23 1   
    42   21   51 1   
    43   22   25 1   
    44   22   26 1   
    45   24   25 1   
    46   26   51 1   
    47   27   42 1   
    48   27   50 1   
    49   35   45 1   
    50   38   45 1   
    51   41   45 1   
    52   51   53 1   
@<TRIPOS>SUBSTRUCTURE
     1 8DR         1 TEMP              0 ****  ****    0 ROOT
