@<TRIPOS>MOLECULE
8DR
   54    54     1     0     0
SMALL
bcc


@<TRIPOS>ATOM
      1 C        -509.2740  106.2000  -51.3210 c1        1 8DR      0.916000
      2 N        -508.0770  103.0720  -49.0760 n4        1 8DR     -0.655800
      3 O        -508.8800  105.2880  -50.6510 o         1 8DR     -0.457000
      4 CA       -507.1770  103.2580  -47.9030 c3        1 8DR      0.087800
      5 CB       -505.6860  103.2040  -48.2700 c3        1 8DR      0.041800
      6 NE        396.4540  -98.6000  882.5740 n4        1 8DR     -0.820600
      7 CG       -505.3930  102.1260  -49.2260 c2        1 8DR     -1.271200
      8 CZ        395.9110  -96.5610  879.1310 c1        1 8DR      0.433600
      9 OAE       549.8080  -90.6710 -685.6850 o         1 8DR     -0.557800
     10 OAF       550.0500  -92.1590 -683.8460 o         1 8DR     -0.557800
     11 CAH       552.1010  -88.8810 -683.0010 c3        1 8DR     -0.039000
     12 CAI      -505.4470   99.3480  -50.0390 c1        1 8DR     -0.329900
     13 CAJ       551.0760  -89.7310 -683.5530 ce        1 8DR     -0.068300
     14 CAK      -506.5220   98.7160  -50.5020 ce        1 8DR     -0.320100
     15 CAL       551.5500  -87.8500 -682.0930 c2        1 8DR      0.172800
     16 NAP       549.5480  -86.8500 -681.0180 n2        1 8DR     -0.313000
     17 NAQ       547.9310  -88.4210 -682.0770 nc        1 8DR     -0.561100
     18 SAU       548.0150  -87.1300 -681.0430 ss        1 8DR      0.975100
     19 SAV      -505.9030  100.7370  -49.1380 sy        1 8DR      1.409300
     20 CAY      -508.5400  101.6420  -49.3110 c         1 8DR      0.641300
     21 CAZ      -507.8030   99.4440  -50.1990 ce        1 8DR      0.370000
     22 CBA       549.7450  -89.6510 -683.3130 cf        1 8DR     -0.404900
     23 CBB      -507.5360  100.6640  -49.5060 cf        1 8DR     -0.606300
     24 CBC       550.1940  -87.7510 -681.8340 cd        1 8DR     -0.209000
     25 CBD       549.1670  -88.6930 -682.4610 cd        1 8DR      0.551800
     26 SBF       550.0180  -90.9090 -684.3680 sy        1 8DR      1.449800
     27 NH1       395.8920  -95.7500  878.0600 n3        1 8DR     -0.749400
     28 NH2       396.0030  -97.2090  880.1040 n1        1 8DR     -0.579800
     29 OXT      -509.6620  107.0980  -51.9830 o         1 8DR     -0.457000
     30 HN       -508.9150  103.6630  -48.9710 hn        1 8DR      0.470800
     31 HA       -507.4050  104.2660  -47.4490 hx        1 8DR      0.097700
     32 HB       -507.4290  102.4680  -47.1410 hx        1 8DR      0.097700
     33 HBA      -505.3740  104.1920  -48.7050 hc        1 8DR      0.077700
     34 HD       -504.6970  102.4440  -50.0230 h4        1 8DR      0.231000
     35 HDA      -505.1200  103.0770  -47.3060 hc        1 8DR      0.077700
     36 HNE       396.7000  -97.6070  882.6630 hn        1 8DR      0.468800
     37 HG        396.4000 -100.3960  883.7240 hx        1 8DR      0.112700
     38 HGA       396.0370  -98.8540  884.6500 hx        1 8DR      0.112700
     39 HAI      -505.9530  100.4140  -47.9180 hs        1 8DR      0.190800
     40 HAK      -506.5270   97.7700  -51.0580 ha        1 8DR      0.214000
     41 HNH1      397.7580  -99.2340  884.1380 hx        1 8DR      0.112700
     42 HNHA      396.2350  -96.1490  877.2100 hn        1 8DR      0.449800
     43 HNH2      395.4690  -98.6600  882.2870 hn        1 8DR      0.468800
     44 HAH       552.8770  -89.4970 -682.4380 hc        1 8DR      0.180700
     45 CD        396.6750  -99.3130  883.8460 c3        1 8DR      0.071100
     46 OAD      -509.7680  101.5280  -49.3630 o         1 8DR     -0.521100
     47 HAJ       552.6940  -88.3700 -683.8290 hc        1 8DR      0.180700
     48 H2       -507.5780  103.3820  -49.9230 hn        1 8DR      0.470800
     49 HE3       397.0280  -99.0040  881.8240 hn        1 8DR      0.468800
     50 HH13      395.0860  -95.1670  877.9740 hn        1 8DR      0.449800
     51 NAT      -508.9930   98.9830  -50.5600 nh        1 8DR     -0.736600
     52 HAL       552.2660  -87.1470 -681.6190 ha        1 8DR      0.201000
     53 HNAT     -509.0800   98.1270  -51.0640 hn        1 8DR      0.479800
     54 HAT2     -509.8270   99.4920  -50.3360 hn        1 8DR      0.479800
@<TRIPOS>BOND
     1    1    3 2   
     2    1   29 2   
     3    2    4 1   
     4    2   20 1   
     5    2   30 1   
     6    2   48 1   
     7    4    5 1   
     8    4   31 1   
     9    4   32 1   
    10    5    7 1   
    11    5   33 1   
    12    5   35 1   
    13    6   36 1   
    14    6   43 1   
    15    6   45 1   
    16    6   49 1   
    17    7   19 2   
    18    7   34 1   
    19    8   27 1   
    20    8   28 3   
    21    9   26 2   
    22   10   26 2   
    23   11   13 1   
    24   11   15 1   
    25   11   44 1   
    26   11   47 1   
    27   12   14 2   
    28   12   19 2   
    29   13   22 2   
    30   13   26 1   
    31   14   21 1   
    32   14   40 1   
    33   15   24 2   
    34   15   52 1   
    35   16   18 1   
    36   16   24 1   
    37   17   18 1   
    38   17   25 2   
    39   19   23 1   
    40   19   39 1   
    41   20   23 1   
    42   20   46 2   
    43   21   23 2   
    44   21   51 1   
    45   22   25 1   
    46   22   26 1   
    47   24   25 1   
    48   27   42 1   
    49   27   50 1   
    50   37   45 1   
    51   38   45 1   
    52   41   45 1   
    53   51   53 1   
    54   51   54 1   
@<TRIPOS>SUBSTRUCTURE
     1 8DR         1 TEMP              0 ****  ****    0 ROOT
