@<TRIPOS>MOLECULE
8DR
   50    45     1     0     0
SMALL
bcc


@<TRIPOS>ATOM
      1 C          -0.1940   -2.1430    1.1380 c1        1 8DR      0.311000
      2 N           2.1850   -2.2810    0.9860 n         1 8DR     -0.317000
      3 O          -1.1310   -2.9620    0.8600 o         1 8DR     -0.574000
      4 CA          1.0500   -2.6340    1.7930 c2        1 8DR     -0.067000
      5 CB          1.1870   -1.9950    3.1750 c3        1 8DR     -0.150000
      6 CD         -0.2090   -0.9980    4.9290 c3        1 8DR     -0.048000
      7 NE         -1.4060   -0.2780    4.7510 n3        1 8DR     -0.337000
      8 CG         -0.1250   -2.0920    3.9060 c3        1 8DR     -0.188000
      9 CZ         -1.4750    1.1130    5.1430 c2        1 8DR      0.172000
     10 OAD         1.6090   -3.1740   -0.9840 o         1 8DR     -0.392000
     11 OAE         1.6170    1.8620   -4.3080 o         1 8DR     -0.544900
     12 OAF         0.8500    0.0810   -5.4470 o         1 8DR     -0.544900
     13 CAH        -2.5130    3.2340   -3.2710 c1        1 8DR     -0.070500
     14 CAI         4.4990    0.5280   -1.6050 c1        1 8DR     -0.452000
     15 CAJ        -1.2370    2.5660   -3.2520 c1        1 8DR      0.065000
     16 CAK         3.3840    0.9680   -2.4490 c1        1 8DR     -0.148000
     17 CAL        -3.5320    2.7760   -4.1070 c1        1 8DR     -0.070500
     18 NAP        -4.1600    1.0210   -5.8340 n2        1 8DR     -0.284000
     19 NAQ        -2.0770   -0.0810   -5.8140 n2        1 8DR     -0.329000
     20 NAT         0.9700   -0.1560   -2.8810 n3        1 8DR     -0.792000
     21 SAU        -3.4020   -0.0930   -6.4120 ss        1 8DR      0.573000
     22 SAV         4.0170   -0.7230   -0.7780 ss        1 8DR      0.633000
     23 CAY         2.0650   -2.2420   -0.3990 c2        1 8DR      0.362000
     24 CAZ         2.1440    0.0020   -2.1840 c2        1 8DR      0.071000
     25 CBA        -1.0160    1.4610   -4.0690 c1        1 8DR     -0.823000
     26 CBB         2.5440   -1.0070   -1.1770 c2        1 8DR     -0.467000
     27 CBC        -3.3210    1.6870   -4.9140 c1        1 8DR     -0.085000
     28 CBD        -2.0210    1.0050   -4.8970 c2        1 8DR     -0.009000
     29 SBF         0.6470    0.8060   -4.1840 s4        1 8DR      2.069800
     30 NH1        -0.8250    2.1240    4.3390 n3        1 8DR     -0.377000
     31 NH2        -2.1330    1.4580    6.2390 n1        1 8DR     -0.377000
     32 OXT        -0.2490   -0.9750    0.7190 o         1 8DR     -0.574000
     33 HN          2.9780   -2.0060    1.3930 hn        1 8DR      0.233000
     34 HA          1.0050   -3.6220    1.8880 h4        1 8DR      0.115000
     35 HB          1.4340   -1.0660    3.0770 hc        1 8DR      0.081500
     36 HBA         1.8780   -2.4640    3.6830 hc        1 8DR      0.081500
     37 HD         -0.1950   -1.3860    5.8200 h1        1 8DR      0.069500
     38 HDA         0.5640   -0.3850    4.8210 h1        1 8DR      0.069500
     39 HNE        -2.1400   -0.6970    4.4740 hn        1 8DR      0.227000
     40 HG         -0.8510   -2.0000    3.2760 hc        1 8DR      0.095500
     41 HGA        -0.1870   -2.9590    4.3510 hc        1 8DR      0.095500
     42 HAH        -2.6640    3.9990   -2.7040 ha        1 8DR      0.177500
     43 HAI         5.4010    0.9460   -1.5620 DU        1 8DR      0.156000
     44 HAJ        -0.5270    2.8890   -2.6660 ha        1 8DR      0.159000
     45 HAK         3.3980    1.6990   -3.0490 DU        1 8DR      0.156000
     46 HAL        -4.3830    3.2510   -4.1430 ha        1 8DR      0.177500
     47 HNAT        0.3490   -0.7490   -2.5910 hn        1 8DR      0.279000
     48 HNH1       -0.3620    1.8860    3.6020 hn        1 8DR      0.220500
     49 HNHA       -0.8900    2.9980    4.5700 hn        1 8DR      0.220500
     50 HNH2       -2.5480    0.8090    6.7520 DU        1 8DR      0.156000
@<TRIPOS>BOND
     1    1    3 1   
     2    1   32 1   
     3    2    4 1   
     4    2   23 1   
     5    2   33 1   
     6    4    5 1   
     7    4   34 1   
     8    5    8 1   
     9    5   35 1   
    10    5   36 1   
    11    6    7 1   
    12    6    8 1   
    13    6   37 1   
    14    6   38 1   
    15    7    9 1   
    16    7   39 1   
    17    8   40 1   
    18    8   41 1   
    19    9   30 1   
    20    9   31 1   
    21   10   23 1   
    22   11   29 1   
    23   12   29 1   
    24   13   17 1   
    25   13   42 1   
    26   14   16 1   
    27   14   22 1   
    28   15   25 1   
    29   15   44 1   
    30   16   24 1   
    31   17   46 1   
    32   18   21 1   
    33   18   27 1   
    34   19   21 1   
    35   19   28 1   
    36   20   24 1   
    37   20   29 1   
    38   20   47 1   
    39   22   26 1   
    40   23   26 1   
    41   24   26 1   
    42   25   28 1   
    43   27   28 1   
    44   30   48 1   
    45   30   49 1   
@<TRIPOS>SUBSTRUCTURE
     1 8DR         1 TEMP              0 ****  ****    0 ROOT
