@<TRIPOS>MOLECULE
8DR
   53    75     1     0     0
SMALL
bcc


@<TRIPOS>ATOM
      1 C           0.0000    0.0000    0.0000 c2        1 8DR      0.349000
      2 N           1.9960    1.1950   -0.6920 ny        1 8DR     -0.131000
      3 O          -0.6030    0.9090   -0.5200 o         1 8DR     -0.178500
      4 CA          1.5070    0.0000    0.0000 DU        1 8DR     -0.056000
      5 CB          2.0160    0.0000    1.4420 c3        1 8DR      0.117000
      6 NE          5.5110   -0.2470    2.8890 ny        1 8DR     -0.505000
      7 CG          3.5420   -0.1260    1.4440 DU        1 8DR      0.220000
      8 CZ          6.1980   -0.2680    4.0790 DU        1 8DR     -0.114000
      9 OAE         2.9300    0.1260   -7.0030 o         1 8DR     -0.764000
     10 OAF         3.5500    2.5450   -6.9060 o         1 8DR     -0.764000
     11 CAH         6.8400   -0.7740   -5.6370 c3        1 8DR     -0.006000
     12 CAI         3.4500    4.5660   -3.4280 c2        1 8DR      0.031000
     13 CAJ         5.5660   -0.3960   -6.0580 c2        1 8DR     -0.109000
     14 CAK         3.2450    3.7110   -4.4340 c2        1 8DR     -0.150000
     15 CAL         7.6240    0.0580   -4.9110 c3        1 8DR      0.235000
     16 NAP         7.7210    2.3240   -3.8720 n2        1 8DR     -0.155000
     17 NAQ         5.5400    2.9720   -4.5920 n2        1 8DR     -0.305000
     18 SAU         6.7470    3.5340   -3.7880 ss        1 8DR      0.706000
     19 SAV         3.0550    3.8580   -1.9270 s4        1 8DR      0.593000
     20 CAY         2.1240    1.1930   -2.0340 c3        1 8DR      0.562000
     21 CAZ         2.7660    2.4700   -4.0600 c3        1 8DR      0.359000
     22 CBA         5.0520    0.8220   -5.7590 c2        1 8DR     -0.569000
     23 CBB         2.5970    2.3470   -2.7010 c2        1 8DR     -0.784000
     24 CBC         7.1530    1.3490   -4.5610 c2        1 8DR     -0.253000
     25 CBD         5.8170    1.7450   -5.0020 c2        1 8DR      0.000000
     26 SBF         3.4370    1.2590   -6.3120 s6        1 8DR      2.351000
     27 NH1         5.5500   -0.1810    5.2070 nz        1 8DR      0.030000
     28 NH2         7.5680   -0.3810    4.0820 n2        1 8DR     -0.013000
     29 OXT        -0.6720   -1.0060    0.5810 o         1 8DR     -0.178500
     30 HN          2.4610    0.8120    0.1070 DU        1 8DR      0.316000
     31 HA          1.4980    0.1190   -1.0770 hx        1 8DR      0.175000
     32 HB          2.0980    0.2220    0.3850 DU        1 8DR      0.025000
     33 HBA         2.4140    0.6290    0.6550 DU        1 8DR     -0.134000
     34 HD          3.4760   -0.3270    1.9900 DU        1 8DR     -0.732000
     35 HDA         3.0700   -0.4100    2.5260 DU        1 8DR      0.569000
     36 HNE         4.5820    0.0430    2.6530 DU        1 8DR     -0.092000
     37 HG          3.7020   -0.8430    2.2410 DU        1 8DR     -0.064000
     38 HGA         3.5440   -0.0060    2.5210 DU        1 8DR     -0.064000
     39 HAI         3.7720    3.9970   -2.5650 DU        1 8DR     -0.043000
     40 HAK         3.3380    2.9930   -3.6290 DU        1 8DR      0.120000
     41 HNH1        5.1980    0.0450    4.2980 DU        1 8DR      0.234500
     42 HNHA        5.3870    0.3620    4.3820 DU        1 8DR      0.234500
     43 HNH2        7.2020    0.0050    3.2340 hn        1 8DR      0.123000
     44 HAH         6.7290   -0.6430   -4.5680 DU        1 8DR      0.163000
     45 CD          4.0510   -0.1260    2.8860 DU        1 8DR      0.276000
     46 OAD         1.8340    0.1960   -2.6710 o         1 8DR     -0.316000
     47 HAJ         6.3980   -1.0850   -5.9780 DU        1 8DR      0.203000
     48 H2          2.3460    0.8780   -1.5740 DU        1 8DR      0.129000
     49 HE3         5.0090   -0.7230    2.1660 hn        1 8DR      0.248000
     50 HH13        5.8010   -0.5890    4.3290 hn        1 8DR      0.194000
     51 NAT         2.4920    1.4470   -4.9650 n7        1 8DR     -0.438000
     52 HAL         8.6110   -0.2620   -4.5970 hc        1 8DR      0.153000
     53 HNAT        1.7470    0.7960   -5.1180 hn        1 8DR      0.203000
@<TRIPOS>BOND
     1    1    3 1   
     2    1    4 1   
     3    1   29 1   
     4    2    4 1   
     5    2   20 1   
     6    2   30 1   
     7    2   48 1   
     8    4    5 1   
     9    4   30 1   
    10    4   31 1   
    11    4   32 1   
    12    5    7 1   
    13    5   32 1   
    14    5   33 1   
    15    6    8 1   
    16    6   36 1   
    17    6   45 1   
    18    6   49 1   
    19    7   34 1   
    20    7   35 1   
    21    7   37 1   
    22    7   38 1   
    23    7   45 1   
    24    8   27 1   
    25    8   28 1   
    26    8   41 1   
    27    8   42 1   
    28    9   26 1   
    29   10   26 1   
    30   11   13 1   
    31   11   15 1   
    32   11   44 1   
    33   11   47 1   
    34   12   14 1   
    35   12   19 1   
    36   12   39 1   
    37   13   22 1   
    38   13   47 1   
    39   14   21 1   
    40   14   40 1   
    41   15   24 1   
    42   15   44 1   
    43   15   52 1   
    44   16   18 1   
    45   16   24 1   
    46   17   18 1   
    47   17   25 1   
    48   19   23 1   
    49   19   39 1   
    50   20   23 1   
    51   20   46 1   
    52   20   48 1   
    53   21   23 1   
    54   21   40 1   
    55   21   51 1   
    56   22   25 1   
    57   22   26 1   
    58   24   25 1   
    59   26   51 1   
    60   27   41 1   
    61   27   42 1   
    62   27   50 1   
    63   28   43 1   
    64   30   33 1   
    65   32   33 1   
    66   34   35 1   
    67   34   37 1   
    68   34   38 1   
    69   34   45 1   
    70   35   38 1   
    71   35   45 1   
    72   36   45 1   
    73   37   45 1   
    74   41   42 1   
    75   51   53 1   
@<TRIPOS>SUBSTRUCTURE
     1 8DR         1 TEMP              0 ****  ****    0 ROOT
