@<TRIPOS>MOLECULE
8DR
   50    52     1     0     0
SMALL
bcc


@<TRIPOS>ATOM
      1 C          -3.8560    3.3340    1.6780 c         1 8DR      0.914600
      2 N          -1.6850    2.2340    1.1090 n         1 8DR     -0.504900
      3 O          -3.2840    3.7110    2.7390 o         1 8DR     -0.825300
      4 CA         -3.0680    2.3790    0.6980 c3        1 8DR     -0.051300
      5 CB         -3.8270    1.0490    0.6250 c3        1 8DR     -0.070400
      6 NE         -3.9330   -1.8360   -1.8370 nh        1 8DR     -0.796200
      7 CG         -3.4650    0.2640   -0.6170 c3        1 8DR     -0.093400
      8 CZ         -4.7360   -2.9910   -2.1020 c2        1 8DR      0.741100
      9 OAE         3.1070   -0.0240   -2.8040 o         1 8DR     -0.656300
     10 OAF         4.2750    0.1350   -0.7400 o         1 8DR     -0.656300
     11 CAH         1.3840   -3.6800   -1.5400 ca        1 8DR     -0.162000
     12 CAI         2.6760    2.9350    2.1370 cc        1 8DR     -0.184100
     13 CAJ         1.9640   -2.4210   -1.8790 ca        1 8DR      0.029000
     14 CAK         3.0440    2.1730    1.0500 cd        1 8DR     -0.178000
     15 CAL         1.1390   -4.0330   -0.2460 ca        1 8DR     -0.021000
     16 NAP         1.3120   -3.2560    2.1250 nc        1 8DR     -0.280500
     17 NAQ         2.3230   -1.0390    1.5080 nc        1 8DR     -0.283500
     18 SAU         1.8470   -1.8830    2.8220 ss        1 8DR      0.570000
     19 SAV         1.0460    3.2220    2.1940 ss        1 8DR      0.116200
     20 CAY        -0.6360    2.1790    0.2340 c         1 8DR      0.691700
     21 CAZ         1.8940    1.8250    0.2470 cd        1 8DR      0.177600
     22 CBA         2.3160   -1.4890   -0.9400 ca        1 8DR     -0.314500
     23 CBB         0.7190    2.3500    0.8060 cc        1 8DR     -0.228700
     24 CBC         1.4720   -3.1160    0.8020 ca        1 8DR     -0.094000
     25 CBD         2.0750   -1.8010    0.4360 ca        1 8DR     -0.011000
     26 SBF         3.0340   -0.0020   -1.3880 sy        1 8DR      1.513200
     27 NH1        -4.6040   -3.5390   -3.4320 nh        1 8DR     -0.935800
     28 NH2        -5.5150   -3.5010   -1.1760 n2        1 8DR     -0.869100
     29 OXT        -5.0150    3.6590    1.3160 o         1 8DR     -0.825300
     30 HN         -1.5200    2.5580    2.0440 hn        1 8DR      0.328500
     31 HA         -3.0940    2.8570   -0.3250 h1        1 8DR      0.060700
     32 HB         -3.6310    0.4340    1.5400 hc        1 8DR      0.055200
     33 HBA        -4.9220    1.3020    0.6120 hc        1 8DR      0.055200
     34 HD         -5.3230   -0.8570   -0.5310 h1        1 8DR      0.051200
     35 HDA        -3.9060   -1.6900    0.2450 h1        1 8DR      0.051200
     36 HNE        -3.8370   -1.2450   -2.6410 hn        1 8DR      0.390800
     37 HG         -3.7230    0.8720   -1.5240 hc        1 8DR      0.049200
     38 HGA        -2.3570    0.0870   -0.6480 hc        1 8DR      0.049200
     39 HAI         3.3720    3.3190    2.8820 h4        1 8DR      0.166000
     40 HAK         4.0610    1.8440    0.8160 ha        1 8DR      0.182000
     41 HAL         0.6820   -4.9980    0.0210 ha        1 8DR      0.153000
     42 HNH1       -4.6140   -4.5370   -3.4370 hn        1 8DR      0.377300
     43 HNHA       -3.8330   -3.1860   -3.9550 hn        1 8DR      0.377300
     44 HNH2       -5.9570   -4.3590   -1.4230 hn        1 8DR      0.376400
     45 HAH         1.1290   -4.3680   -2.3610 ha        1 8DR      0.142000
     46 NAT         1.9500    1.0990   -0.9370 nh        1 8DR     -0.753500
     47 CD         -4.2190   -1.0660   -0.6390 c3        1 8DR      0.181800
     48 OAD        -0.7830    1.9340   -0.9920 o         1 8DR     -0.672100
     49 HAJ         2.1290   -2.1990   -2.9520 ha        1 8DR      0.168000
     50 HNAT        1.1240    1.2530   -1.4970 hn        1 8DR      0.499800
@<TRIPOS>BOND
     1    1    3 1   
     2    1    4 1   
     3    1   29 1   
     4    2    4 1   
     5    2   20 1   
     6    2   30 1   
     7    4    5 1   
     8    4   31 1   
     9    5    7 1   
    10    5   32 1   
    11    5   33 1   
    12    6    8 1   
    13    6   36 1   
    14    6   47 1   
    15    7   37 1   
    16    7   38 1   
    17    7   47 1   
    18    8   27 1   
    19    8   28 2   
    20    9   26 2   
    21   10   26 2   
    22   11   13 ar  
    23   11   15 ar  
    24   11   45 1   
    25   12   14 2   
    26   12   19 1   
    27   12   39 1   
    28   13   22 ar  
    29   13   49 1   
    30   14   21 1   
    31   14   40 1   
    32   15   24 ar  
    33   15   41 1   
    34   16   18 1   
    35   16   24 2   
    36   17   18 1   
    37   17   25 2   
    38   19   23 1   
    39   20   23 1   
    40   20   48 2   
    41   21   23 2   
    42   21   46 1   
    43   22   25 ar  
    44   22   26 1   
    45   24   25 ar  
    46   26   46 1   
    47   27   42 1   
    48   27   43 1   
    49   28   44 1   
    50   34   47 1   
    51   35   47 1   
    52   46   50 1   
@<TRIPOS>SUBSTRUCTURE
     1 8DR         1 TEMP              0 ****  ****    0 ROOT
