@<TRIPOS>MOLECULE
8DX
   35    36     1     0     0
SMALL
bcc


@<TRIPOS>ATOM
      1 O           0.1460    0.7130   -0.1490 o         1 8DX     -0.804300
      2 C           1.1170   -0.0970   -0.1330 c         1 8DX      0.916600
      3 OXT         1.4050   -0.9450   -1.0040 o         1 8DX     -0.804300
      4 CA          2.0710   -0.0010    1.1210 c3        1 8DX     -0.025500
      5 N           1.3890    0.7560    2.2120 nz        1 8DX     -0.840600
      6 CB          2.5320   -1.3830    1.5640 c3        1 8DX     -0.070400
      7 CAS         3.1320   -1.4290    2.9660 c3        1 8DX      0.001800
      8 CAJ         3.8740   -2.7470    3.2240 c3        1 8DX     -0.087400
      9 CAN         4.0680   -0.2100    3.2360 c         1 8DX      0.912600
     10 OAC         3.5960    0.7540    3.9200 o         1 8DX     -0.813300
     11 OAE         5.2240   -0.2350    2.7550 o         1 8DX     -0.813300
     12 OAL         2.0300   -1.3660    3.9110 os        1 8DX     -0.445600
     13 CAR         1.9760   -2.5540    4.7050 c3        1 8DX      0.121100
     14 CAQ         3.3410   -3.2550    4.5710 c3        1 8DX      0.115100
     15 CAH         1.5460   -2.1760    6.1090 c3        1 8DX     -0.115400
     16 CAP         2.7090   -1.7440    6.9910 c3        1 8DX      0.129100
     17 OAF         3.1320   -0.4280    6.7260 oh        1 8DX     -0.607800
     18 CAG         3.8490   -2.7560    6.8670 c3        1 8DX      0.097400
     19 OAK         4.3220   -2.8970    5.5410 os        1 8DX     -0.398600
     20 HA          2.9720    0.6090    0.8200 hx        1 8DX      0.096700
     21 HN          2.0910    1.1720    2.8570 hn        1 8DX      0.454800
     22 HNA         0.8100    0.1110    2.7500 hn        1 8DX      0.454800
     23 HB          3.3050   -1.7140    0.8210 hc        1 8DX      0.071700
     24 HBA         1.6700   -2.0980    1.5030 hc        1 8DX      0.071700
     25 HAJ         3.6610   -3.4980    2.4260 hc        1 8DX      0.077200
     26 HAJA        4.9780   -2.5610    3.2680 hc        1 8DX      0.077200
     27 HAR         1.1900   -3.2200    4.2450 h1        1 8DX      0.032700
     28 HAQ         3.2180   -4.3700    4.6000 h1        1 8DX      0.035700
     29 HAH         1.0410   -3.0590    6.5780 hc        1 8DX      0.052200
     30 HAHA        0.8070   -1.3350    6.0460 hc        1 8DX      0.052200
     31 HAP         2.3730   -1.7120    8.0680 h1        1 8DX      0.051700
     32 HOAF        3.3290   -0.3490    5.7720 ho        1 8DX      0.463000
     33 HAG         4.7520   -2.3960    7.4290 h1        1 8DX      0.043200
     34 HAGA        3.5140   -3.7520    7.2620 h1        1 8DX      0.043200
     35 HN3         0.7900    1.4620    1.7700 hn        1 8DX      0.454800
@<TRIPOS>BOND
     1    1    2 1   
     2    2    3 1   
     3    2    4 1   
     4    4    5 1   
     5    4    6 1   
     6    4   20 1   
     7    5   21 1   
     8    5   22 1   
     9    5   35 1   
    10    6    7 1   
    11    6   23 1   
    12    6   24 1   
    13    7    8 1   
    14    7    9 1   
    15    7   12 1   
    16    8   14 1   
    17    8   25 1   
    18    8   26 1   
    19    9   10 1   
    20    9   11 1   
    21   12   13 1   
    22   13   14 1   
    23   13   15 1   
    24   13   27 1   
    25   14   19 1   
    26   14   28 1   
    27   15   16 1   
    28   15   29 1   
    29   15   30 1   
    30   16   17 1   
    31   16   18 1   
    32   16   31 1   
    33   17   32 1   
    34   18   19 1   
    35   18   33 1   
    36   18   34 1   
@<TRIPOS>SUBSTRUCTURE
     1 8DX         1 TEMP              0 ****  ****    0 ROOT
