@<TRIPOS>MOLECULE
8DX
   35    36     1     0     0
SMALL
bcc


@<TRIPOS>ATOM
      1 O           0.1400    0.7120   -0.1440 o         1 8DX     -0.804300
      2 C           1.1080   -0.1010   -0.1310 c         1 8DX      0.916600
      3 OXT         1.3900   -0.9520   -1.0010 o         1 8DX     -0.804300
      4 CA          2.0670   -0.0050    1.1200 c3        1 8DX     -0.025500
      5 N           1.3910    0.7570    2.2120 n4        1 8DX     -0.840600
      6 CB          2.5240   -1.3880    1.5640 c3        1 8DX     -0.070400
      7 CAS         3.1300   -1.4330    2.9650 c3        1 8DX      0.001800
      8 CAJ         3.8680   -2.7530    3.2230 c3        1 8DX     -0.087400
      9 CAN         4.0710   -0.2170    3.2290 c         1 8DX      0.912600
     10 OAC         3.6040    0.7510    3.9120 o         1 8DX     -0.813300
     11 OAE         5.2250   -0.2470    2.7430 o         1 8DX     -0.813300
     12 OAL         2.0310   -1.3630    3.9130 os        1 8DX     -0.445600
     13 CAR         1.9760   -2.5500    4.7100 c3        1 8DX      0.121100
     14 CAQ         3.3380   -3.2560    4.5730 c3        1 8DX      0.115100
     15 CAH         1.5520   -2.1670    6.1150 c3        1 8DX     -0.115400
     16 CAP         2.7200   -1.7380    6.9920 c3        1 8DX      0.129100
     17 OAF         3.1470   -0.4230    6.7220 oh        1 8DX     -0.607800
     18 CAG         3.8550   -2.7530    6.8650 c3        1 8DX      0.097400
     19 OAK         4.3240   -2.8990    5.5380 os        1 8DX     -0.398600
     20 HA          2.9690    0.6010    0.8140 hx        1 8DX      0.096700
     21 HN          0.7930    1.4630    1.7700 hn        1 8DX      0.454800
     22 HNA         0.8120    0.1150    2.7540 hn        1 8DX      0.454800
     23 HB          1.6600   -2.1000    1.5080 hc        1 8DX      0.071700
     24 HBA         3.2940   -1.7240    0.8200 hc        1 8DX      0.071700
     25 HAJ         3.6500   -3.5050    2.4270 hc        1 8DX      0.077200
     26 HAJA        4.9730   -2.5700    3.2620 hc        1 8DX      0.077200
     27 HAR         1.1860   -3.2150    4.2550 h1        1 8DX      0.032700
     28 HAQ         3.2110   -4.3700    4.6050 h1        1 8DX      0.035700
     29 HAH         1.0460   -3.0480    6.5880 hc        1 8DX      0.052200
     30 HAHA        0.8160   -1.3240    6.0520 hc        1 8DX      0.052200
     31 HAP         2.3880   -1.7020    8.0700 h1        1 8DX      0.051700
     32 HOAF        3.3400   -0.3480    5.7670 ho        1 8DX      0.463000
     33 HAG         3.5190   -3.7480    7.2640 h1        1 8DX      0.043200
     34 HAGA        4.7620   -2.3950    7.4230 h1        1 8DX      0.043200
     35 HN3         2.0970    1.1720    2.8530 hn        1 8DX      0.454800
@<TRIPOS>BOND
     1    1    2 1   
     2    2    3 1   
     3    2    4 1   
     4    4    5 1   
     5    4    6 1   
     6    4   20 1   
     7    5   21 1   
     8    5   22 1   
     9    5   35 1   
    10    6    7 1   
    11    6   23 1   
    12    6   24 1   
    13    7    8 1   
    14    7    9 1   
    15    7   12 1   
    16    8   14 1   
    17    8   25 1   
    18    8   26 1   
    19    9   10 1   
    20    9   11 1   
    21   12   13 1   
    22   13   14 1   
    23   13   15 1   
    24   13   27 1   
    25   14   19 1   
    26   14   28 1   
    27   15   16 1   
    28   15   29 1   
    29   15   30 1   
    30   16   17 1   
    31   16   18 1   
    32   16   31 1   
    33   17   32 1   
    34   18   19 1   
    35   18   33 1   
    36   18   34 1   
@<TRIPOS>SUBSTRUCTURE
     1 8DX         1 TEMP              0 ****  ****    0 ROOT
