@<TRIPOS>MOLECULE
8DX
   34    34     1     0     0
SMALL
bcc


@<TRIPOS>ATOM
      1 O           2.6870   -2.5320    1.6500 o         1 8DX     -0.605000
      2 C           1.5510   -3.1840    1.7620 c1        1 8DX      0.336000
      3 OXT         1.5550   -4.4410    2.1590 os        1 8DX     -0.611000
      4 CA          0.3240   -2.6060    1.2100 c3        1 8DX     -0.085000
      5 N          -0.7940   -3.4870    1.4940 n3        1 8DX     -0.337000
      6 CB          0.0740   -1.2460    1.8450 c3        1 8DX     -0.118000
      7 CAS         0.0460   -0.1870    0.7680 c3        1 8DX      0.007000
      8 CAJ         0.2670    1.5210    1.3040 c3        1 8DX     -0.207000
      9 CAN         1.1710   -0.7430   -0.1660 c2        1 8DX      0.334000
     10 OAC         2.4170   -0.7380    0.2330 o         1 8DX     -0.578000
     11 OAE         0.8690   -1.2010   -1.3440 o         1 8DX     -0.578000
     12 OAL        -1.0590   -0.1600    0.3140 os        1 8DX     -0.248000
     13 CAR        -1.3080    1.3030   -0.1200 c3        1 8DX      0.005000
     14 CAQ        -0.1850    2.1790    0.4600 c3        1 8DX      0.005000
     15 CAH        -1.6540    1.6130   -1.6380 c3        1 8DX     -0.189000
     16 CAP        -0.5270    1.6290   -2.4580 c3        1 8DX      0.030000
     17 OAF        -0.0450    0.3240   -2.5820 oh        1 8DX     -0.369000
     18 CAG         0.6910    2.6050   -1.8400 c3        1 8DX     -0.067000
     19 OAK         1.0290    2.2600   -0.4840 os        1 8DX     -0.296000
     20 HA          0.4200   -2.5040    0.2460 h1        1 8DX      0.052000
     21 HN         -0.6660   -4.2750    1.0740 hn        1 8DX      0.138500
     22 HNA        -1.5610   -3.1080    1.1940 hn        1 8DX      0.138500
     23 HB         -0.8680   -1.2580    2.3610 hc        1 8DX      0.082500
     24 HBA         0.7860   -1.0480    2.4760 hc        1 8DX      0.082500
     25 HAJ         1.2450    1.7260    1.4180 hc        1 8DX      0.105500
     26 HAJA       -0.2250    1.6800    2.1660 hc        1 8DX      0.105500
     27 HAR        -2.0440    1.5490    0.3300 h1        1 8DX      0.065000
     28 HAQ        -0.4820    3.0250    0.7660 h1        1 8DX      0.084000
     29 HAH        -2.1040    2.5040   -1.6880 hc        1 8DX      0.079500
     30 HAHA       -2.2950    0.9020   -1.9780 hc        1 8DX      0.079500
     31 HAP        -0.7880    1.9720   -3.3710 h1        1 8DX      0.063000
     32 HOAF       -0.3690   -0.0510   -3.3440 ho        1 8DX      0.276000
     33 HAG         0.4200    3.4570   -1.8620 h1        1 8DX      0.109000
     34 HAGA        1.4240    2.5180   -2.3540 h1        1 8DX      0.109000
@<TRIPOS>BOND
     1    1    2 1   
     2    2    4 1   
     3    4    5 1   
     4    4    6 1   
     5    4   20 1   
     6    5   21 1   
     7    5   22 1   
     8    6    7 1   
     9    6   23 1   
    10    6   24 1   
    11    7    8 1   
    12    7    9 1   
    13    7   12 1   
    14    8   14 1   
    15    8   25 1   
    16    8   26 1   
    17    9   10 1   
    18    9   11 1   
    19   12   13 1   
    20   13   14 1   
    21   13   15 1   
    22   13   27 1   
    23   14   19 1   
    24   14   28 1   
    25   15   16 1   
    26   15   29 1   
    27   15   30 1   
    28   16   17 1   
    29   16   18 1   
    30   16   31 1   
    31   17   32 1   
    32   18   19 1   
    33   18   33 1   
    34   18   34 1   
@<TRIPOS>SUBSTRUCTURE
     1 8DX         1 TEMP              0 ****  ****    0 ROOT
