@<TRIPOS>MOLECULE
8DX
   35    36     1     0     0
SMALL
bcc


@<TRIPOS>ATOM
      1 O           0.1210    0.7020   -0.1390 o         1 8DX     -0.804300
      2 C           1.0910   -0.1100   -0.1270 c         1 8DX      0.916600
      3 OXT         1.3710   -0.9610   -0.9970 o         1 8DX     -0.804300
      4 CA          2.0550   -0.0090    1.1200 c3        1 8DX     -0.025500
      5 N           1.3820    0.7520    2.2130 n4        1 8DX     -0.840600
      6 CB          2.5160   -1.3910    1.5650 c3        1 8DX     -0.070400
      7 CAS         3.1270   -1.4330    2.9630 c3        1 8DX      0.001800
      8 CAJ         3.8680   -2.7510    3.2200 c3        1 8DX     -0.087400
      9 CAN         4.0660   -0.2140    3.2220 c         1 8DX      0.912600
     10 OAC         3.6000    0.7530    3.9050 o         1 8DX     -0.813300
     11 OAE         5.2190   -0.2430    2.7320 o         1 8DX     -0.813300
     12 OAL         2.0310   -1.3640    3.9150 os        1 8DX     -0.445600
     13 CAR         1.9820   -2.5490    4.7140 c3        1 8DX      0.121100
     14 CAQ         3.3440   -3.2530    4.5730 c3        1 8DX      0.115100
     15 CAH         1.5620   -2.1660    6.1200 c3        1 8DX     -0.115400
     16 CAP         2.7310   -1.7320    6.9920 c3        1 8DX      0.129100
     17 OAF         3.1550   -0.4170    6.7180 oh        1 8DX     -0.607800
     18 CAG         3.8690   -2.7460    6.8630 c3        1 8DX      0.097400
     19 OAK         4.3330   -2.8930    5.5340 os        1 8DX     -0.398600
     20 HA          2.9540    0.5980    0.8100 hx        1 8DX      0.096700
     21 HN          0.7800    1.4570    1.7720 hn        1 8DX      0.454800
     22 HNA         2.0890    1.1700    2.8510 hn        1 8DX      0.454800
     23 HB          3.2840   -1.7260    0.8180 hc        1 8DX      0.071700
     24 HBA         1.6530   -2.1050    1.5130 hc        1 8DX      0.071700
     25 HAJ         3.6490   -3.5050    2.4260 hc        1 8DX      0.077200
     26 HAJA        4.9730   -2.5660    3.2550 hc        1 8DX      0.077200
     27 HAR         1.1910   -3.2160    4.2620 h1        1 8DX      0.032700
     28 HAQ         3.2190   -4.3670    4.6070 h1        1 8DX      0.035700
     29 HAH         1.0580   -3.0460    6.5960 hc        1 8DX      0.052200
     30 HAHA        0.8230   -1.3240    6.0580 hc        1 8DX      0.052200
     31 HAP         2.4030   -1.6950    8.0710 h1        1 8DX      0.051700
     32 HOAF        3.3450   -0.3430    5.7630 ho        1 8DX      0.463000
     33 HAG         4.7770   -2.3850    7.4170 h1        1 8DX      0.043200
     34 HAGA        3.5360   -3.7400    7.2640 h1        1 8DX      0.043200
     35 HN3         0.8060    0.1100    2.7580 hn        1 8DX      0.454800
@<TRIPOS>BOND
     1    1    2 1   
     2    2    3 1   
     3    2    4 1   
     4    4    5 1   
     5    4    6 1   
     6    4   20 1   
     7    5   21 1   
     8    5   22 1   
     9    5   35 1   
    10    6    7 1   
    11    6   23 1   
    12    6   24 1   
    13    7    8 1   
    14    7    9 1   
    15    7   12 1   
    16    8   14 1   
    17    8   25 1   
    18    8   26 1   
    19    9   10 1   
    20    9   11 1   
    21   12   13 1   
    22   13   14 1   
    23   13   15 1   
    24   13   27 1   
    25   14   19 1   
    26   14   28 1   
    27   15   16 1   
    28   15   29 1   
    29   15   30 1   
    30   16   17 1   
    31   16   18 1   
    32   16   31 1   
    33   17   32 1   
    34   18   19 1   
    35   18   33 1   
    36   18   34 1   
@<TRIPOS>SUBSTRUCTURE
     1 8DX         1 TEMP              0 ****  ****    0 ROOT
