@<TRIPOS>MOLECULE
8DX
   34    35     1     0     0
SMALL
bcc


@<TRIPOS>ATOM
      1 O           3.5410   -2.0170    0.8850 o         1 8DX     -0.869800
      2 C           3.7640   -0.8510    0.4420 c         1 8DX      0.915600
      3 OXT         4.8630   -0.2480    0.6180 o         1 8DX     -0.869800
      4 CA          2.6300   -0.1020   -0.3280 c3        1 8DX      0.060500
      5 N           2.1400   -0.8800   -1.4460 n3        1 8DX     -0.896800
      6 CB          1.5890    0.3170    0.7270 c3        1 8DX     -0.091400
      7 CAS         0.1520    0.5430    0.2700 c3        1 8DX      0.025800
      8 CAJ        -0.7150    0.9770    1.4740 c3        1 8DX     -0.092400
      9 CAN        -0.0190    1.5860   -0.8750 c         1 8DX      0.929600
     10 OAC        -0.5420    1.2030   -1.9600 o         1 8DX     -0.837300
     11 OAE         0.3170    2.7780   -0.6320 o         1 8DX     -0.837300
     12 OAL        -0.3980   -0.7120   -0.2100 os        1 8DX     -0.397600
     13 CAR        -1.3340   -1.2370    0.7280 c3        1 8DX      0.118100
     14 CAQ        -1.8380   -0.0620    1.5850 c3        1 8DX      0.111100
     15 CAH        -2.3870   -2.0070   -0.0490 c3        1 8DX     -0.112400
     16 CAP        -3.4890   -1.1040   -0.5790 c3        1 8DX      0.139100
     17 OAF        -3.1000   -0.3420   -1.6940 oh        1 8DX     -0.624800
     18 CAG        -4.0150   -0.2290    0.5600 c3        1 8DX      0.105400
     19 OAK        -3.0310    0.5930    1.1520 os        1 8DX     -0.410600
     20 HA          3.0720    0.8410   -0.7650 h1        1 8DX      0.050700
     21 HN          1.8820   -1.7920   -1.1150 hn        1 8DX      0.341800
     22 HNA         1.3110   -0.4410   -1.8150 hn        1 8DX      0.341800
     23 HB          1.5690   -0.4750    1.5240 hc        1 8DX      0.037200
     24 HBA         1.9420    1.2760    1.1880 hc        1 8DX      0.037200
     25 HAJ        -0.1210    0.9900    2.4190 hc        1 8DX      0.060700
     26 HAJA       -1.1280    2.0010    1.2960 hc        1 8DX      0.060700
     27 HAR        -0.7790   -1.9500    1.4050 h1        1 8DX      0.035700
     28 HAQ        -2.0170   -0.3980    2.6420 h1        1 8DX      0.015700
     29 HAH        -1.8850   -2.5180   -0.9120 hc        1 8DX      0.047200
     30 HAHA       -2.8370   -2.7850    0.6180 hc        1 8DX      0.047200
     31 HAP        -4.3450   -1.7360   -0.9580 h1        1 8DX      0.026700
     32 HOAF       -2.2200    0.0620   -1.5170 ho        1 8DX      0.488000
     33 HAG        -4.7700    0.5050    0.1690 h1        1 8DX      0.022700
     34 HAGA       -4.4850   -0.8810    1.3470 h1        1 8DX      0.022700
@<TRIPOS>BOND
     1    1    2 1   
     2    2    3 1   
     3    2    4 1   
     4    4    5 1   
     5    4    6 1   
     6    4   20 1   
     7    5   21 1   
     8    5   22 1   
     9    6    7 1   
    10    6   23 1   
    11    6   24 1   
    12    7    8 1   
    13    7    9 1   
    14    7   12 1   
    15    8   14 1   
    16    8   25 1   
    17    8   26 1   
    18    9   10 1   
    19    9   11 1   
    20   12   13 1   
    21   13   14 1   
    22   13   15 1   
    23   13   27 1   
    24   14   19 1   
    25   14   28 1   
    26   15   16 1   
    27   15   29 1   
    28   15   30 1   
    29   16   17 1   
    30   16   18 1   
    31   16   31 1   
    32   17   32 1   
    33   18   19 1   
    34   18   33 1   
    35   18   34 1   
@<TRIPOS>SUBSTRUCTURE
     1 8DX         1 TEMP              0 ****  ****    0 ROOT
