@<TRIPOS>MOLECULE
8E9
   44    47     1     0     0
SMALL
bcc


@<TRIPOS>ATOM
      1 O16         0.0390    0.6820    0.3420 o         1 8E9     -0.561100
      2 C10         1.2540    0.4370    0.2640 c         1 8E9      0.592300
      3 C14         2.0770    0.3720    1.4920 ca        1 8E9     -0.128600
      4 C5          1.5160    0.0040    2.7180 ca        1 8E9     -0.091000
      5 C6          2.3170   -0.0490    3.8590 ca        1 8E9     -0.134000
      6 C7          3.6700    0.2820    3.7800 ca        1 8E9     -0.127000
      7 C8          4.2290    0.6660    2.5610 ca        1 8E9     -0.095000
      8 C13         3.4350    0.7030    1.4110 ca        1 8E9     -0.112600
      9 C9          4.0140    1.0940    0.1000 c         1 8E9      0.605300
     10 O9          5.0170    1.8310    0.0830 o         1 8E9     -0.584100
     11 C11         1.9750    0.1970   -1.0060 ca        1 8E9     -0.103600
     12 C12         3.3500    0.5470   -1.0850 ca        1 8E9     -0.281600
     13 C1          4.0690    0.3400   -2.2990 ca        1 8E9      0.334600
     14 N1          5.3940    0.6430   -2.4230 nv        1 8E9     -0.844200
     15 C4          1.3130   -0.3530   -2.1120 ca        1 8E9      0.079600
     16 C3          2.0640   -0.5810   -3.3050 ca        1 8E9     -0.003000
     17 C2          3.3900   -0.2660   -3.4090 ca        1 8E9     -0.298500
     18 S2          4.2130   -0.6730   -4.9600 s6        1 8E9      1.460100
     19 OS2         4.9890   -1.8060   -4.6490 o         1 8E9     -0.736867
     20 OS1         3.1630   -0.9100   -5.8660 o         1 8E9     -0.736867
     21 OS3         4.9990    0.4690   -5.2450 o         1 8E9     -0.736867
     22 N4         -0.0750   -0.6340   -2.1310 nu        1 8E9     -0.614000
     23 C1'        -0.5400   -1.9580   -2.1540 ca        1 8E9      0.167600
     24 C6'         0.2730   -3.0500   -2.5390 ca        1 8E9     -0.178000
     25 C5'        -0.2690   -4.3260   -2.6310 ca        1 8E9     -0.093000
     26 C4'        -1.6110   -4.5600   -2.3400 ca        1 8E9     -0.184000
     27 C3'        -2.4290   -3.4970   -1.9460 ca        1 8E9     -0.056300
     28 C7'        -3.8610   -3.7280   -1.6430 c3        1 8E9     -0.047800
     29 C2'        -1.9000   -2.2100   -1.8470 ca        1 8E9     -0.195000
     30 H5          0.4430   -0.2380    2.7700 ha        1 8E9      0.148000
     31 H6          1.8790   -0.3480    4.8220 ha        1 8E9      0.127000
     32 H7          4.2990    0.2430    4.6810 ha        1 8E9      0.127000
     33 H8          5.2920    0.9450    2.4880 ha        1 8E9      0.152000
     34 H11N        5.8380    1.1980   -1.7320 hn        1 8E9      0.452800
     35 H12N        5.8110    0.6160   -3.3310 hn        1 8E9      0.452800
     36 H3          1.5470   -1.0120   -4.1880 ha        1 8E9      0.179000
     37 H4         -0.6180   -0.0270   -1.5480 hn        1 8E9      0.428800
     38 H6'         1.3380   -2.8950   -2.7740 ha        1 8E9      0.157000
     39 H2'        -2.5560   -1.3850   -1.5310 ha        1 8E9      0.128000
     40 H5'         0.3770   -5.1620   -2.9410 ha        1 8E9      0.128000
     41 H4'        -2.0250   -5.5740   -2.4180 ha        1 8E9      0.119000
     42 H7'1       -4.4790   -3.5270   -2.5550 hc        1 8E9      0.035700
     43 H7'2       -4.0390   -4.7850   -1.3270 hc        1 8E9      0.035700
     44 H7'3       -4.2130   -3.0500   -0.8270 hc        1 8E9      0.035700
@<TRIPOS>BOND
     1    1    2 2   
     2    2    3 1   
     3    2   11 1   
     4    3    4 ar  
     5    3    8 ar  
     6    4    5 ar  
     7    4   30 1   
     8    5    6 ar  
     9    5   31 1   
    10    6    7 ar  
    11    6   32 1   
    12    7    8 ar  
    13    7   33 1   
    14    8    9 1   
    15    9   10 2   
    16    9   12 1   
    17   11   12 ar  
    18   11   15 ar  
    19   12   13 ar  
    20   13   14 1   
    21   13   17 ar  
    22   14   34 1   
    23   14   35 1   
    24   15   16 ar  
    25   15   22 1   
    26   16   17 ar  
    27   16   36 1   
    28   17   18 1   
    29   18   19 1   
    30   18   20 1   
    31   18   21 1   
    32   22   23 1   
    33   22   37 1   
    34   23   24 ar  
    35   23   29 ar  
    36   24   25 ar  
    37   24   38 1   
    38   25   26 ar  
    39   25   40 1   
    40   26   27 ar  
    41   26   41 1   
    42   27   28 1   
    43   27   29 ar  
    44   28   42 1   
    45   28   43 1   
    46   28   44 1   
    47   29   39 1   
@<TRIPOS>SUBSTRUCTURE
     1 8E9         1 TEMP              0 ****  ****    0 ROOT
