@<TRIPOS>MOLECULE
8E9
   44    47     1     0     0
SMALL
bcc


@<TRIPOS>ATOM
      1 O16         0.0370    0.6830    0.3360 o         1 8E9     -0.561100
      2 C10         1.2520    0.4400    0.2570 c         1 8E9      0.592300
      3 C14         2.0780    0.3840    1.4840 ca        1 8E9     -0.128600
      4 C5          1.5200    0.0210    2.7130 ca        1 8E9     -0.091000
      5 C6          2.3230   -0.0240    3.8530 ca        1 8E9     -0.134000
      6 C7          3.6750    0.3100    3.7700 ca        1 8E9     -0.127000
      7 C8          4.2310    0.6890    2.5480 ca        1 8E9     -0.095000
      8 C13         3.4340    0.7180    1.4000 ca        1 8E9     -0.112600
      9 C9          4.0110    1.1040    0.0850 c         1 8E9      0.605300
     10 O9          5.0120    1.8430    0.0620 o         1 8E9     -0.584100
     11 C11         1.9720    0.1960   -1.0120 ca        1 8E9     -0.103600
     12 C12         3.3450    0.5490   -1.0950 ca        1 8E9     -0.281600
     13 C1          4.0630    0.3390   -2.3100 ca        1 8E9      0.334600
     14 N1          5.3870    0.6440   -2.4380 nh        1 8E9     -0.844200
     15 C4          1.3100   -0.3610   -2.1150 ca        1 8E9      0.079600
     16 C3          2.0590   -0.5930   -3.3080 ca        1 8E9     -0.003000
     17 C2          3.3840   -0.2750   -3.4160 ca        1 8E9     -0.298500
     18 S2          4.2050   -0.6870   -4.9660 s6        1 8E9      1.460100
     19 OS2         4.9840   -1.8150   -4.6520 o         1 8E9     -0.736867
     20 OS1         3.1540   -0.9310   -5.8700 o         1 8E9     -0.736867
     21 OS3         4.9880    0.4560   -5.2580 o         1 8E9     -0.736867
     22 N4         -0.0780   -0.6470   -2.1300 nh        1 8E9     -0.614000
     23 C1'        -0.5380   -1.9720   -2.1450 ca        1 8E9      0.167600
     24 C6'         0.2770   -3.0640   -2.5260 ca        1 8E9     -0.178000
     25 C5'        -0.2610   -4.3410   -2.6110 ca        1 8E9     -0.093000
     26 C4'        -1.6020   -4.5780   -2.3150 ca        1 8E9     -0.184000
     27 C3'        -2.4220   -3.5150   -1.9250 ca        1 8E9     -0.056300
     28 C7'        -3.8540   -3.7490   -1.6190 c3        1 8E9     -0.047800
     29 C2'        -1.8970   -2.2270   -1.8350 ca        1 8E9     -0.195000
     30 H5          0.4480   -0.2240    2.7680 ha        1 8E9      0.148000
     31 H6          1.8870   -0.3210    4.8180 ha        1 8E9      0.127000
     32 H7          4.3060    0.2770    4.6700 ha        1 8E9      0.127000
     33 H8          5.2930    0.9710    2.4720 ha        1 8E9      0.152000
     34 H11N        5.8310    1.2040   -1.7510 hn        1 8E9      0.452800
     35 H12N        5.8020    0.6140   -3.3460 hn        1 8E9      0.452800
     36 H3          1.5420   -1.0300   -4.1880 ha        1 8E9      0.179000
     37 H4         -0.6220   -0.0370   -1.5480 hn        1 8E9      0.428800
     38 H6'         1.3410   -2.9060   -2.7630 ha        1 8E9      0.157000
     39 H2'        -2.5550   -1.4010   -1.5210 ha        1 8E9      0.128000
     40 H5'         0.3870   -5.1770   -2.9170 ha        1 8E9      0.128000
     41 H4'        -2.0140   -5.5940   -2.3870 ha        1 8E9      0.119000
     42 H7'1       -4.2060   -3.0680   -0.8060 hc        1 8E9      0.035700
     43 H7'2       -4.4740   -3.5560   -2.5300 hc        1 8E9      0.035700
     44 H7'3       -4.0270   -4.8050   -1.2960 hc        1 8E9      0.035700
@<TRIPOS>BOND
     1    1    2 2   
     2    2    3 1   
     3    2   11 1   
     4    3    4 ar  
     5    3    8 ar  
     6    4    5 ar  
     7    4   30 1   
     8    5    6 ar  
     9    5   31 1   
    10    6    7 ar  
    11    6   32 1   
    12    7    8 ar  
    13    7   33 1   
    14    8    9 1   
    15    9   10 2   
    16    9   12 1   
    17   11   12 ar  
    18   11   15 ar  
    19   12   13 ar  
    20   13   14 1   
    21   13   17 ar  
    22   14   34 1   
    23   14   35 1   
    24   15   16 ar  
    25   15   22 1   
    26   16   17 ar  
    27   16   36 1   
    28   17   18 1   
    29   18   19 1   
    30   18   20 1   
    31   18   21 1   
    32   22   23 1   
    33   22   37 1   
    34   23   24 ar  
    35   23   29 ar  
    36   24   25 ar  
    37   24   38 1   
    38   25   26 ar  
    39   25   40 1   
    40   26   27 ar  
    41   26   41 1   
    42   27   28 1   
    43   27   29 ar  
    44   28   42 1   
    45   28   43 1   
    46   28   44 1   
    47   29   39 1   
@<TRIPOS>SUBSTRUCTURE
     1 8E9         1 TEMP              0 ****  ****    0 ROOT
