@<TRIPOS>MOLECULE
8E9
   46    49     1     0     0
SMALL
bcc


@<TRIPOS>ATOM
      1 O16        -0.2020    0.5700   -0.1530 o         1 8E9     -0.556100
      2 C10         1.0160    0.3550   -0.0400 c         1 8E9      0.604300
      3 C14         1.6570    0.2920    1.2790 ca        1 8E9     -0.143600
      4 C5          0.8780    0.1090    2.4240 ca        1 8E9     -0.063000
      5 C6          1.4880    0.0620    3.6830 ca        1 8E9     -0.095000
      6 C7          2.8670    0.2150    3.7980 ca        1 8E9     -0.091000
      7 C8          3.6500    0.4180    2.6560 ca        1 8E9     -0.060000
      8 C13         3.0490    0.4490    1.3960 ca        1 8E9     -0.139600
      9 C9          3.8680    0.6800    0.2000 c         1 8E9      0.597300
     10 O9          5.0150    1.1440    0.2860 o         1 8E9     -0.536100
     11 C11         1.8800    0.1440   -1.2380 ca        1 8E9     -0.087600
     12 C12         3.2770    0.3180   -1.1200 ca        1 8E9     -0.104600
     13 C1          4.0830    0.1340   -2.2650 ca        1 8E9      0.109600
     14 N1          5.5380    0.3120   -2.2850 n4        1 8E9     -0.752000
     15 C4          1.3300   -0.2150   -2.4910 ca        1 8E9      0.018600
     16 C3          2.1610   -0.4150   -3.6070 ca        1 8E9     -0.034000
     17 C2          3.5250   -0.2460   -3.4900 ca        1 8E9     -0.134500
     18 S2          4.6560   -0.5450   -5.0390 s6        1 8E9      1.476100
     19 OS2         5.4940   -1.4890   -4.4390 o         1 8E9     -0.702867
     20 OS1         3.7290   -0.9160   -5.9850 o         1 8E9     -0.702867
     21 OS3         5.2470    0.7200   -5.0520 o         1 8E9     -0.702867
     22 N4         -0.1160   -0.3910   -2.7060 n4        1 8E9     -0.516800
     23 C1'        -0.5650   -1.7830   -2.5430 ca        1 8E9     -0.050400
     24 C6'        -0.2330   -2.7430   -3.5140 ca        1 8E9     -0.107000
     25 C5'        -0.7020   -4.0450   -3.3570 ca        1 8E9     -0.098000
     26 C4'        -1.4860   -4.3900   -2.2580 ca        1 8E9     -0.081000
     27 C3'        -1.8150   -3.4320   -1.2890 ca        1 8E9     -0.044300
     28 C7'        -2.6590   -3.8100   -0.1310 c3        1 8E9     -0.071800
     29 C2'        -1.3500   -2.1210   -1.4270 ca        1 8E9     -0.111000
     30 H5         -0.2160    0.0110    2.3310 ha        1 8E9      0.165000
     31 H6          0.8690   -0.0890    4.5830 ha        1 8E9      0.165000
     32 H7          3.3480    0.1850    4.7900 ha        1 8E9      0.167000
     33 H8          4.7400    0.5630    2.7440 ha        1 8E9      0.172000
     34 H11N        5.9200    0.6080   -1.3800 hn        1 8E9      0.497800
     35 H12N        5.7640    1.0220   -3.0150 hn        1 8E9      0.497800
     36 H3          1.7610   -0.7040   -4.6030 ha        1 8E9      0.198000
     37 H4         -0.6470    0.2160   -2.0530 hn        1 8E9      0.478300
     38 H6'         0.3870   -2.4900   -4.3890 ha        1 8E9      0.161000
     39 H2'        -1.6070   -1.3680   -0.6610 ha        1 8E9      0.165000
     40 H5'        -0.4480   -4.8050   -4.1160 ha        1 8E9      0.172000
     41 H4'        -1.8530   -5.4250   -2.1460 ha        1 8E9      0.167000
     42 H7'1       -2.7120   -2.9890    0.6250 hc        1 8E9      0.066033
     43 H7'2       -2.2510   -4.7250    0.3660 hc        1 8E9      0.066033
     44 H7'3       -3.7000   -4.0370   -0.4770 hc        1 8E9      0.066033
     45 H13         5.9710   -0.5880   -2.5870 hn        1 8E9      0.497800
     46 H42        -0.3310   -0.0990   -3.6710 hn        1 8E9      0.478300
@<TRIPOS>BOND
     1    1    2 2   
     2    2    3 1   
     3    2   11 1   
     4    3    4 ar  
     5    3    8 ar  
     6    4    5 ar  
     7    4   30 1   
     8    5    6 ar  
     9    5   31 1   
    10    6    7 ar  
    11    6   32 1   
    12    7    8 ar  
    13    7   33 1   
    14    8    9 1   
    15    9   10 2   
    16    9   12 1   
    17   11   12 ar  
    18   11   15 ar  
    19   12   13 ar  
    20   13   14 1   
    21   13   17 ar  
    22   14   34 1   
    23   14   35 1   
    24   14   45 1   
    25   15   16 ar  
    26   15   22 1   
    27   16   17 ar  
    28   16   36 1   
    29   17   18 1   
    30   18   19 1   
    31   18   20 1   
    32   18   21 1   
    33   22   23 1   
    34   22   37 1   
    35   22   46 1   
    36   23   24 ar  
    37   23   29 ar  
    38   24   25 ar  
    39   24   38 1   
    40   25   26 ar  
    41   25   40 1   
    42   26   27 ar  
    43   26   41 1   
    44   27   28 1   
    45   27   29 ar  
    46   28   42 1   
    47   28   43 1   
    48   28   44 1   
    49   29   39 1   
@<TRIPOS>SUBSTRUCTURE
     1 8E9         1 TEMP              0 ****  ****    0 ROOT
