@<TRIPOS>MOLECULE
8EP
   36    37     1     0     0
SMALL
bcc


@<TRIPOS>ATOM
      1 OAC        -0.5790    0.3360    1.6120 o         1 8EP     -0.820800
      2 CAN         0.3810    0.0840    0.8070 c         1 8EP      0.901600
      3 OAE         0.2350   -0.0620   -0.4270 o         1 8EP     -0.820800
      4 CAT         1.8080   -0.0240    1.4210 c3        1 8EP      0.001800
      5 CB          2.2170   -1.4650    1.6980 c3        1 8EP     -0.062400
      6 CA          1.1090   -2.3350    2.2730 c3        1 8EP     -0.028500
      7 N           0.3400   -1.6410    3.3490 n4        1 8EP     -0.840600
      8 C           1.6870   -3.6960    2.8280 c         1 8EP      0.918600
      9 O           1.1620   -4.1180    3.8980 o         1 8EP     -0.801800
     10 OXT         2.5900   -4.2430    2.1620 o         1 8EP     -0.801800
     11 OAL         1.7930    0.6610    2.7070 os        1 8EP     -0.441600
     12 CAS         2.2290    2.0040    2.5180 c3        1 8EP      0.093100
     13 CAQ         1.0370    2.8980    2.1360 c3        1 8EP      0.097100
     14 OAG         0.0690    2.8860    3.1650 oh        1 8EP     -0.610800
     15 CAP         1.5260    4.3340    1.9140 c3        1 8EP      0.115100
     16 OAF         0.6100    5.0990    1.1530 oh        1 8EP     -0.599800
     17 CAH         2.8970    4.3120    1.2170 c3        1 8EP      0.094400
     18 OAK         3.1360    3.1090    0.4990 os        1 8EP     -0.409600
     19 CAR         3.2350    1.9670    1.3490 c3        1 8EP      0.110100
     20 CAJ         2.8500    0.7110    0.5570 c3        1 8EP     -0.090400
     21 HB          3.0980   -1.4760    2.3920 hc        1 8EP      0.076200
     22 HBA         2.5330   -1.9490    0.7350 hc        1 8EP      0.076200
     23 HA          0.3700   -2.5840    1.4570 hx        1 8EP      0.096700
     24 HN          0.9860   -1.0930    3.9170 hn        1 8EP      0.454133
     25 HNA        -0.0950   -2.3650    3.9320 hn        1 8EP      0.454133
     26 HAS         2.6800    2.3180    3.4920 h1        1 8EP      0.068700
     27 HAQ         0.5840    2.4980    1.1810 h1        1 8EP      0.087700
     28 HOAG       -0.3930    2.0360    3.0610 ho        1 8EP      0.444000
     29 HAP         1.5940    4.8840    2.8940 h1        1 8EP      0.080700
     30 HOAF        0.3210    4.5520    0.4110 ho        1 8EP      0.410000
     31 HAH         3.7090    4.4710    1.9730 h1        1 8EP      0.049200
     32 HAHA        2.9420    5.1110    0.4290 h1        1 8EP      0.049200
     33 HAR         4.2890    1.9140    1.7310 h1        1 8EP      0.040700
     34 HAJ         3.7500    0.0750    0.3810 hc        1 8EP      0.077200
     35 HAJA        2.4010    0.9800   -0.4330 hc        1 8EP      0.077200
     36 HN3        -0.3540   -0.9920    2.9270 hn        1 8EP      0.454133
@<TRIPOS>BOND
     1    1    2 1   
     2    2    3 1   
     3    2    4 1   
     4    4    5 1   
     5    4   11 1   
     6    4   20 1   
     7    5    6 1   
     8    5   21 1   
     9    5   22 1   
    10    6    7 1   
    11    6    8 1   
    12    6   23 1   
    13    7   24 1   
    14    7   25 1   
    15    7   36 1   
    16    8    9 1   
    17    8   10 1   
    18   11   12 1   
    19   12   13 1   
    20   12   19 1   
    21   12   26 1   
    22   13   14 1   
    23   13   15 1   
    24   13   27 1   
    25   14   28 1   
    26   15   16 1   
    27   15   17 1   
    28   15   29 1   
    29   16   30 1   
    30   17   18 1   
    31   17   31 1   
    32   17   32 1   
    33   18   19 1   
    34   19   20 1   
    35   19   33 1   
    36   20   34 1   
    37   20   35 1   
@<TRIPOS>SUBSTRUCTURE
     1 8EP         1 TEMP              0 ****  ****    0 ROOT
