@<TRIPOS>MOLECULE
8EP
   36    37     1     0     0
SMALL
bcc


@<TRIPOS>ATOM
      1 OAC        -0.5810    0.3470    1.6140 o         1 8EP     -0.820800
      2 CAN         0.3770    0.0830    0.8120 c         1 8EP      0.901600
      3 OAE         0.2320   -0.0700   -0.4220 o         1 8EP     -0.820800
      4 CAT         1.8040   -0.0280    1.4270 c3        1 8EP      0.001800
      5 CB          2.2040   -1.4700    1.7140 c3        1 8EP     -0.062400
      6 CA          1.0910   -2.3280    2.2960 c3        1 8EP     -0.028500
      7 N           0.3260   -1.6220    3.3650 n4        1 8EP     -0.840600
      8 C           1.6610   -3.6890    2.8610 c         1 8EP      0.918600
      9 O           1.1330   -4.1010    3.9340 o         1 8EP     -0.801800
     10 OXT         2.5620   -4.2460    2.1990 o         1 8EP     -0.801800
     11 OAL         1.7920    0.6660    2.7080 os        1 8EP     -0.441600
     12 CAS         2.2350    2.0050    2.5100 c3        1 8EP      0.093100
     13 CAQ         1.0490    2.9040    2.1210 c3        1 8EP      0.097100
     14 OAG         0.0810    2.9040    3.1490 oh        1 8EP     -0.610800
     15 CAP         1.5460    4.3350    1.8890 c3        1 8EP      0.115100
     16 OAF         0.6340    5.0990    1.1220 oh        1 8EP     -0.599800
     17 CAH         2.9160    4.3000    1.1910 c3        1 8EP      0.094400
     18 OAK         3.1490    3.0910    0.4820 os        1 8EP     -0.409600
     19 CAR         3.2410    1.9540    1.3410 c3        1 8EP      0.110100
     20 CAJ         2.8500    0.6950    0.5580 c3        1 8EP     -0.090400
     21 HB          2.5180   -1.9620    0.7550 hc        1 8EP      0.076200
     22 HBA         3.0850   -1.4800    2.4090 hc        1 8EP      0.076200
     23 HA          0.3520   -2.5800    1.4810 hx        1 8EP      0.096700
     24 HN          0.9740   -1.0740    3.9300 hn        1 8EP      0.454133
     25 HNA        -0.3640   -0.9730    2.9390 hn        1 8EP      0.454133
     26 HAS         2.6890    2.3240    3.4820 h1        1 8EP      0.068700
     27 HAQ         0.5930    2.4990    1.1680 h1        1 8EP      0.087700
     28 HOAG       -0.3860    2.0560    3.0510 ho        1 8EP      0.444000
     29 HAP         1.6170    4.8910    2.8640 h1        1 8EP      0.080700
     30 HOAF        0.3420    4.5490    0.3840 ho        1 8EP      0.410000
     31 HAH         3.7300    4.4600    1.9460 h1        1 8EP      0.049200
     32 HAHA        2.9660    5.0930    0.3980 h1        1 8EP      0.049200
     33 HAR         4.2950    1.8990    1.7240 h1        1 8EP      0.040700
     34 HAJ         3.7470    0.0530    0.3870 hc        1 8EP      0.077200
     35 HAJA        2.4040    0.9590   -0.4350 hc        1 8EP      0.077200
     36 HN3        -0.1140   -2.3400    3.9540 hn        1 8EP      0.454133
@<TRIPOS>BOND
     1    1    2 1   
     2    2    3 1   
     3    2    4 1   
     4    4    5 1   
     5    4   11 1   
     6    4   20 1   
     7    5    6 1   
     8    5   21 1   
     9    5   22 1   
    10    6    7 1   
    11    6    8 1   
    12    6   23 1   
    13    7   24 1   
    14    7   25 1   
    15    7   36 1   
    16    8    9 1   
    17    8   10 1   
    18   11   12 1   
    19   12   13 1   
    20   12   19 1   
    21   12   26 1   
    22   13   14 1   
    23   13   15 1   
    24   13   27 1   
    25   14   28 1   
    26   15   16 1   
    27   15   17 1   
    28   15   29 1   
    29   16   30 1   
    30   17   18 1   
    31   17   31 1   
    32   17   32 1   
    33   18   19 1   
    34   19   20 1   
    35   19   33 1   
    36   20   34 1   
    37   20   35 1   
@<TRIPOS>SUBSTRUCTURE
     1 8EP         1 TEMP              0 ****  ****    0 ROOT
