@<TRIPOS>MOLECULE
8EP
   35    36     1     0     0
SMALL
bcc


@<TRIPOS>ATOM
      1 OAC        -1.7540   -0.8610   -1.2960 o         1 8EP     -0.850300
      2 CAN        -0.5570   -0.5580   -1.5250 c         1 8EP      0.911600
      3 OAE        -0.2110   -0.1480   -2.6860 o         1 8EP     -0.850300
      4 CAT         0.4740   -0.6260   -0.4030 c3        1 8EP      0.041800
      5 CB          0.9110   -2.0400   -0.6180 c3        1 8EP     -0.045400
      6 CA          0.0580   -2.9650    0.2210 c3        1 8EP      0.026500
      7 N           0.7870   -3.3770    1.3580 n3        1 8EP     -0.889800
      8 C          -0.3240   -4.1880   -0.6060 c         1 8EP      0.885600
      9 O          -1.5170   -4.5840   -0.6290 o         1 8EP     -0.863800
     10 OXT         0.5720   -4.8570   -1.1890 o         1 8EP     -0.863800
     11 OAL         0.0330   -0.3870    0.7160 os        1 8EP     -0.406600
     12 CAS         0.3980    1.1030    1.0090 c3        1 8EP      0.105100
     13 CAQ        -0.7690    2.1140    1.3340 c3        1 8EP      0.065100
     14 OAG        -0.1770    3.3200    2.0070 oh        1 8EP     -0.635800
     15 CAP        -1.4610    2.5290    0.2540 c3        1 8EP      0.136100
     16 OAF        -2.2960    1.3440   -0.2790 oh        1 8EP     -0.634800
     17 CAH        -0.6050    3.0460   -0.8660 c3        1 8EP      0.111400
     18 OAK         0.4230    2.1270   -1.2790 os        1 8EP     -0.427600
     19 CAR         1.4320    1.5770   -0.0810 c3        1 8EP      0.123100
     20 CAJ         1.8460    0.6490   -0.5190 c3        1 8EP     -0.087400
     21 HB          0.8100   -2.2760   -1.5770 hc        1 8EP      0.060700
     22 HBA         1.8560   -2.1350   -0.3540 hc        1 8EP      0.060700
     23 HA         -0.7310   -2.5080    0.4970 h1        1 8EP      0.055700
     24 HN          0.2150   -3.6190    2.0100 hn        1 8EP      0.318300
     25 HNA         1.3160   -4.0860    1.1390 hn        1 8EP      0.318300
     26 HAS         0.9230    1.0650    1.8520 h1        1 8EP      0.047700
     27 HAQ        -1.3920    1.6810    1.9560 h1        1 8EP      0.134700
     28 HOAG       -0.4870    3.3810    2.8240 ho        1 8EP      0.405000
     29 HAP        -2.0660    3.2330    0.5290 h1        1 8EP      0.052700
     30 HOAF       -3.1490    1.5870   -0.3370 ho        1 8EP      0.467000
     31 HAH        -1.1950    3.2410   -1.6560 h1        1 8EP      0.028700
     32 HAHA       -0.1950    3.8520   -0.5860 h1        1 8EP      0.028700
     33 HAR         2.0980    2.2260    0.2290 h1        1 8EP      0.059700
     34 HAJ         2.6440    0.3460    0.0060 hc        1 8EP      0.056200
     35 HAJA        2.0910    0.7960   -1.4540 hc        1 8EP      0.056200
@<TRIPOS>BOND
     1    1    2 1   
     2    2    3 1   
     3    2    4 1   
     4    4    5 1   
     5    4   11 1   
     6    4   20 1   
     7    5    6 1   
     8    5   21 1   
     9    5   22 1   
    10    6    7 1   
    11    6    8 1   
    12    6   23 1   
    13    7   24 1   
    14    7   25 1   
    15    8    9 1   
    16    8   10 1   
    17   11   12 1   
    18   12   13 1   
    19   12   19 1   
    20   12   26 1   
    21   13   14 1   
    22   13   15 1   
    23   13   27 1   
    24   14   28 1   
    25   15   16 1   
    26   15   17 1   
    27   15   29 1   
    28   16   30 1   
    29   17   18 1   
    30   17   31 1   
    31   17   32 1   
    32   18   19 1   
    33   19   20 1   
    34   19   33 1   
    35   20   34 1   
    36   20   35 1   
@<TRIPOS>SUBSTRUCTURE
     1 8EP         1 TEMP              0 ****  ****    0 ROOT
