@<TRIPOS>MOLECULE
8EP
   35    36     1     0     0
SMALL
bcc


@<TRIPOS>ATOM
      1 OAC         0.4260    0.7470    1.9130 o         1 8EP     -0.844800
      2 CAN        -0.2420    1.2080    0.9370 c         1 8EP      0.916600
      3 OAE        -0.7260    2.3720    0.9240 o         1 8EP     -0.844800
      4 CAT        -0.3920    0.3460   -0.3480 c3        1 8EP      0.034800
      5 CB         -1.8310    0.1240   -0.7980 c3        1 8EP     -0.080400
      6 CA         -2.8160   -0.4720    0.2250 c3        1 8EP      0.056500
      7 N          -2.2650   -1.4390    1.1530 n3        1 8EP     -0.894800
      8 C          -3.9980   -1.0760   -0.6000 c         1 8EP      0.915600
      9 O          -5.0930   -0.4410   -0.6210 o         1 8EP     -0.867300
     10 OXT        -3.8150   -2.1590   -1.2320 o         1 8EP     -0.867300
     11 OAL         0.2070   -0.9650   -0.1670 os        1 8EP     -0.408600
     12 CAS         1.5670   -0.9610   -0.5910 c3        1 8EP      0.102100
     13 CAQ         2.4500   -1.0280    0.6680 c3        1 8EP      0.067100
     14 OAG         3.0140   -2.3370    0.7720 oh        1 8EP     -0.635800
     15 CAP         3.6260   -0.0480    0.7160 c3        1 8EP      0.139100
     16 OAF         3.4010    0.9910    1.6460 oh        1 8EP     -0.633800
     17 CAH         3.9390    0.5280   -0.6630 c3        1 8EP      0.107400
     18 OAK         2.8100    1.1380   -1.2600 os        1 8EP     -0.413600
     19 CAR         1.7450    0.2350   -1.5460 c3        1 8EP      0.123100
     20 CAJ         0.4310    1.0200   -1.4670 c3        1 8EP     -0.097400
     21 HB         -2.2320    1.1240   -1.1100 hc        1 8EP      0.043700
     22 HBA        -1.8110   -0.5510   -1.6950 hc        1 8EP      0.043700
     23 HA         -3.2210    0.3770    0.8480 h1        1 8EP      0.055700
     24 HN         -2.0480   -2.2800    0.6500 hn        1 8EP      0.337800
     25 HNA        -1.4060   -1.0750    1.5340 hn        1 8EP      0.337800
     26 HAS         1.7020   -1.9200   -1.1700 h1        1 8EP      0.040700
     27 HAQ         1.7720   -0.8300    1.5620 h1        1 8EP      0.143700
     28 HOAG        2.2680   -2.9280    0.9270 ho        1 8EP      0.403000
     29 HAP         4.5430   -0.5830    1.0980 h1        1 8EP      0.052700
     30 HOAF        2.4540    1.2330    1.6140 ho        1 8EP      0.470000
     31 HAH         4.6810    1.3660   -0.5730 h1        1 8EP      0.030700
     32 HAHA        4.3430   -0.2800   -1.3300 h1        1 8EP      0.030700
     33 HAR         1.9300   -0.1530   -2.5870 h1        1 8EP      0.016700
     34 HAJ        -0.1010    0.9650   -2.4470 hc        1 8EP      0.060700
     35 HAJA        0.6150    2.0940   -1.2170 hc        1 8EP      0.060700
@<TRIPOS>BOND
     1    1    2 1   
     2    2    3 1   
     3    2    4 1   
     4    4    5 1   
     5    4   11 1   
     6    4   20 1   
     7    5    6 1   
     8    5   21 1   
     9    5   22 1   
    10    6    7 1   
    11    6    8 1   
    12    6   23 1   
    13    7   24 1   
    14    7   25 1   
    15    8    9 1   
    16    8   10 1   
    17   11   12 1   
    18   12   13 1   
    19   12   19 1   
    20   12   26 1   
    21   13   14 1   
    22   13   15 1   
    23   13   27 1   
    24   14   28 1   
    25   15   16 1   
    26   15   17 1   
    27   15   29 1   
    28   16   30 1   
    29   17   18 1   
    30   17   31 1   
    31   17   32 1   
    32   18   19 1   
    33   19   20 1   
    34   19   33 1   
    35   20   34 1   
    36   20   35 1   
@<TRIPOS>SUBSTRUCTURE
     1 8EP         1 TEMP              0 ****  ****    0 ROOT
