@<TRIPOS>MOLECULE
8EP
   36    37     1     0     0
SMALL
bcc


@<TRIPOS>ATOM
      1 OAC        -0.5720    0.3120    1.6060 o         1 8EP     -0.820800
      2 CAN         0.3960    0.0430    0.8190 c         1 8EP      0.901600
      3 OAE         0.2630   -0.1410   -0.4130 o         1 8EP     -0.820800
      4 CAT         1.8190   -0.0360    1.4480 c3        1 8EP      0.001800
      5 CB          2.2350   -1.4660    1.7710 c3        1 8EP     -0.062400
      6 CA          1.1280   -2.3250    2.3620 c3        1 8EP     -0.028500
      7 N           0.3440   -1.6050    3.4090 nz        1 8EP     -0.840600
      8 C           1.7100   -3.6660    2.9630 c         1 8EP      0.918600
      9 O           1.1790   -4.0600    4.0400 o         1 8EP     -0.801800
     10 OXT         2.6240   -4.2250    2.3210 o         1 8EP     -0.801800
     11 OAL         1.7870    0.6870    2.7130 os        1 8EP     -0.441600
     12 CAS         2.2150    2.0270    2.4880 c3        1 8EP      0.093100
     13 CAQ         1.0210    2.9000    2.0690 c3        1 8EP      0.097100
     14 OAG         0.0430    2.9120    3.0890 oh        1 8EP     -0.610800
     15 CAP         1.5010    4.3320    1.8080 c3        1 8EP      0.115100
     16 OAF         0.5860    5.0680    1.0170 oh        1 8EP     -0.599800
     17 CAH         2.8780    4.3000    1.1230 c3        1 8EP      0.094400
     18 OAK         3.1320    3.0780    0.4440 os        1 8EP     -0.409600
     19 CAR         3.2320    1.9620    1.3290 c3        1 8EP      0.110100
     20 CAJ         2.8630    0.6800    0.5720 c3        1 8EP     -0.090400
     21 HB          3.1100   -1.4490    2.4730 hc        1 8EP      0.076200
     22 HBA         2.5640   -1.9750    0.8260 hc        1 8EP      0.076200
     23 HA          0.3990   -2.6050    1.5470 hx        1 8EP      0.096700
     24 HN         -0.3500   -0.9750    2.9620 hn        1 8EP      0.454133
     25 HNA         0.9810   -1.0360    3.9670 hn        1 8EP      0.454133
     26 HAS         2.6550    2.3730    3.4560 h1        1 8EP      0.068700
     27 HAQ         0.5780    2.4690    1.1210 h1        1 8EP      0.087700
     28 HOAG       -0.4120    2.0550    3.0060 ho        1 8EP      0.444000
     29 HAP         1.5560    4.9110    2.7720 h1        1 8EP      0.080700
     30 HOAF        0.3080    4.4970    0.2890 ho        1 8EP      0.410000
     31 HAH         2.9250    5.0750    0.3130 h1        1 8EP      0.049200
     32 HAHA        3.6830    4.4880    1.8810 h1        1 8EP      0.049200
     33 HAR         4.2820    1.9290    1.7210 h1        1 8EP      0.040700
     34 HAJ         3.7690    0.0460    0.4220 hc        1 8EP      0.077200
     35 HAJA        2.4220    0.9170   -0.4310 hc        1 8EP      0.077200
     36 HN3        -0.0910   -2.3150    4.0100 hn        1 8EP      0.454133
@<TRIPOS>BOND
     1    1    2 1   
     2    2    3 1   
     3    2    4 1   
     4    4    5 1   
     5    4   11 1   
     6    4   20 1   
     7    5    6 1   
     8    5   21 1   
     9    5   22 1   
    10    6    7 1   
    11    6    8 1   
    12    6   23 1   
    13    7   24 1   
    14    7   25 1   
    15    7   36 1   
    16    8    9 1   
    17    8   10 1   
    18   11   12 1   
    19   12   13 1   
    20   12   19 1   
    21   12   26 1   
    22   13   14 1   
    23   13   15 1   
    24   13   27 1   
    25   14   28 1   
    26   15   16 1   
    27   15   17 1   
    28   15   29 1   
    29   16   30 1   
    30   17   18 1   
    31   17   31 1   
    32   17   32 1   
    33   18   19 1   
    34   19   20 1   
    35   19   33 1   
    36   20   34 1   
    37   20   35 1   
@<TRIPOS>SUBSTRUCTURE
     1 8EP         1 TEMP              0 ****  ****    0 ROOT
