@<TRIPOS>MOLECULE
8FG
   63    68     1     0     0
SMALL
bcc


@<TRIPOS>ATOM
      1 OP3        39.7060   24.3670   14.2840 o         1 8FG     -0.845500
      2 P          40.3580   25.6160   14.7540 p5        1 8FG      1.443800
      3 OP1        41.5330   26.2700   14.1560 o         1 8FG     -0.845500
      4 OP2        40.6170   25.2950   16.3340 oh        1 8FG     -0.778400
      5 O5'        39.1750   26.7530   14.9400 os        1 8FG     -0.587200
      6 N9         33.9830   25.9170   13.4000 na        1 8FG     -0.261900
      7 C4         32.5950   26.1690   13.4400 cc        1 8FG      0.054400
      8 N3         31.9690   27.3450   13.2260 nd        1 8FG     -0.537300
      9 C2         30.5620   27.3040   13.3310 cd        1 8FG      0.725900
     10 N2         29.8700   28.4190   13.1390 n2        1 8FG     -0.936100
     11 N1         29.8930   26.0560   13.6400 n         1 8FG     -0.573400
     12 C6         30.5400   24.8290   13.8470 c         1 8FG      0.657000
     13 O6         29.8280   23.8250   14.0920 o         1 8FG     -0.724500
     14 C5         31.9740   24.8850   13.7370 cc        1 8FG      0.063800
     15 N7         32.9320   23.8850   13.8570 nd        1 8FG     -0.581000
     16 C8         34.1240   24.4950   13.6300 cd        1 8FG      0.457400
     17 C31        37.2690   23.4040   12.1190 ca        1 8FG     -0.153000
     18 C32        35.8830   23.3730   12.3930 ca        1 8FG      0.102600
     19 C33        34.9840   22.8970   11.3970 ca        1 8FG     -0.138000
     20 C34        35.4950   22.4560   10.1960 ca        1 8FG     -0.084300
     21 C35        36.8970   22.4680    9.9360 cp        1 8FG     -0.104000
     22 C36        37.7710   22.9460   10.8980 ca        1 8FG     -0.078000
     23 C37        34.7530   21.9130    9.0040 c3        1 8FG      0.009200
     24 C38        35.8530   21.5970    8.0270 ca        1 8FG     -0.091300
     25 C39        37.1220   21.9360    8.5970 cp        1 8FG      0.002000
     26 C40        35.7760   21.0650    6.7560 ca        1 8FG     -0.126000
     27 C41        36.9620   20.8640    6.0330 ca        1 8FG     -0.156000
     28 C42        38.1960   21.1950    6.5850 ca        1 8FG     -0.138000
     29 C43        38.2870   21.7350    7.8750 ca        1 8FG     -0.124000
     30 N29        35.3800   23.8250   13.6360 n         1 8FG     -0.347500
     31 C30        35.9580   23.4830   14.8710 c         1 8FG      0.691100
     32 O44        35.5310   23.9990   15.9200 o         1 8FG     -0.592100
     33 C45        37.0820   22.4820   14.9080 c3        1 8FG     -0.197100
     34 C2'        34.8840   28.2110   13.9070 c3        1 8FG     -0.107400
     35 C5'        37.8460   26.3500   14.8210 c3        1 8FG      0.163400
     36 C4'        37.1380   27.2630   13.8110 c3        1 8FG      0.090100
     37 O4'        36.2790   26.4750   12.9750 os        1 8FG     -0.413600
     38 C1'        34.9240   26.9470   13.0110 c3        1 8FG      0.284800
     39 C3'        36.2930   28.3680   14.4710 c3        1 8FG      0.119100
     40 O3'        36.7700   29.6640   14.1360 oh        1 8FG     -0.615800
     41 HN21       40.0780   24.5760   16.6420 ho        1 8FG      0.423000
     42 HN22       28.8830   28.2970   13.2320 hn        1 8FG      0.332400
     43 HN1        28.9040   26.0540   13.7170 hn        1 8FG      0.288500
     44 H33        33.8990   22.8870   11.5790 ha        1 8FG      0.164000
     45 H36        38.8540   22.9830   10.7130 ha        1 8FG      0.137000
     46 H371       34.0470   22.6750    8.5870 hc        1 8FG      0.066700
     47 H372       34.1690   20.9970    9.2710 hc        1 8FG      0.066700
     48 H40        34.8070   20.8030    6.3100 ha        1 8FG      0.120000
     49 H41        36.9110   20.4420    5.0200 ha        1 8FG      0.111000
     50 H42        39.1150   21.0330    6.0040 ha        1 8FG      0.114000
     51 H43        39.2640   21.9970    8.3040 ha        1 8FG      0.136000
     52 H451       38.0650   23.0180   14.7950 hc        1 8FG      0.080700
     53 H452       37.0600   21.9740   15.9030 hc        1 8FG      0.080700
     54 H453       36.9940   21.7150   14.1030 hc        1 8FG      0.080700
     55 H2'        34.1380   28.1230   14.7340 hc        1 8FG      0.083700
     56 H2''       34.6010   29.0950   13.2830 hc        1 8FG      0.083700
     57 H5'        37.3460   26.4350   15.8280 h1        1 8FG      0.049700
     58 H5''       37.7750   25.2810   14.4710 h1        1 8FG      0.049700
     59 H4'        37.9000   27.7160   13.1160 h1        1 8FG      0.070700
     60 H1'        34.6810   27.2230   11.9380 h2        1 8FG      0.062700
     61 H3'        36.2970   28.2660   15.5910 h1        1 8FG      0.051700
     62 HO3'       37.7130   29.6670   14.3450 ho        1 8FG      0.407000
     63 H31        37.9870   23.8090   12.8620 ha        1 8FG      0.209000
@<TRIPOS>BOND
     1    1    2 1   
     2    2    3 1   
     3    2    4 1   
     4    2    5 1   
     5    4   41 1   
     6    5   35 1   
     7    6    7 1   
     8    6   16 2   
     9    6   38 1   
    10    7    8 2   
    11    7   14 1   
    12    8    9 1   
    13    9   10 2   
    14    9   11 1   
    15   10   42 1   
    16   11   12 1   
    17   11   43 1   
    18   12   13 2   
    19   12   14 1   
    20   14   15 2   
    21   15   16 1   
    22   16   30 1   
    23   17   18 ar  
    24   17   22 ar  
    25   17   63 1   
    26   18   19 ar  
    27   18   30 1   
    28   19   20 ar  
    29   19   44 1   
    30   20   21 ar  
    31   20   23 1   
    32   21   22 ar  
    33   21   25 1   
    34   22   45 1   
    35   23   24 1   
    36   23   46 1   
    37   23   47 1   
    38   24   25 ar  
    39   24   26 ar  
    40   25   29 ar  
    41   26   27 ar  
    42   26   48 1   
    43   27   28 ar  
    44   27   49 1   
    45   28   29 ar  
    46   28   50 1   
    47   29   51 1   
    48   30   31 1   
    49   31   32 2   
    50   31   33 1   
    51   33   52 1   
    52   33   53 1   
    53   33   54 1   
    54   34   38 1   
    55   34   39 1   
    56   34   55 1   
    57   34   56 1   
    58   35   36 1   
    59   35   57 1   
    60   35   58 1   
    61   36   37 1   
    62   36   39 1   
    63   36   59 1   
    64   37   38 1   
    65   38   60 1   
    66   39   40 1   
    67   39   61 1   
    68   40   62 1   
@<TRIPOS>SUBSTRUCTURE
     1 8FG         1 TEMP              0 ****  ****    0 ROOT
