@<TRIPOS>MOLECULE
8FG
   63    58     1     0     0
SMALL
bcc


@<TRIPOS>ATOM
      1 OP3        -5.4500    0.0150    4.1750 o         1 8FG     -0.721833
      2 P          -5.0790    0.4740    5.5700 p5        1 8FG      1.577500
      3 OP1        -5.8150   -0.3720    6.5930 o         1 8FG     -0.721833
      4 OP2        -5.4640    1.9170    5.7400 o         1 8FG     -0.721833
      5 O5'        -3.4830    0.3120    5.7850 os        1 8FG     -0.751000
      6 N9         -0.2630    0.7550    1.3300 n2        1 8FG     -0.183000
      7 C4         -0.3450    2.1160    1.2200 c1        1 8FG      0.163000
      8 N3         -0.1170    3.1820    2.1780 n1        1 8FG     -0.275000
      9 C2         -0.2420    4.5680    1.7680 c1        1 8FG      0.207000
     10 N2         -0.0170    5.5850    2.6850 n2        1 8FG     -0.370000
     11 N1         -0.5880    4.8820    0.4290 n         1 8FG     -0.412000
     12 C6         -0.8080    3.8540   -0.4940 c2        1 8FG      0.406000
     13 O6         -1.0910    4.1170   -1.6330 o         1 8FG     -0.444000
     14 C5         -0.6250    2.4140   -0.0750 c2        1 8FG     -0.380000
     15 N7         -0.7150    1.2440   -0.7650 n2        1 8FG     -0.030000
     16 C8         -0.4910    0.2220    0.1070 c1        1 8FG     -0.064000
     17 C31         1.5840   -1.8460   -1.2180 c1        1 8FG     -0.134250
     18 C32         0.3170   -1.3850   -1.5570 c1        1 8FG      0.121000
     19 C33         0.0090   -1.0960   -2.9000 c1        1 8FG     -0.135000
     20 C34         0.9810   -1.2720   -3.8970 c1        1 8FG     -0.062000
     21 C35         2.2480   -1.7330   -3.5580 c1        1 8FG     -0.105000
     22 C36         2.5550   -2.0230   -2.2130 c1        1 8FG     -0.134250
     23 C37         0.9690   -1.0050   -5.3340 c3        1 8FG     -0.087000
     24 C38         2.2940   -1.3270   -5.8620 c2        1 8FG     -0.080000
     25 C39         3.0800   -1.7680   -4.8040 c1        1 8FG     -0.002000
     26 C40         2.8380   -1.2340   -7.1410 c1        1 8FG     -0.122000
     27 C41         4.1630   -1.5820   -7.3570 c1        1 8FG     -0.134250
     28 C42         4.9470   -2.0220   -6.2980 c1        1 8FG     -0.134250
     29 C43         4.4040   -2.1150   -5.0210 c1        1 8FG     -0.126000
     30 N29        -0.5930   -1.0380   -0.5330 n2        1 8FG     -0.195000
     31 C30        -1.6470   -1.9860   -0.1310 c2        1 8FG      0.345000
     32 O44        -2.4330   -1.6830    0.7540 o         1 8FG     -0.392000
     33 C45        -1.6480   -3.4120   -0.6990 c3        1 8FG     -0.242000
     34 C2'         0.2830    0.6110    3.5430 c3        1 8FG     -0.190000
     35 C5'        -2.6090    0.6950    4.7180 c3        1 8FG      0.038000
     36 C4'        -1.6390   -0.4050    4.4500 c3        1 8FG     -0.035000
     37 O4'        -1.5160   -0.6640    2.8740 os        1 8FG     -0.313000
     38 C1'        -0.1370   -0.0990    2.4720 c2        1 8FG      0.166000
     39 C3'        -0.4290   -0.0550    4.8360 c3        1 8FG      0.027000
     40 O3'         0.3070   -1.2160    5.2660 oh        1 8FG     -0.369000
     41 HN21       -0.1650    6.4550    2.4470 hn        1 8FG      0.160500
     42 HN22        0.3000    5.3890    3.5070 hn        1 8FG      0.160500
     43 HN1        -0.6690    5.7600    0.1690 hn        1 8FG      0.206000
     44 H31         1.7980   -2.0490   -0.2790 ha        1 8FG      0.128500
     45 H33        -0.8790   -0.7720   -3.1370 ha        1 8FG      0.171000
     46 H36         3.4450   -2.3470   -1.9740 ha        1 8FG      0.128500
     47 H371        0.7700   -0.0640   -5.4930 hc        1 8FG      0.111500
     48 H372        0.2960   -1.5630   -5.7670 hc        1 8FG      0.111500
     49 H40         2.2870   -0.9250   -7.8860 ha        1 8FG      0.124000
     50 H41         4.5500   -1.5160   -8.2630 ha        1 8FG      0.128500
     51 H42         5.8790   -2.2660   -6.4500 ha        1 8FG      0.128500
     52 H43         4.9390   -2.4700   -4.2890 ha        1 8FG      0.130000
     53 H451       -1.4650   -3.3810   -1.6530 hc        1 8FG      0.121667
     54 H452       -2.5310   -3.8280   -0.5460 hc        1 8FG      0.121667
     55 H453       -0.9580   -3.9400   -0.2520 hc        1 8FG      0.121667
     56 H2'         1.2700    0.5510    3.6280 hc        1 8FG      0.121500
     57 H2''        0.0100    1.5400    3.4540 hc        1 8FG      0.121500
     58 H5'        -3.1370    0.8710    3.9090 h1        1 8FG      0.079500
     59 H5''       -2.1210    1.5050    4.9710 h1        1 8FG      0.079500
     60 H4'        -1.9190   -1.2280    4.9110 h1        1 8FG      0.091000
     61 H1'         0.4910   -0.8330    2.2830 h4        1 8FG      0.093000
     62 H3'        -0.4830    0.6030    5.5680 h1        1 8FG      0.118000
     63 HO3'        0.5570   -1.1140    6.1420 ho        1 8FG      0.256000
@<TRIPOS>BOND
     1    1    2 1   
     2    2    3 1   
     3    2    4 1   
     4    2    5 1   
     5    5   35 1   
     6    6    7 1   
     7    6   16 1   
     8    7   14 1   
     9    8    9 1   
    10    9   11 1   
    11   10   41 1   
    12   10   42 1   
    13   11   12 1   
    14   11   43 1   
    15   12   13 1   
    16   12   14 1   
    17   14   15 1   
    18   15   16 1   
    19   17   22 1   
    20   17   44 1   
    21   18   19 1   
    22   18   30 1   
    23   19   45 1   
    24   20   21 1   
    25   20   23 1   
    26   22   46 1   
    27   23   24 1   
    28   23   47 1   
    29   23   48 1   
    30   24   25 1   
    31   24   26 1   
    32   25   29 1   
    33   26   49 1   
    34   27   28 1   
    35   27   50 1   
    36   28   51 1   
    37   29   52 1   
    38   30   31 1   
    39   31   32 1   
    40   31   33 1   
    41   33   53 1   
    42   33   54 1   
    43   33   55 1   
    44   34   38 1   
    45   34   39 1   
    46   34   56 1   
    47   34   57 1   
    48   35   36 1   
    49   35   58 1   
    50   35   59 1   
    51   36   37 1   
    52   36   39 1   
    53   36   60 1   
    54   37   38 1   
    55   38   61 1   
    56   39   40 1   
    57   39   62 1   
    58   40   63 1   
@<TRIPOS>SUBSTRUCTURE
     1 8FG         1 TEMP              0 ****  ****    0 ROOT
