@<TRIPOS>MOLECULE
8GD
   41    43     1     0     0
SMALL
bcc


@<TRIPOS>ATOM
      1 N1          0.0000    0.0000    0.0000 ns        1 8GD     -0.011400
      2 C2          1.3610    0.0000    0.0000 cc        1 8GD     -0.366200
      3 N2          2.0290   -0.0010   -1.1980 nz        1 8GD      0.352400
      4 N3          2.0530    0.0000    1.1190 nd        1 8GD     -0.607300
      5 C4          1.4410    0.0010    2.3080 cd        1 8GD      0.121200
      6 C5          0.0530    0.0010    2.3660 cc        1 8GD     -0.581600
      7 C6         -0.6780    0.0000    1.1700 c         1 8GD      0.705700
      8 O6         -1.8980    0.0020    1.1840 o         1 8GD     -0.817500
      9 N7         -0.2990    0.0020    3.7190 ns        1 8GD      0.080900
     10 C8          0.8390    0.0020    4.4420 c         1 8GD      0.556500
     11 O8          0.8990    0.0030    5.6570 o         1 8GD     -0.768500
     12 N9          1.8980    0.0020    3.6110 n         1 8GD      0.035000
     13 PA          5.0650   -3.8850    8.0610 p5        1 8GD      0.979800
     14 PB          5.4400   -6.8170    7.8460 p5        1 8GD      0.887900
     15 C1'         3.3040    0.0020    4.0220 c3        1 8GD      0.252500
     16 O1A         6.1240   -3.4360    9.1860 o         1 8GD     -0.649000
     17 O1B         6.5140   -7.1090    9.0100 o         1 8GD     -0.385167
     18 C2'         3.6350    1.3160    4.7560 c3        1 8GD     -0.110400
     19 O2A         3.7320   -4.0640    8.6810 o         1 8GD     -0.649000
     20 O2B         5.7500   -7.7630    6.5810 o         1 8GD     -0.385167
     21 C3'         4.1300    0.8570    6.1490 c3        1 8GD      0.149100
     22 O3'         5.2550    1.6320    6.5720 oh        1 8GD     -0.590800
     23 O3A         5.5400   -5.2740    7.4000 os        1 8GD     -0.472800
     24 O3B         4.0780   -7.0980    8.3500 o         1 8GD     -0.385167
     25 C4'         4.5410   -0.6130    5.8810 c3        1 8GD      0.158100
     26 O4'         3.5440   -1.0750    4.9430 os        1 8GD     -0.364600
     27 C5'         4.4850   -1.4320    7.1730 c3        1 8GD      0.311400
     28 O5'         4.9780   -2.7500    6.9220 os        1 8GD     -0.499200
     29 HN1        -0.5000   -0.0010   -0.8670 hn        1 8GD      0.119500
     30 HN2         1.7880   -0.8240   -1.7140 hn        1 8GD      0.092133
     31 HN2A        1.7720    0.8110   -1.7240 hn        1 8GD      0.092133
     32 HN7        -1.2290   -0.0540    4.0850 hn        1 8GD      0.163500
     33 H1'         3.9460   -0.1060    3.1560 h2        1 8GD      0.026700
     34 H2'         2.7470    1.9280    4.8540 hc        1 8GD      0.024700
     35 H2'A        4.4190    1.8520    4.2350 hc        1 8GD      0.024700
     36 H3'         3.3270    0.9030    6.8750 h1        1 8GD      0.038700
     37 HO3'        4.9680    2.3030    7.1680 ho        1 8GD      0.374000
     38 H4'         5.5280   -0.6560    5.4370 h1        1 8GD      0.018700
     39 H5'         3.4610   -1.4890    7.5210 h1        1 8GD     -0.006300
     40 H5'A        5.0970   -0.9560    7.9290 h1        1 8GD     -0.006300
     41 H23         3.0160    0.0100   -1.0300 hn        1 8GD      0.092133
@<TRIPOS>BOND
     1    1    2 1   
     2    1    7 1   
     3    1   29 1   
     4    2    3 1   
     5    2    4 2   
     6    3   30 1   
     7    3   31 1   
     8    3   41 1   
     9    4    5 1   
    10    5    6 2   
    11    5   12 1   
    12    6    7 1   
    13    6    9 1   
    14    7    8 2   
    15    9   10 1   
    16    9   32 1   
    17   10   11 2   
    18   10   12 1   
    19   12   15 1   
    20   13   16 1   
    21   13   19 1   
    22   13   23 1   
    23   13   28 1   
    24   14   17 1   
    25   14   20 1   
    26   14   23 1   
    27   14   24 1   
    28   15   18 1   
    29   15   26 1   
    30   15   33 1   
    31   18   21 1   
    32   18   34 1   
    33   18   35 1   
    34   21   22 1   
    35   21   25 1   
    36   21   36 1   
    37   22   37 1   
    38   25   26 1   
    39   25   27 1   
    40   25   38 1   
    41   27   28 1   
    42   27   39 1   
    43   27   40 1   
@<TRIPOS>SUBSTRUCTURE
     1 8GD         1 TEMP              0 ****  ****    0 ROOT
