@<TRIPOS>MOLECULE
8GP
   38    39     1     0     0
SMALL
bcc


@<TRIPOS>ATOM
      1 C1         -0.9020   -0.3290   -0.2020 c3        1 8GP      0.253500
      2 C2         -1.8010   -1.5700    0.0610 c3        1 8GP      0.086100
      3 O2         -1.3580   -2.6920   -0.6790 oh        1 8GP     -0.598800
      4 C3         -3.2200   -1.2720   -0.4500 c3        1 8GP      0.109100
      5 O3         -4.1120   -2.3110   -0.0850 oh        1 8GP     -0.604800
      6 C4         -3.7570    0.0120    0.2020 c3        1 8GP      0.122100
      7 O4         -4.9850    0.3920   -0.3910 oh        1 8GP     -0.592800
      8 C5         -2.7650    1.1610   -0.0350 c3        1 8GP      0.108100
      9 O5         -1.4790    0.8070    0.4760 os        1 8GP     -0.452600
     10 C6         -3.1870    2.4150    0.7360 c3        1 8GP      0.140400
     11 O6         -2.3800    3.5200    0.3960 oh        1 8GP     -0.592800
     12 N1          0.4320   -0.5000    0.3260 n         1 8GP     -0.525900
     13 C7          1.5240    0.0190   -0.3510 c         1 8GP      0.588100
     14 O7          1.4850    0.3790   -1.5400 o         1 8GP     -0.574100
     15 C8          2.8450    0.0450    0.4490 c         1 8GP      0.596100
     16 O8          2.8320    0.0010    1.6940 o         1 8GP     -0.593100
     17 N2          3.9890    0.0990   -0.3040 n         1 8GP     -0.507900
     18 C9          5.2800    0.2030    0.2840 cx        1 8GP      0.040700
     19 C10         6.5080   -0.3180   -0.4350 cx        1 8GP     -0.145900
     20 C11         6.3240    1.1610   -0.2580 cx        1 8GP     -0.145900
     21 H1         -0.8490   -0.1250   -1.3130 h2        1 8GP      0.100700
     22 H2         -1.8320   -1.8120    1.1590 h1        1 8GP      0.064700
     23 HO2        -0.4830   -2.9300   -0.3490 ho        1 8GP      0.421000
     24 H3         -3.2050   -1.1640   -1.5710 h1        1 8GP      0.067700
     25 HO3        -3.7530   -3.1270   -0.4580 ho        1 8GP      0.428000
     26 H4         -3.9010   -0.1600    1.3050 h1        1 8GP      0.062700
     27 HO4        -5.5710   -0.3750   -0.3170 ho        1 8GP      0.426000
     28 H5         -2.6890    1.3880   -1.1340 h1        1 8GP      0.075700
     29 H61        -3.1420    2.2190    1.8400 h1        1 8GP      0.065200
     30 H62        -4.2300    2.6960    0.4290 h1        1 8GP      0.065200
     31 HO6        -1.4700    3.2870    0.6210 ho        1 8GP      0.410000
     32 HN1         0.5040   -0.5330    1.3230 hn        1 8GP      0.333500
     33 HN2         3.9090    0.2130   -1.2900 hn        1 8GP      0.335500
     34 H9          5.2260    0.0680    1.3900 h1        1 8GP      0.121700
     35 H101        7.2700   -0.8480    0.1650 hc        1 8GP      0.078700
     36 H102        6.4130   -0.7480   -1.4480 hc        1 8GP      0.078700
     37 H111        6.0980    1.7770   -1.1470 hc        1 8GP      0.078700
     38 H112        6.9530    1.7050    0.4690 hc        1 8GP      0.078700
@<TRIPOS>BOND
     1    1    2 1   
     2    1    9 1   
     3    1   12 1   
     4    1   21 1   
     5    2    3 1   
     6    2    4 1   
     7    2   22 1   
     8    3   23 1   
     9    4    5 1   
    10    4    6 1   
    11    4   24 1   
    12    5   25 1   
    13    6    7 1   
    14    6    8 1   
    15    6   26 1   
    16    7   27 1   
    17    8    9 1   
    18    8   10 1   
    19    8   28 1   
    20   10   11 1   
    21   10   29 1   
    22   10   30 1   
    23   11   31 1   
    24   12   13 1   
    25   12   32 1   
    26   13   14 2   
    27   13   15 1   
    28   15   16 2   
    29   15   17 1   
    30   17   18 1   
    31   17   33 1   
    32   18   19 1   
    33   18   20 1   
    34   18   34 1   
    35   19   20 1   
    36   19   35 1   
    37   19   36 1   
    38   20   37 1   
    39   20   38 1   
@<TRIPOS>SUBSTRUCTURE
     1 8GP         1 TEMP              0 ****  ****    0 ROOT
