@<TRIPOS>MOLECULE
8GP
   40    41     1     0     0
SMALL
bcc


@<TRIPOS>ATOM
      1 C1          0.7300   -0.7540   -0.5780 c3        1 8GP      0.348300
      2 C2          1.9730    0.0230   -0.0760 c3        1 8GP      0.113100
      3 O2          3.0780   -0.7840   -0.4090 oh        1 8GP     -0.617800
      4 C3          1.7970    0.2260    1.4400 c3        1 8GP      0.083100
      5 O3          2.9070    1.0020    1.8390 oh        1 8GP     -0.581800
      6 C4          0.4890    1.0030    1.6880 c3        1 8GP      0.091100
      7 O4          0.2120    1.0340    3.0740 oh        1 8GP     -0.579800
      8 C5         -0.7030    0.2690    1.0520 c3        1 8GP      0.126100
      9 O5         -0.4620   -0.0180   -0.3490 os        1 8GP     -0.501600
     10 C6         -1.9570    1.1490    1.0560 c3        1 8GP      0.130400
     11 O6         -3.0420    0.4280    0.5010 oh        1 8GP     -0.673800
     12 N1          0.7930   -0.9480   -2.0900 n4        1 8GP     -0.666800
     13 C7         -0.5490   -1.2860   -2.6360 c         1 8GP      0.476100
     14 O7         -0.8270   -2.4330   -2.9330 o         1 8GP     -0.318100
     15 C8         -1.4860   -0.0880   -2.7810 c         1 8GP      0.493100
     16 O8         -1.1440    0.9520   -3.3180 o         1 8GP     -0.334100
     17 N2         -2.8460   -0.2550   -2.2180 n4        1 8GP     -0.605800
     18 C9         -3.6940   -1.1350   -3.0530 cx        1 8GP     -0.040500
     19 C10        -5.2080   -1.0280   -2.9630 cx        1 8GP     -0.079400
     20 C11        -4.5100   -0.5770   -4.2050 cx        1 8GP     -0.079400
     21 H1          0.6680   -1.7840   -0.1100 hx        1 8GP      0.135700
     22 H2          2.0630    1.0280   -0.5810 h1        1 8GP      0.095700
     23 HO2         3.8390   -0.4800    0.1170 ho        1 8GP      0.485000
     24 H3          1.7760   -0.7620    1.9770 h1        1 8GP      0.089700
     25 HO3         3.0640    0.8330    2.7800 ho        1 8GP      0.451000
     26 H4          0.5840    2.0430    1.2680 h1        1 8GP      0.086700
     27 HO4         0.7530    1.7370    3.4620 ho        1 8GP      0.449000
     28 H5         -0.8910   -0.7070    1.5800 h1        1 8GP      0.096700
     29 H61        -1.8130    2.0490    0.3980 h1        1 8GP      0.100700
     30 H62        -2.1510    1.4730    2.1150 h1        1 8GP      0.100700
     31 HO6        -3.5980    0.1120    1.2260 ho        1 8GP      0.456000
     32 HN1         1.1420   -0.0810   -2.5300 hn        1 8GP      0.506300
     33 HN2        -2.7740   -0.6440   -1.2540 hn        1 8GP      0.499300
     34 H9         -3.2250   -2.1430   -3.1490 hx        1 8GP      0.152700
     35 H101       -5.7780   -1.9810   -2.9570 hc        1 8GP      0.126950
     36 H102       -5.6770   -0.2730   -2.3020 hc        1 8GP      0.126950
     37 H111       -4.5660   -1.1910   -5.1280 hc        1 8GP      0.126950
     38 H112       -4.4780    0.5050   -4.4410 hc        1 8GP      0.126950
     39 H12         1.4750   -1.7080   -2.2730 hn        1 8GP      0.506300
     40 H22        -3.2880    0.6800   -2.1320 hn        1 8GP      0.499300
@<TRIPOS>BOND
     1    1    2 1   
     2    1    9 1   
     3    1   12 1   
     4    1   21 1   
     5    2    3 1   
     6    2    4 1   
     7    2   22 1   
     8    3   23 1   
     9    4    5 1   
    10    4    6 1   
    11    4   24 1   
    12    5   25 1   
    13    6    7 1   
    14    6    8 1   
    15    6   26 1   
    16    7   27 1   
    17    8    9 1   
    18    8   10 1   
    19    8   28 1   
    20   10   11 1   
    21   10   29 1   
    22   10   30 1   
    23   11   31 1   
    24   12   13 1   
    25   12   32 1   
    26   12   39 1   
    27   13   14 2   
    28   13   15 1   
    29   15   16 2   
    30   15   17 1   
    31   17   18 1   
    32   17   33 1   
    33   17   40 1   
    34   18   19 1   
    35   18   20 1   
    36   18   34 1   
    37   19   20 1   
    38   19   35 1   
    39   19   36 1   
    40   20   37 1   
    41   20   38 1   
@<TRIPOS>SUBSTRUCTURE
     1 8GP         1 TEMP              0 ****  ****    0 ROOT
