@<TRIPOS>MOLECULE
8GP
   40    41     1     0     0
SMALL
bcc


@<TRIPOS>ATOM
      1 C1          0.6800   -0.8620   -0.5400 c3        1 8GP      0.348300
      2 C2          1.9790   -0.1480   -0.0880 c3        1 8GP      0.113100
      3 O2          3.0210   -1.0520   -0.3720 oh        1 8GP     -0.617800
      4 C3          1.8260    0.1590    1.4130 c3        1 8GP      0.083100
      5 O3          2.9910    0.8750    1.7630 oh        1 8GP     -0.581800
      6 C4          0.5780    1.0430    1.6130 c3        1 8GP      0.091100
      7 O4          0.3110    1.1780    2.9950 oh        1 8GP     -0.579800
      8 C5         -0.6670    0.3590    1.0250 c3        1 8GP      0.126100
      9 O5         -0.4550   -0.0290   -0.3560 os        1 8GP     -0.501600
     10 C6         -1.8530    1.3270    0.9750 c3        1 8GP      0.130400
     11 O6         -2.9910    0.6540    0.4670 oh        1 8GP     -0.673800
     12 N1          0.7210   -1.1520   -2.0380 ny        1 8GP     -0.666800
     13 C7         -0.6440   -1.4250   -2.5610 c         1 8GP      0.476100
     14 O7         -1.0050   -2.5650   -2.7860 o         1 8GP     -0.318100
     15 C8         -1.4930   -0.1740   -2.7790 c         1 8GP      0.493100
     16 O8         -1.0810    0.8030   -3.3790 o         1 8GP     -0.334100
     17 N2         -2.8590   -0.2080   -2.2040 ny        1 8GP     -0.605800
     18 C9         -3.7730   -1.0740   -2.9830 cx        1 8GP     -0.040500
     19 C10        -5.2750   -0.8530   -2.8980 cx        1 8GP     -0.079400
     20 C11        -4.5530   -0.5300   -4.1660 cx        1 8GP     -0.079400
     21 H1          0.5470   -1.8550   -0.0100 hx        1 8GP      0.135700
     22 H2          2.1380    0.8150   -0.6530 h1        1 8GP      0.095700
     23 HO2         3.8040   -0.7720    0.1340 ho        1 8GP      0.485000
     24 H3          1.7360   -0.7900    2.0100 h1        1 8GP      0.089700
     25 HO3         3.1400    0.7530    2.7120 ho        1 8GP      0.451000
     26 H4          0.7460    2.0460    1.1310 h1        1 8GP      0.086700
     27 HO4         0.9040    1.8620    3.3400 ho        1 8GP      0.449000
     28 H5         -0.9220   -0.5670    1.6120 h1        1 8GP      0.096700
     29 H61        -1.6480    2.1720    0.2640 h1        1 8GP      0.100700
     30 H62        -2.0180    1.7280    2.0130 h1        1 8GP      0.100700
     31 HO6        -3.5650    0.4230    1.2100 ho        1 8GP      0.456000
     32 HN1         1.1300   -0.3420   -2.5310 hn        1 8GP      0.506300
     33 HN2        -3.2320    0.7600   -2.1770 hn        1 8GP      0.499300
     34 H9         -3.3780   -2.1170   -3.0170 hx        1 8GP      0.152700
     35 H101       -5.6840   -0.0260   -2.2850 hc        1 8GP      0.126950
     36 H102       -5.9120   -1.7600   -2.8330 hc        1 8GP      0.126950
     37 H111       -4.4450    0.5300   -4.4690 hc        1 8GP      0.126950
     38 H112       -4.6580   -1.1940   -5.0500 hc        1 8GP      0.126950
     39 H12         1.3460   -1.9700   -2.1740 hn        1 8GP      0.506300
     40 H22        -2.8100   -0.5410   -1.2190 hn        1 8GP      0.499300
@<TRIPOS>BOND
     1    1    2 1   
     2    1    9 1   
     3    1   12 1   
     4    1   21 1   
     5    2    3 1   
     6    2    4 1   
     7    2   22 1   
     8    3   23 1   
     9    4    5 1   
    10    4    6 1   
    11    4   24 1   
    12    5   25 1   
    13    6    7 1   
    14    6    8 1   
    15    6   26 1   
    16    7   27 1   
    17    8    9 1   
    18    8   10 1   
    19    8   28 1   
    20   10   11 1   
    21   10   29 1   
    22   10   30 1   
    23   11   31 1   
    24   12   13 1   
    25   12   32 1   
    26   12   39 1   
    27   13   14 2   
    28   13   15 1   
    29   15   16 2   
    30   15   17 1   
    31   17   18 1   
    32   17   33 1   
    33   17   40 1   
    34   18   19 1   
    35   18   20 1   
    36   18   34 1   
    37   19   20 1   
    38   19   35 1   
    39   19   36 1   
    40   20   37 1   
    41   20   38 1   
@<TRIPOS>SUBSTRUCTURE
     1 8GP         1 TEMP              0 ****  ****    0 ROOT
