@<TRIPOS>MOLECULE
8GP
   40    41     1     0     0
SMALL
bcc


@<TRIPOS>ATOM
      1 C1          0.6900   -0.8200   -0.4750 c3        1 8GP      0.348300
      2 C2          1.9600   -0.0660   -0.0060 c3        1 8GP      0.113100
      3 O2          3.0290   -0.9530   -0.2360 oh        1 8GP     -0.617800
      4 C3          1.7570    0.2760    1.4810 c3        1 8GP      0.083100
      5 O3          2.8960    1.0270    1.8450 oh        1 8GP     -0.581800
      6 C4          0.4850    1.1370    1.6240 c3        1 8GP      0.091100
      7 O4          0.1750    1.3010    2.9930 oh        1 8GP     -0.579800
      8 C5         -0.7280    0.4100    1.0190 c3        1 8GP      0.126100
      9 O5         -0.4670   -0.0090   -0.3450 os        1 8GP     -0.501600
     10 C6         -1.9330    1.3500    0.9100 c3        1 8GP      0.130400
     11 O6         -3.0400    0.6380    0.3870 oh        1 8GP     -0.673800
     12 N1          0.7810   -1.1480   -1.9630 n4        1 8GP     -0.666800
     13 C7         -0.5630   -1.4650   -2.5170 c         1 8GP      0.476100
     14 O7         -0.8920   -2.6190   -2.7220 o         1 8GP     -0.318100
     15 C8         -1.4330   -0.2400   -2.7910 c         1 8GP      0.493100
     16 O8         -1.0240    0.7310   -3.4050 o         1 8GP     -0.334100
     17 N2         -2.8130   -0.2890   -2.2550 n4        1 8GP     -0.605800
     18 C9         -3.6850   -1.1960   -3.0360 cx        1 8GP     -0.040500
     19 C10        -5.1930   -1.0070   -2.9990 cx        1 8GP     -0.079400
     20 C11        -4.4430   -0.7010   -4.2550 cx        1 8GP     -0.079400
     21 H1          0.5630   -1.8020    0.0770 hx        1 8GP      0.135700
     22 H2          2.1140    0.8860   -0.5910 h1        1 8GP      0.095700
     23 HO2         3.7910   -0.6430    0.2840 ho        1 8GP      0.485000
     24 H3          1.6700   -0.6590    2.1010 h1        1 8GP      0.089700
     25 HO3         3.0200    0.9330    2.8010 ho        1 8GP      0.451000
     26 H4          0.6450    2.1300    1.1190 h1        1 8GP      0.086700
     27 HO4         0.7430    2.0080    3.3360 ho        1 8GP      0.449000
     28 H5         -0.9790   -0.5050    1.6230 h1        1 8GP      0.096700
     29 H61        -2.1360    1.7730    1.9310 h1        1 8GP      0.100700
     30 H62        -1.7260    2.1800    0.1820 h1        1 8GP      0.100700
     31 HO6        -3.6310    0.4140    1.1200 ho        1 8GP      0.456000
     32 HN1         1.1850   -0.3420   -2.4650 hn        1 8GP      0.506300
     33 HN2        -2.7850   -0.5960   -1.2600 hn        1 8GP      0.499300
     34 H9         -3.2660   -2.2300   -3.0310 hx        1 8GP      0.152700
     35 H101       -5.8120   -1.9270   -2.9280 hc        1 8GP      0.126950
     36 H102       -5.6380   -0.1750   -2.4190 hc        1 8GP      0.126950
     37 H111       -4.3490    0.3530   -4.5820 hc        1 8GP      0.126950
     38 H112       -4.5080   -1.3900   -5.1230 hc        1 8GP      0.126950
     39 H12         1.4270   -1.9550   -2.0600 hn        1 8GP      0.506300
     40 H22        -3.2080    0.6700   -2.2640 hn        1 8GP      0.499300
@<TRIPOS>BOND
     1    1    2 1   
     2    1    9 1   
     3    1   12 1   
     4    1   21 1   
     5    2    3 1   
     6    2    4 1   
     7    2   22 1   
     8    3   23 1   
     9    4    5 1   
    10    4    6 1   
    11    4   24 1   
    12    5   25 1   
    13    6    7 1   
    14    6    8 1   
    15    6   26 1   
    16    7   27 1   
    17    8    9 1   
    18    8   10 1   
    19    8   28 1   
    20   10   11 1   
    21   10   29 1   
    22   10   30 1   
    23   11   31 1   
    24   12   13 1   
    25   12   32 1   
    26   12   39 1   
    27   13   14 2   
    28   13   15 1   
    29   15   16 2   
    30   15   17 1   
    31   17   18 1   
    32   17   33 1   
    33   17   40 1   
    34   18   19 1   
    35   18   20 1   
    36   18   34 1   
    37   19   20 1   
    38   19   35 1   
    39   19   36 1   
    40   20   37 1   
    41   20   38 1   
@<TRIPOS>SUBSTRUCTURE
     1 8GP         1 TEMP              0 ****  ****    0 ROOT
