@<TRIPOS>MOLECULE
8H1
   63    67     1     0     0
SMALL
bcc


@<TRIPOS>ATOM
      1 C1         -5.4140    3.7380    0.8240 c3        1 8H1      0.107700
      2 N1         -0.9250   -1.9650   -1.1660 nb        1 8H1     -0.736000
      3 O1         -6.4830    2.8040    0.9300 os        1 8H1     -0.300900
      4 C2         -6.1700    1.4900    0.6570 ca        1 8H1      0.112100
      5 N2         -5.6480   -2.6230   -0.0850 nb        1 8H1     -0.664000
      6 C3         -4.9230    1.0270    0.2840 ca        1 8H1     -0.169000
      7 O3          3.6840    0.2310   -0.3360 os        1 8H1     -0.306900
      8 C4         -4.7100   -0.3450    0.0250 ca        1 8H1     -0.134300
      9 N4          1.0210    2.3610   -1.7690 nb        1 8H1     -0.640000
     10 C5         -3.4200   -0.8630   -0.3670 ca        1 8H1      0.067000
     11 N5          6.4410   -0.7440   -1.1990 n3        1 8H1     -0.893800
     12 C6         -2.2750   -0.0520   -0.5090 ca        1 8H1     -0.283300
     13 C7         -1.0650   -0.6370   -0.9020 cp        1 8H1      0.517800
     14 C8         -2.0110   -2.7690   -1.0200 ca        1 8H1      0.678200
     15 C9         -3.2990   -2.2500   -0.6190 ca        1 8H1     -0.318600
     16 C10        -4.4720   -3.0710   -0.4440 ca        1 8H1      0.448200
     17 C11        -5.7950   -1.2570    0.1510 ca        1 8H1      0.407600
     18 C12        -7.0770   -0.7700    0.5350 ca        1 8H1     -0.235300
     19 C13        -7.2650    0.5750    0.7840 ca        1 8H1      0.126100
     20 C14        -9.5640    0.2640    1.3010 c3        1 8H1      0.107700
     21 C15         0.1230    0.2210   -1.0490 cp        1 8H1     -0.233800
     22 C16         1.3870   -0.2040   -0.6370 ca        1 8H1     -0.081000
     23 C17         2.4680    0.6870   -0.7920 ca        1 8H1      0.008800
     24 C18         2.2400    1.9580   -1.3600 ca        1 8H1      0.325200
     25 C19        -0.0070    1.5130   -1.6170 ca        1 8H1      0.372200
     26 C20         4.8140    1.0480   -0.6680 c3        1 8H1      0.130400
     27 C21         6.0520    0.2440   -0.2170 c3        1 8H1      0.166500
     28 C22         7.1470    1.2640    0.1620 c3        1 8H1     -0.079100
     29 C23         8.3850    0.5910    0.6350 ca        1 8H1     -0.087300
     30 C24         9.3800    0.2150   -0.2760 ca        1 8H1     -0.129500
     31 C25        10.5420   -0.4120    0.1700 ca        1 8H1     -0.125000
     32 C26        10.7210   -0.6700    1.5280 ca        1 8H1     -0.128000
     33 C27         9.7340   -0.2980    2.4410 ca        1 8H1     -0.125000
     34 C28         8.5710    0.3300    1.9980 ca        1 8H1     -0.129500
     35 H1         -5.8970    4.7120    1.0920 h1        1 8H1      0.046700
     36 H1A        -4.5990    3.4910    1.5470 h1        1 8H1      0.046700
     37 H1B        -5.0180    3.7690   -0.2200 h1        1 8H1      0.046700
     38 H3         -4.0840    1.7320    0.1880 ha        1 8H1      0.145000
     39 HN3        -0.9700   -4.4360   -1.5880 hn        1 8H1      0.412800
     40 HN3A       -2.6330   -4.6190   -1.5720 hn        1 8H1      0.412800
     41 HN5A        7.2120   -1.2840   -0.8530 hn        1 8H1      0.351300
     42 H6         -2.3160    1.0250   -0.3060 ha        1 8H1      0.148000
     43 H10        -4.4180   -4.1650   -0.5990 h4        1 8H1      0.019100
     44 H12        -7.9100   -1.4850    0.6300 ha        1 8H1      0.160000
     45 H14       -10.4000    0.9430    1.6080 h1        1 8H1      0.048033
     46 H14A       -9.7970   -0.2350    0.3290 h1        1 8H1      0.048033
     47 H14B       -9.3620   -0.4960    2.0940 h1        1 8H1      0.048033
     48 H16         1.5540   -1.2010   -0.2040 ha        1 8H1      0.173000
     49 H18         3.0550    2.6890   -1.5000 h4        1 8H1      0.024100
     50 H19        -0.9870    1.8740   -1.9760 h4        1 8H1      0.026100
     51 H20         4.8250    1.2640   -1.7670 h1        1 8H1      0.043700
     52 H20A        4.7440    2.0100   -0.0930 h1        1 8H1      0.043700
     53 H21         5.7660   -0.3250    0.7190 h1        1 8H1      0.085700
     54 H22         7.3800    1.9100   -0.7260 hc        1 8H1      0.054200
     55 H22A        6.7480    1.9330    0.9700 hc        1 8H1      0.054200
     56 H24         9.2450    0.4230   -1.3480 ha        1 8H1      0.131000
     57 H25        11.3190   -0.7020   -0.5530 ha        1 8H1      0.133500
     58 H26        11.6390   -1.1640    1.8790 ha        1 8H1      0.134000
     59 H27         9.8730   -0.4990    3.5140 ha        1 8H1      0.133500
     60 H28         7.7950    0.6220    2.7210 ha        1 8H1      0.131000
     61 O2         -8.4590    1.1510    1.1590 os        1 8H1     -0.300900
     62 N3         -1.8410   -4.1450   -1.2010 nh        1 8H1     -0.928500
     63 HN5         6.7100   -0.3070   -2.0590 hn        1 8H1      0.351300
@<TRIPOS>BOND
     1    1    3 1   
     2    1   35 1   
     3    1   36 1   
     4    1   37 1   
     5    2   13 ar  
     6    2   14 ar  
     7    3    4 1   
     8    4    6 ar  
     9    4   19 ar  
    10    5   16 ar  
    11    5   17 ar  
    12    6    8 ar  
    13    6   38 1   
    14    7   23 1   
    15    7   26 1   
    16    8   10 ar  
    17    8   17 ar  
    18    9   24 ar  
    19    9   25 ar  
    20   10   12 ar  
    21   10   15 ar  
    22   11   27 1   
    23   11   41 1   
    24   11   63 1   
    25   12   13 ar  
    26   12   42 1   
    27   13   21 1   
    28   14   15 ar  
    29   14   62 1   
    30   15   16 ar  
    31   16   43 1   
    32   17   18 ar  
    33   18   19 ar  
    34   18   44 1   
    35   19   61 1   
    36   20   45 1   
    37   20   46 1   
    38   20   47 1   
    39   20   61 1   
    40   21   22 ar  
    41   21   25 ar  
    42   22   23 ar  
    43   22   48 1   
    44   23   24 ar  
    45   24   49 1   
    46   25   50 1   
    47   26   27 1   
    48   26   51 1   
    49   26   52 1   
    50   27   28 1   
    51   27   53 1   
    52   28   29 1   
    53   28   54 1   
    54   28   55 1   
    55   29   30 ar  
    56   29   34 ar  
    57   30   31 ar  
    58   30   56 1   
    59   31   32 ar  
    60   31   57 1   
    61   32   33 ar  
    62   32   58 1   
    63   33   34 ar  
    64   33   59 1   
    65   34   60 1   
    66   39   62 1   
    67   40   62 1   
@<TRIPOS>SUBSTRUCTURE
     1 8H1         1 TEMP              0 ****  ****    0 ROOT
