@<TRIPOS>MOLECULE
8H1
   63    57     1     0     0
SMALL
bcc


@<TRIPOS>ATOM
      1 C1          1.4450   -3.8730   -5.7700 c3        1 8H1     -0.077500
      2 N1          1.0200    2.9490   -1.5070 n1        1 8H1     -0.212000
      3 O1          2.2420   -3.6250   -4.6030 os        1 8H1     -0.208000
      4 C2          2.8840   -2.3650   -4.6060 c2        1 8H1      0.055000
      5 N2          4.8180    1.2830   -3.9840 n1        1 8H1     -0.144000
      6 O2          4.7870   -3.3630   -5.5000 os        1 8H1     -0.208000
      7 C3          2.2690   -1.3660   -3.8400 c1        1 8H1     -0.137000
      8 N3          2.6420    4.4940   -1.6480 n3        1 8H1     -0.328000
      9 O3         -2.4870    1.6680    2.1860 os        1 8H1     -0.208000
     10 C4          2.9430   -0.1370   -3.6100 c1        1 8H1     -0.093000
     11 N4         -3.2600    1.7610   -1.4010 n1        1 8H1     -0.111000
     12 C5          2.2960    0.9070   -2.9060 c1        1 8H1      0.073000
     13 N5         -4.3850    1.6550    4.5520 n3        1 8H1     -0.332000
     14 C6          1.0240    0.7050   -2.3580 c1        1 8H1     -0.153500
     15 C7          0.3930    1.7370   -1.6570 c1        1 8H1      0.012000
     16 C8          2.2560    3.1490   -2.0390 c2        1 8H1      0.160000
     17 C9          2.9070    2.0950   -2.7570 c2        1 8H1     -0.195000
     18 C10         4.1920    2.2980   -3.3020 c1        1 8H1     -0.008000
     19 C11         4.1920    0.0660   -4.1370 c1        1 8H1      0.031000
     20 C12         4.8150   -0.9600   -4.9190 c1        1 8H1     -0.137000
     21 C13         4.1570   -2.1550   -5.1420 c2        1 8H1      0.055000
     22 C14         5.4030   -3.3340   -6.7590 c3        1 8H1     -0.077500
     23 C15        -0.8890    1.7450   -1.1110 c1        1 8H1      0.012000
     24 C16        -1.0570    1.6670    0.2530 c1        1 8H1     -0.084000
     25 C17        -2.3150    1.6370    0.7850 c2        1 8H1      0.027000
     26 C18        -3.4270    1.6840   -0.0530 c2        1 8H1     -0.133000
     27 C19        -1.9900    1.7920   -1.9390 c1        1 8H1     -0.153500
     28 C20        -3.3110    0.6170    2.6960 c3        1 8H1     -0.024000
     29 C21        -3.4230    0.7520    4.2430 c3        1 8H1     -0.033000
     30 C22        -3.7910   -0.6160    4.8570 c3        1 8H1     -0.165000
     31 C23        -3.2900   -0.6750    6.3010 c2        1 8H1     -0.078000
     32 C24        -4.1920   -0.5140    7.3650 c2        1 8H1     -0.139000
     33 C25        -3.7550   -0.6630    8.6730 c1        1 8H1     -0.126000
     34 C26        -2.4400   -0.9670    8.9250 c1        1 8H1     -0.128000
     35 C27        -1.5420   -1.1270    7.8650 c1        1 8H1     -0.128000
     36 C28        -1.9800   -0.9780    6.5550 c1        1 8H1     -0.122000
     37 H1          0.4890   -3.5920   -5.5920 h1        1 8H1      0.086667
     38 H1A         1.8070   -3.3510   -6.5360 h1        1 8H1      0.086667
     39 H1B         1.4700   -4.8520   -5.9920 h1        1 8H1      0.086667
     40 H3          1.4600   -1.5710   -3.3450 ha        1 8H1      0.156500
     41 HN3         3.4930    4.7700   -1.7630 hn        1 8H1      0.209000
     42 HN3A        2.0070    5.0820   -1.3350 hn        1 8H1      0.209000
     43 HN5        -5.1870    1.3090    4.3690 hn        1 8H1      0.148000
     44 HN5A       -4.3370    1.8540    5.4280 hn        1 8H1      0.148000
     45 H6          0.5750   -0.1600   -2.4650 ha        1 8H1      0.159500
     46 H10         4.6280    3.1490   -3.2000 ha        1 8H1      0.156000
     47 H12         5.7250   -0.8120   -5.3030 ha        1 8H1      0.156500
     48 H14         6.0540   -2.6010   -6.7880 h1        1 8H1      0.086667
     49 H14A        5.8940   -4.2450   -6.9270 h1        1 8H1      0.086667
     50 H14B        4.7220   -3.1950   -7.4540 h1        1 8H1      0.086667
     51 H16        -0.2560    1.6980    0.8600 ha        1 8H1      0.167000
     52 H18        -4.3420    1.6620    0.3350 h4        1 8H1      0.166000
     53 H19        -1.8730    1.8450   -2.8800 ha        1 8H1      0.159500
     54 H20        -4.2040    0.6770    2.2970 h1        1 8H1      0.090500
     55 H20A       -2.9010   -0.2690    2.4660 h1        1 8H1      0.090500
     56 H21        -2.5560    1.0570    4.6120 h1        1 8H1      0.121000
     57 H22        -3.3810   -1.3140    4.3490 hc        1 8H1      0.100500
     58 H22A       -4.8050   -0.7350    4.8440 hc        1 8H1      0.100500
     59 H24        -5.1620   -0.2900    7.1770 ha        1 8H1      0.127000
     60 H25        -4.3980   -0.5490    9.4340 ha        1 8H1      0.132000
     61 H26        -2.1350   -1.0710    9.8350 ha        1 8H1      0.133000
     62 H27        -0.5830   -1.3490    8.0500 ha        1 8H1      0.133000
     63 H28        -1.3520   -1.0890    5.8130 ha        1 8H1      0.136000
@<TRIPOS>BOND
     1    1    3 1   
     2    1   37 1   
     3    1   38 1   
     4    1   39 1   
     5    2   16 1   
     6    3    4 1   
     7    4    7 1   
     8    4   21 1   
     9    5   19 1   
    10    6   21 1   
    11    6   22 1   
    12    7   40 1   
    13    8   16 1   
    14    8   41 1   
    15    8   42 1   
    16    9   25 1   
    17    9   28 1   
    18   10   12 1   
    19   10   19 1   
    20   11   26 1   
    21   12   17 1   
    22   13   29 1   
    23   13   43 1   
    24   13   44 1   
    25   14   15 1   
    26   14   45 1   
    27   16   17 1   
    28   17   18 1   
    29   18   46 1   
    30   20   21 1   
    31   20   47 1   
    32   22   48 1   
    33   22   49 1   
    34   22   50 1   
    35   23   27 1   
    36   24   25 1   
    37   24   51 1   
    38   25   26 1   
    39   26   52 1   
    40   27   53 1   
    41   28   29 1   
    42   28   54 1   
    43   28   55 1   
    44   29   30 1   
    45   29   56 1   
    46   30   31 1   
    47   30   57 1   
    48   30   58 1   
    49   31   32 1   
    50   31   36 1   
    51   32   33 1   
    52   32   59 1   
    53   33   60 1   
    54   34   35 1   
    55   34   61 1   
    56   35   62 1   
    57   36   63 1   
@<TRIPOS>SUBSTRUCTURE
     1 8H1         1 TEMP              0 ****  ****    0 ROOT
