@<TRIPOS>MOLECULE
8H8
   14    14     1     0     0
SMALL
bcc


@<TRIPOS>ATOM
      1 FAG        -0.0730   -0.0950   -0.0320 f         1 8H8     -0.119900
      2 CAF         1.2770   -0.0330   -0.0150 ca        1 8H8      0.203900
      3 CAI         1.9420    0.0470    1.2190 ca        1 8H8     -0.207000
      4 CAH         3.3420    0.1120    1.2290 ca        1 8H8      0.174100
      5 OAJ         3.9340    0.1890    2.4640 oh        1 8H8     -0.485100
      6 CAE         4.0810    0.0980    0.0340 ca        1 8H8     -0.236000
      7 CAA         3.4110    0.0190   -1.1800 ca        1 8H8     -0.028000
      8 CAB         2.0120   -0.0470   -1.2270 ca        1 8H8     -0.091000
      9 CAC         1.3490   -0.1280   -2.4780 cg        1 8H8      0.237800
     10 NAD         0.8100   -0.1940   -3.5070 n1        1 8H8     -0.351800
     11 H1          1.3760    0.0590    2.1610 ha        1 8H8      0.175000
     12 H2          4.8940    0.2280    2.3380 ho        1 8H8      0.429000
     13 H3          5.1780    0.1500    0.0610 ha        1 8H8      0.147000
     14 H4          3.9830    0.0080   -2.1220 ha        1 8H8      0.153000
@<TRIPOS>BOND
     1    1    2 1   
     2    2    3 ar  
     3    2    8 ar  
     4    3    4 ar  
     5    3   11 1   
     6    4    5 1   
     7    4    6 ar  
     8    5   12 1   
     9    6    7 ar  
    10    6   13 1   
    11    7    8 ar  
    12    7   14 1   
    13    8    9 1   
    14    9   10 3   
@<TRIPOS>SUBSTRUCTURE
     1 8H8         1 TEMP              0 ****  ****    0 ROOT
