@<TRIPOS>MOLECULE
8H8
   14    14     1     0     0
SMALL
bcc


@<TRIPOS>ATOM
      1 FAG        -0.0560   -0.2150   -0.0440 f         1 8H8     -0.119900
      2 CAF         1.2890   -0.0910   -0.0250 ca        1 8H8      0.203900
      3 CAI         1.9520   -0.0280    1.2110 ca        1 8H8     -0.207000
      4 CAH         3.3470    0.1010    1.2240 ca        1 8H8      0.174100
      5 OAJ         3.9380    0.1580    2.4610 oh        1 8H8     -0.485100
      6 CAE         4.0840    0.1670    0.0290 ca        1 8H8     -0.236000
      7 CAA         3.4160    0.1030   -1.1870 ca        1 8H8     -0.028000
      8 CAB         2.0210   -0.0260   -1.2360 ca        1 8H8     -0.091000
      9 CAC         1.3610   -0.0890   -2.4890 cg        1 8H8      0.237800
     10 NAD         0.8230   -0.1400   -3.5200 n1        1 8H8     -0.351800
     11 H1          1.3880   -0.0780    2.1540 ha        1 8H8      0.175000
     12 H2          4.8950    0.2460    2.3360 ho        1 8H8      0.429000
     13 H3          5.1780    0.2680    0.0580 ha        1 8H8      0.147000
     14 H4          3.9870    0.1540   -2.1280 ha        1 8H8      0.153000
@<TRIPOS>BOND
     1    1    2 1   
     2    2    3 ar  
     3    2    8 ar  
     4    3    4 ar  
     5    3   11 1   
     6    4    5 1   
     7    4    6 ar  
     8    5   12 1   
     9    6    7 ar  
    10    6   13 1   
    11    7    8 ar  
    12    7   14 1   
    13    8    9 1   
    14    9   10 3   
@<TRIPOS>SUBSTRUCTURE
     1 8H8         1 TEMP              0 ****  ****    0 ROOT
