@<TRIPOS>MOLECULE
8HC
   20    21     1     0     0
SMALL
bcc


@<TRIPOS>ATOM
      1 O01         0.7880    1.2530    0.4240 o         1 8HC     -0.802300
      2 C02         1.2080    0.1190    0.0850 c         1 8HC      0.825100
      3 O03         0.9930   -0.9730    0.6640 o         1 8HC     -0.802300
      4 C04         2.0330    0.0540   -1.2280 ca        1 8HC      0.403800
      5 N05         3.3500    0.1760   -1.2180 nb        1 8HC     -0.685000
      6 C06         4.0240    0.1080   -2.4250 ca        1 8HC      0.344600
      7 C07         3.3570   -0.0880   -3.6690 ca        1 8HC     -0.132300
      8 C08         4.0960   -0.1500   -4.8760 ca        1 8HC     -0.151000
      9 C09         5.4640   -0.0220   -4.8630 ca        1 8HC     -0.121000
     10 C10         6.1570    0.1720   -3.6520 ca        1 8HC     -0.197000
     11 C11         5.4600    0.2360   -2.4570 ca        1 8HC      0.091800
     12 O12         6.2100    0.4280   -1.3210 oh        1 8HC     -0.519100
     13 C13         1.9350   -0.2150   -3.6390 ca        1 8HC     -0.128000
     14 C14         1.2790   -0.1460   -2.4420 ca        1 8HC     -0.203300
     15 H081        3.5520   -0.3010   -5.8190 ha        1 8HC      0.117000
     16 H091        6.0390   -0.0700   -5.7980 ha        1 8HC      0.113000
     17 H101        7.2500    0.2720   -3.6500 ha        1 8HC      0.132000
     18 H121        5.6150    0.4560   -0.5550 ho        1 8HC      0.453000
     19 H131        1.4000   -0.3660   -4.5870 ha        1 8HC      0.116000
     20 H141        0.1870   -0.2380   -2.3610 ha        1 8HC      0.147000
@<TRIPOS>BOND
     1    1    2 1   
     2    2    3 1   
     3    2    4 1   
     4    4    5 ar  
     5    4   14 ar  
     6    5    6 ar  
     7    6    7 ar  
     8    6   11 ar  
     9    7    8 ar  
    10    7   13 ar  
    11    8    9 ar  
    12    8   15 1   
    13    9   10 ar  
    14    9   16 1   
    15   10   11 ar  
    16   10   17 1   
    17   11   12 1   
    18   12   18 1   
    19   13   14 ar  
    20   13   19 1   
    21   14   20 1   
@<TRIPOS>SUBSTRUCTURE
     1 8HC         1 TEMP              0 ****  ****    0 ROOT
