@<TRIPOS>MOLECULE
8HC
   20    21     1     0     0
SMALL
bcc


@<TRIPOS>ATOM
      1 O01        -3.4940    0.2620    1.2350 o         1 8HC     -0.802300
      2 C02        -2.9480    0.2760    0.1050 c         1 8HC      0.825100
      3 O03        -3.4850    0.5670   -0.9920 o         1 8HC     -0.802300
      4 C04        -1.4640   -0.1740    0.0490 ca        1 8HC      0.403800
      5 N05        -0.4770    0.6980    0.1720 nb        1 8HC     -0.685000
      6 C06         0.8240    0.2300    0.1130 ca        1 8HC      0.344600
      7 C07         1.1370   -1.1480   -0.0750 ca        1 8HC     -0.132300
      8 C08         2.4870   -1.5750   -0.1280 ca        1 8HC     -0.151000
      9 C09         3.5100   -0.6670    0.0000 ca        1 8HC     -0.121000
     10 C10         3.2380    0.7030    0.1860 ca        1 8HC     -0.197000
     11 C11         1.9270    1.1480    0.2420 ca        1 8HC      0.091800
     12 O12         1.7480    2.4980    0.4260 oh        1 8HC     -0.519100
     13 C13         0.0460   -2.0590   -0.2030 ca        1 8HC     -0.128000
     14 C14        -1.2360   -1.5860   -0.1430 ca        1 8HC     -0.203300
     15 H081        2.6960   -2.6440   -0.2730 ha        1 8HC      0.117000
     16 H091        4.5580   -0.9960   -0.0410 ha        1 8HC      0.113000
     17 H101        4.0620    1.4220    0.2880 ha        1 8HC      0.132000
     18 H121        0.7960    2.6860    0.4490 ho        1 8HC      0.453000
     19 H131        0.2640   -3.1260   -0.3480 ha        1 8HC      0.116000
     20 H141       -2.1120   -2.2410   -0.2360 ha        1 8HC      0.147000
@<TRIPOS>BOND
     1    1    2 1   
     2    2    3 1   
     3    2    4 1   
     4    4    5 ar  
     5    4   14 ar  
     6    5    6 ar  
     7    6    7 ar  
     8    6   11 ar  
     9    7    8 ar  
    10    7   13 ar  
    11    8    9 ar  
    12    8   15 1   
    13    9   10 ar  
    14    9   16 1   
    15   10   11 ar  
    16   10   17 1   
    17   11   12 1   
    18   12   18 1   
    19   13   14 ar  
    20   13   19 1   
    21   14   20 1   
@<TRIPOS>SUBSTRUCTURE
     1 8HC         1 TEMP              0 ****  ****    0 ROOT
