@<TRIPOS>MOLECULE
8HC
   20    16     1     0     0
SMALL
bcc


@<TRIPOS>ATOM
      1 O01         0.2340   -2.1350    3.8400 o         1 8HC     -0.537000
      2 C02        -0.6040   -1.5310    3.1210 c1        1 8HC      0.384000
      3 O03        -1.6820   -1.1210    3.6230 o         1 8HC     -0.537000
      4 C04        -0.3250   -1.3180    1.6530 c1        1 8HC     -0.014000
      5 N05         0.0900   -0.0370    1.4230 n2        1 8HC     -0.159000
      6 C06         0.1930    0.4370    0.1260 c1        1 8HC     -0.049000
      7 C07        -0.1230   -0.3830   -0.9340 c1        1 8HC     -0.067000
      8 C08        -0.0260    0.1020   -2.2530 c1        1 8HC     -0.139500
      9 C09         0.3900    1.4090   -2.4850 c1        1 8HC     -0.159000
     10 C10         0.7100    2.2400   -1.4130 c1        1 8HC     -0.159000
     11 C11         0.6140    1.7620   -0.1110 c1        1 8HC      0.112000
     12 O12         0.7530    2.5810    1.0320 oh        1 8HC     -0.273000
     13 C13        -0.5450   -1.6840   -0.7000 c1        1 8HC     -0.139500
     14 C14        -0.6450   -2.1500    0.5820 c1        1 8HC     -0.138000
     15 H081       -0.2500   -0.4800   -3.0050 ha        1 8HC      0.116500
     16 H091        0.4510    1.7480   -3.4010 ha        1 8HC      0.122500
     17 H101        1.0010    3.1570   -1.5760 ha        1 8HC      0.122500
     18 H121        1.6060    2.8180    1.1260 ho        1 8HC      0.252000
     19 H131       -0.9280   -2.3290   -1.3260 ha        1 8HC      0.116500
     20 H141       -0.9120   -3.0860    0.6780 ha        1 8HC      0.147000
@<TRIPOS>BOND
     1    1    2 1   
     2    2    3 1   
     3    4    5 1   
     4    4   14 1   
     5    5    6 1   
     6    6   11 1   
     7    7    8 1   
     8    7   13 1   
     9    8   15 1   
    10    9   10 1   
    11    9   16 1   
    12   10   17 1   
    13   11   12 1   
    14   12   18 1   
    15   13   19 1   
    16   14   20 1   
@<TRIPOS>SUBSTRUCTURE
     1 8HC         1 TEMP              0 ****  ****    0 ROOT
