@<TRIPOS>MOLECULE
8HG
   33    33     1     0     0
SMALL
bcc


@<TRIPOS>ATOM
      1 O6         -4.9220   -1.5900   -0.6100 o         1 8HG     -0.345000
      2 C6         -4.0110   -0.8450   -0.9080 c1        1 8HG      0.382000
      3 N1         -4.1460    0.0240   -1.9930 n2        1 8HG     -0.334000
      4 C2         -3.0860    0.8920   -2.3380 c2        1 8HG      0.242000
      5 N2         -3.2010    1.7310   -3.4640 n3        1 8HG     -0.333000
      6 N3         -1.8670    0.8800   -1.5720 n1        1 8HG     -0.240000
      7 C4         -1.7240   -0.0310   -0.4350 c1        1 8HG      0.141000
      8 C5         -2.7310   -0.8570   -0.1040 c2        1 8HG     -0.240000
      9 N7         -2.4670   -1.6520    0.9750 n         1 8HG     -0.218000
     10 C8         -1.0230   -1.2440    1.3980 c2        1 8HG      0.357000
     11 O20        -0.5250   -1.4180    2.4870 o         1 8HG     -0.354000
     12 N9         -0.6230   -0.1450    0.3750 n         1 8HG     -0.249000
     13 C1'         0.7240    0.2440    0.0340 c3        1 8HG      0.168000
     14 O4'         1.7460   -0.9190    0.4250 os        1 8HG     -0.292000
     15 C2'         1.0670    1.2650    0.7090 c3        1 8HG     -0.219000
     16 C3'         2.5610    1.0890    0.9630 c3        1 8HG      0.009000
     17 O3'         3.2770    1.9590    0.1950 oh        1 8HG     -0.319000
     18 C4'         2.8790   -0.3610    0.5630 c3        1 8HG     -0.017000
     19 C5'         3.6990   -1.0680    1.6910 c3        1 8HG     -0.035000
     20 O5'         4.0660   -2.3680    1.2640 oh        1 8HG     -0.323000
     21 HN1        -4.9140    0.0210   -2.4880 hn        1 8HG      0.253000
     22 HN21       -2.5380    2.3170   -3.6640 hn        1 8HG      0.223500
     23 HN22       -3.9530    1.7000   -3.9800 hn        1 8HG      0.223500
     24 H1'         0.7860    0.4390   -0.9260 h2        1 8HG      0.152000
     25 H2'1        0.5810    1.2910    1.5550 hc        1 8HG      0.121500
     26 H2'2        0.9030    2.0850    0.1950 hc        1 8HG      0.121500
     27 H3'         2.7620    1.2300    1.9120 h1        1 8HG      0.114000
     28 H1          3.7670    2.4820    0.7180 ho        1 8HG      0.206000
     29 H4'         3.3710   -0.3800   -0.2790 h1        1 8HG      0.141000
     30 H5'1        4.5100   -0.5450    1.8850 h1        1 8HG      0.098000
     31 H5'2        3.1530   -1.1330    2.5000 h1        1 8HG      0.098000
     32 H5'         4.7610   -2.6530    1.7430 ho        1 8HG      0.209000
     33 H13        -2.8830   -2.4400    1.1760 hn        1 8HG      0.256000
@<TRIPOS>BOND
     1    1    2 1   
     2    2    8 1   
     3    3    4 1   
     4    3   21 1   
     5    4    5 1   
     6    4    6 1   
     7    5   22 1   
     8    5   23 1   
     9    7    8 1   
    10    7   12 1   
    11    8    9 1   
    12    9   10 1   
    13    9   33 1   
    14   10   11 1   
    15   10   12 1   
    16   12   13 1   
    17   13   14 1   
    18   13   15 1   
    19   13   24 1   
    20   14   18 1   
    21   15   16 1   
    22   15   25 1   
    23   15   26 1   
    24   16   17 1   
    25   16   18 1   
    26   16   27 1   
    27   17   28 1   
    28   18   19 1   
    29   18   29 1   
    30   19   20 1   
    31   19   30 1   
    32   19   31 1   
    33   20   32 1   
@<TRIPOS>SUBSTRUCTURE
     1 8HG         1 TEMP              0 ****  ****    0 ROOT
