@<TRIPOS>MOLECULE
8HG
   34    36     1     0     0
SMALL
bcc


@<TRIPOS>ATOM
      1 O6          0.3410    1.3040   -0.7450 o         1 8HG     -0.535500
      2 C6          1.4680    0.8140   -0.6380 c         1 8HG      0.727700
      3 N1          2.1240    0.8870    0.6230 n         1 8HG     -0.478400
      4 C2          3.4130    0.3620    0.7800 cc        1 8HG      0.461800
      5 N2          4.0530    0.5000    2.1260 n4        1 8HG     -0.787600
      6 N3          4.1540   -0.2550   -0.1460 nd        1 8HG     -0.500300
      7 C4          3.5590   -0.3630   -1.3860 cd        1 8HG      0.165200
      8 C5          2.2540    0.1440   -1.6690 cc        1 8HG     -0.060600
      9 N7          1.9410   -0.1160   -2.9880 n         1 8HG     -0.397100
     10 C8          3.0980   -0.7240   -3.5960 c         1 8HG      0.782500
     11 O20         3.1620   -1.0550   -4.7840 o         1 8HG     -0.564500
     12 N9          4.0760   -0.9830   -2.5570 n         1 8HG     -0.310000
     13 C1'         5.5200   -1.0660   -2.7780 c3        1 8HG      0.300500
     14 O4'         6.1080    0.2370   -2.8340 os        1 8HG     -0.419600
     15 C2'         5.9360   -1.8150   -4.0590 c3        1 8HG     -0.143400
     16 C3'         6.5130   -0.7390   -4.9920 c3        1 8HG      0.125100
     17 O3'         7.8720   -0.9910   -5.2940 oh        1 8HG     -0.586800
     18 C4'         6.4700    0.5740   -4.1820 c3        1 8HG      0.087100
     19 C5'         5.4600    1.5640   -4.7630 c3        1 8HG      0.105400
     20 O5'         5.0330    2.5000   -3.7960 oh        1 8HG     -0.595800
     21 HN1         1.6440    1.3480    1.3670 hn        1 8HG      0.354500
     22 HN21        3.4820    0.0160    2.8300 hn        1 8HG      0.482133
     23 HN22        4.9940    0.0760    2.1040 hn        1 8HG      0.482133
     24 H1'         5.9430   -1.5470   -1.8450 h2        1 8HG      0.107700
     25 H2'1        5.0870   -2.3550   -4.5450 hc        1 8HG      0.095700
     26 H2'2        6.7270   -2.5620   -3.7930 hc        1 8HG      0.095700
     27 H3'         5.9070   -0.6580   -5.9340 h1        1 8HG      0.073700
     28 H1          7.8920   -1.7050   -5.9440 ho        1 8HG      0.419000
     29 H4'         7.4930    1.0360   -4.0990 h1        1 8HG      0.107700
     30 H5'1        4.5180    1.0410   -5.0840 h1        1 8HG      0.064700
     31 H5'2        5.9200    2.0840   -5.6440 h1        1 8HG      0.064700
     32 H5'         5.8210    2.9420   -3.4570 ho        1 8HG      0.407000
     33 H13         1.1940    0.2940   -3.4980 hn        1 8HG      0.385500
     34 H23         4.1390    1.4950    2.3650 hn        1 8HG      0.482133
@<TRIPOS>BOND
     1    1    2 2   
     2    2    3 1   
     3    2    8 1   
     4    3    4 1   
     5    3   21 1   
     6    4    5 1   
     7    4    6 2   
     8    5   22 1   
     9    5   23 1   
    10    5   34 1   
    11    6    7 1   
    12    7    8 2   
    13    7   12 1   
    14    8    9 1   
    15    9   10 1   
    16    9   33 1   
    17   10   11 2   
    18   10   12 1   
    19   12   13 1   
    20   13   14 1   
    21   13   15 1   
    22   13   24 1   
    23   14   18 1   
    24   15   16 1   
    25   15   25 1   
    26   15   26 1   
    27   16   17 1   
    28   16   18 1   
    29   16   27 1   
    30   17   28 1   
    31   18   19 1   
    32   18   29 1   
    33   19   20 1   
    34   19   30 1   
    35   19   31 1   
    36   20   32 1   
@<TRIPOS>SUBSTRUCTURE
     1 8HG         1 TEMP              0 ****  ****    0 ROOT
