@<TRIPOS>MOLECULE
8HG
   34    36     1     0     0
SMALL
bcc


@<TRIPOS>ATOM
      1 O6          0.3030    1.2650   -0.8150 o         1 8HG     -0.535500
      2 C6          1.4330    0.7880   -0.6880 c         1 8HG      0.727700
      3 N1          2.0680    0.8710    0.5830 ns        1 8HG     -0.478400
      4 C2          3.3600    0.3600    0.7620 cc        1 8HG      0.461800
      5 N2          3.9770    0.5080    2.1170 nz        1 8HG     -0.787600
      6 N3          4.1220   -0.2520   -0.1510 nd        1 8HG     -0.500300
      7 C4          3.5470   -0.3690   -1.3990 cd        1 8HG      0.165200
      8 C5          2.2410    0.1230   -1.7040 cc        1 8HG     -0.060600
      9 N7          1.9520   -0.1440   -3.0280 ns        1 8HG     -0.397100
     10 C8          3.1240   -0.7420   -3.6160 c         1 8HG      0.782500
     11 O20         3.2110   -1.0750   -4.8020 o         1 8HG     -0.564500
     12 N9          4.0890   -0.9880   -2.5610 n         1 8HG     -0.310000
     13 C1'         5.5370   -1.0570   -2.7590 c3        1 8HG      0.300500
     14 O4'         6.1120    0.2520   -2.8090 os        1 8HG     -0.419600
     15 C2'         5.9810   -1.8040   -4.0310 c3        1 8HG     -0.143400
     16 C3'         6.5610   -0.7260   -4.9580 c3        1 8HG      0.125100
     17 O3'         7.9270   -0.9630   -5.2380 oh        1 8HG     -0.586800
     18 C4'         6.4920    0.5890   -4.1530 c3        1 8HG      0.087100
     19 C5'         5.4810    1.5670   -4.7520 c3        1 8HG      0.105400
     20 O5'         5.0290    2.5020   -3.7950 oh        1 8HG     -0.595800
     21 HN1         1.5720    1.3290    1.3180 hn        1 8HG      0.354500
     22 HN21        3.4010    0.0210    2.8130 hn        1 8HG      0.482133
     23 HN22        4.0490    1.5050    2.3540 hn        1 8HG      0.482133
     24 H1'         5.9500   -1.5310   -1.8180 h2        1 8HG      0.107700
     25 H2'1        5.1450   -2.3550   -4.5280 hc        1 8HG      0.095700
     26 H2'2        6.7750   -2.5420   -3.7500 hc        1 8HG      0.095700
     27 H3'         5.9690   -0.6530   -5.9100 h1        1 8HG      0.073700
     28 H1          7.9640   -1.6790   -5.8850 ho        1 8HG      0.419000
     29 H4'         7.5080    1.0620   -4.0540 h1        1 8HG      0.107700
     30 H5'1        4.5490    1.0330   -5.0860 h1        1 8HG      0.064700
     31 H5'2        5.9490    2.0900   -5.6280 h1        1 8HG      0.064700
     32 H5'         5.8070    2.9530   -3.4450 ho        1 8HG      0.407000
     33 H13         1.2090    0.2570   -3.5510 hn        1 8HG      0.385500
     34 H23         4.9230    0.0940    2.1110 hn        1 8HG      0.482133
@<TRIPOS>BOND
     1    1    2 2   
     2    2    3 1   
     3    2    8 1   
     4    3    4 1   
     5    3   21 1   
     6    4    5 1   
     7    4    6 2   
     8    5   22 1   
     9    5   23 1   
    10    5   34 1   
    11    6    7 1   
    12    7    8 2   
    13    7   12 1   
    14    8    9 1   
    15    9   10 1   
    16    9   33 1   
    17   10   11 2   
    18   10   12 1   
    19   12   13 1   
    20   13   14 1   
    21   13   15 1   
    22   13   24 1   
    23   14   18 1   
    24   15   16 1   
    25   15   25 1   
    26   15   26 1   
    27   16   17 1   
    28   16   18 1   
    29   16   27 1   
    30   17   28 1   
    31   18   19 1   
    32   18   29 1   
    33   19   20 1   
    34   19   30 1   
    35   19   31 1   
    36   20   32 1   
@<TRIPOS>SUBSTRUCTURE
     1 8HG         1 TEMP              0 ****  ****    0 ROOT
