@<TRIPOS>MOLECULE
8HG
   34    36     1     0     0
SMALL
bcc


@<TRIPOS>ATOM
      1 O6          0.3170    1.3300   -0.8270 o         1 8HG     -0.535500
      2 C6          1.4390    0.8350   -0.6970 c         1 8HG      0.727700
      3 N1          2.0730    0.9090    0.5760 n         1 8HG     -0.478400
      4 C2          3.3560    0.3790    0.7580 cc        1 8HG      0.461800
      5 N2          3.9710    0.5180    2.1150 n4        1 8HG     -0.787600
      6 N3          4.1100   -0.2450   -0.1520 nd        1 8HG     -0.500300
      7 C4          3.5370   -0.3540   -1.4020 cd        1 8HG      0.165200
      8 C5          2.2400    0.1580   -1.7110 cc        1 8HG     -0.060600
      9 N7          1.9500   -0.1060   -3.0350 n         1 8HG     -0.397100
     10 C8          3.1160   -0.7220   -3.6190 c         1 8HG      0.782500
     11 O20         3.2000   -1.0570   -4.8050 o         1 8HG     -0.564500
     12 N9          4.0730   -0.9810   -2.5610 n         1 8HG     -0.310000
     13 C1'         5.5200   -1.0730   -2.7550 c3        1 8HG      0.300500
     14 O4'         6.1160    0.2270   -2.8050 os        1 8HG     -0.419600
     15 C2'         5.9570   -1.8280   -4.0260 c3        1 8HG     -0.143400
     16 C3'         6.5560   -0.7580   -4.9520 c3        1 8HG      0.125100
     17 O3'         7.9190   -1.0170   -5.2280 oh        1 8HG     -0.586800
     18 C4'         6.5050    0.5580   -4.1470 c3        1 8HG      0.087100
     19 C5'         5.5100    1.5510   -4.7500 c3        1 8HG      0.105400
     20 O5'         5.0700    2.4930   -3.7950 oh        1 8HG     -0.595800
     21 HN1         1.5810    1.3750    1.3090 hn        1 8HG      0.354500
     22 HN21        4.0580    1.5140    2.3520 hn        1 8HG      0.482133
     23 HN22        3.3860    0.0400    2.8100 hn        1 8HG      0.482133
     24 H1'         5.9240   -1.5520   -1.8130 h2        1 8HG      0.107700
     25 H2'1        5.1140   -2.3650   -4.5250 hc        1 8HG      0.095700
     26 H2'2        6.7390   -2.5770   -3.7430 hc        1 8HG      0.095700
     27 H3'         5.9680   -0.6770   -5.9050 h1        1 8HG      0.073700
     28 H1          7.9470   -1.7340   -5.8750 ho        1 8HG      0.419000
     29 H4'         7.5270    1.0160   -4.0470 h1        1 8HG      0.107700
     30 H5'1        4.5710    1.0310   -5.0860 h1        1 8HG      0.064700
     31 H5'2        5.9890    2.0660   -5.6250 h1        1 8HG      0.064700
     32 H5'         5.8540    2.9320   -3.4420 ho        1 8HG      0.407000
     33 H13         1.2150    0.3060   -3.5600 hn        1 8HG      0.385500
     34 H23         4.9110    0.0900    2.1120 hn        1 8HG      0.482133
@<TRIPOS>BOND
     1    1    2 2   
     2    2    3 1   
     3    2    8 1   
     4    3    4 1   
     5    3   21 1   
     6    4    5 1   
     7    4    6 2   
     8    5   22 1   
     9    5   23 1   
    10    5   34 1   
    11    6    7 1   
    12    7    8 2   
    13    7   12 1   
    14    8    9 1   
    15    9   10 1   
    16    9   33 1   
    17   10   11 2   
    18   10   12 1   
    19   12   13 1   
    20   13   14 1   
    21   13   15 1   
    22   13   24 1   
    23   14   18 1   
    24   15   16 1   
    25   15   25 1   
    26   15   26 1   
    27   16   17 1   
    28   16   18 1   
    29   16   27 1   
    30   17   28 1   
    31   18   19 1   
    32   18   29 1   
    33   19   20 1   
    34   19   30 1   
    35   19   31 1   
    36   20   32 1   
@<TRIPOS>SUBSTRUCTURE
     1 8HG         1 TEMP              0 ****  ****    0 ROOT
