@<TRIPOS>MOLECULE
8HG
   33    35     1     0     0
SMALL
bcc


@<TRIPOS>ATOM
      1 O6          3.9340   -2.0330    0.8010 o         1 8HG     -0.621500
      2 C6          3.2750   -1.0220    0.5050 c         1 8HG      0.742700
      3 N1          3.8550    0.2540    0.7200 n         1 8HG     -0.494400
      4 C2          3.1750    1.4490    0.4150 cc        1 8HG      0.686800
      5 N2          3.8900    2.6550    0.5460 nh        1 8HG     -0.893800
      6 N3          1.8970    1.5060   -0.0460 nd        1 8HG     -0.666300
      7 C4          1.3040    0.2820   -0.2770 cd        1 8HG      0.283200
      8 C5          1.9340   -0.9670   -0.0240 cc        1 8HG     -0.255600
      9 N7          1.0840   -2.0200   -0.4290 n         1 8HG     -0.374100
     10 C8         -0.1620   -1.4090   -0.7810 c         1 8HG      0.765500
     11 O20        -1.1880   -2.0150   -1.1290 o         1 8HG     -0.624500
     12 N9          0.0180    0.0290   -0.8140 n         1 8HG     -0.352000
     13 C1'        -1.0440    1.0150   -0.8270 c3        1 8HG      0.313500
     14 O4'        -1.6650    1.1360    0.4660 os        1 8HG     -0.423600
     15 C2'        -2.1610    0.7280   -1.8530 c3        1 8HG     -0.139400
     16 C3'        -3.4160    0.4260   -1.0260 c3        1 8HG      0.120100
     17 O3'        -4.4590    1.3420   -1.3160 oh        1 8HG     -0.595800
     18 C4'        -3.0110    0.6480    0.4440 c3        1 8HG      0.099100
     19 C5'        -3.0930   -0.6370    1.2690 c3        1 8HG      0.104400
     20 O5'        -4.4310   -1.0450    1.4580 oh        1 8HG     -0.588800
     21 HN1         4.8040    0.2770    1.0270 hn        1 8HG      0.339500
     22 HN21        4.5520    2.6950    1.2890 hn        1 8HG      0.427300
     23 HN22        3.3480    3.4840    0.4270 hn        1 8HG      0.427300
     24 H1'        -0.5550    2.0200   -1.0070 h2        1 8HG      0.110700
     25 H2'1       -2.3160    1.6400   -2.4810 hc        1 8HG      0.082700
     26 H2'2       -1.9130   -0.1320   -2.5220 hc        1 8HG      0.082700
     27 H3'        -3.7650   -0.6300   -1.1850 h1        1 8HG      0.080700
     28 H1         -4.8350    1.0750   -2.1630 ho        1 8HG      0.407000
     29 H4'        -3.6360    1.4600    0.9100 h1        1 8HG      0.085700
     30 H5'1       -2.6030   -1.4940    0.7280 h1        1 8HG      0.064200
     31 H5'2       -2.5860   -0.4750    2.2580 h1        1 8HG      0.064200
     32 H5'        -4.8920   -0.3260    1.9070 ho        1 8HG      0.399000
     33 H13         1.0970   -2.8910    0.0490 hn        1 8HG      0.341500
@<TRIPOS>BOND
     1    1    2 2   
     2    2    3 1   
     3    2    8 1   
     4    3    4 1   
     5    3   21 1   
     6    4    5 1   
     7    4    6 2   
     8    5   22 1   
     9    5   23 1   
    10    6    7 1   
    11    7    8 2   
    12    7   12 1   
    13    8    9 1   
    14    9   10 1   
    15    9   33 1   
    16   10   11 2   
    17   10   12 1   
    18   12   13 1   
    19   13   14 1   
    20   13   15 1   
    21   13   24 1   
    22   14   18 1   
    23   15   16 1   
    24   15   25 1   
    25   15   26 1   
    26   16   17 1   
    27   16   18 1   
    28   16   27 1   
    29   17   28 1   
    30   18   19 1   
    31   18   29 1   
    32   19   20 1   
    33   19   30 1   
    34   19   31 1   
    35   20   32 1   
@<TRIPOS>SUBSTRUCTURE
     1 8HG         1 TEMP              0 ****  ****    0 ROOT
