@<TRIPOS>MOLECULE
8HI
   80    83     1     0     0
SMALL
bcc


@<TRIPOS>ATOM
      1 N1         -2.7870    0.1990    0.2080 n         1 8HI     -0.464100
      2 C4          1.7240   -3.5370    1.1250 ca        1 8HI     -0.096500
      3 C5          2.4190   -4.7070    1.4110 ca        1 8HI     -0.166500
      4 C6          1.0750   -1.7280   -0.4330 cc        1 8HI     -0.122000
      5 C7          1.6310   -0.5050   -0.8910 cd        1 8HI     -0.042600
      6 C8         -0.6090   -0.2110   -0.7600 cd        1 8HI     -0.194900
      7 C10        -1.3200   -2.5180    0.0870 ca        1 8HI     -0.015000
      8 C13        -3.1880   -4.4380    0.9080 ca        1 8HI     -0.129000
      9 C15        -1.9840   -3.3110   -0.8600 ca        1 8HI     -0.122000
     10 C17        -4.1210    0.5790    0.3370 ca        1 8HI      0.152600
     11 C20        -6.8450    1.2860    0.7200 ca        1 8HI     -0.445500
     12 C21        -6.1170    1.7620   -0.3780 ca        1 8HI      0.013500
     13 C22        -4.7870    1.4260   -0.5810 ca        1 8HI     -0.209000
     14 C28         4.7770    1.5430   -0.5420 c3        1 8HI      0.152100
     15 O5          9.9430    3.6360    1.7340 o         1 8HI     -0.843800
     16 O6          9.1120    4.4880   -0.1560 o         1 8HI     -0.843800
     17 C31         7.5790    3.4100    1.3590 c3        1 8HI     -0.236400
     18 C30         6.7800    2.9270    0.1600 c3        1 8HI      0.171100
     19 O4          6.4510    3.9960   -0.7190 oh        1 8HI     -0.677800
     20 C29         5.4600    2.2910    0.5960 c3        1 8HI     -0.122400
     21 O3          4.1610    2.4290   -1.4720 oh        1 8HI     -0.649800
     22 C27         3.6660    0.6400   -0.0060 c3        1 8HI     -0.082400
     23 C3          1.8060   -2.9420   -0.1430 ca        1 8HI     -0.004000
     24 C2          2.6020   -3.5460   -1.1290 ca        1 8HI     -0.096500
     25 C1          3.3030   -4.7160   -0.8610 ca        1 8HI     -0.166500
     26 C           3.2130   -5.3020    0.4150 ca        1 8HI      0.117900
     27 F           3.8920   -6.4450    0.6840 f         1 8HI     -0.146900
     28 N           0.6000    0.4110   -1.0910 na        1 8HI      0.002900
     29 C23         0.8100    1.7820   -1.5420 c3        1 8HI      0.022000
     30 C25         0.4350    1.9900   -3.0100 c3        1 8HI     -0.110600
     31 C9         -0.3410   -1.5350   -0.3360 cc        1 8HI     -0.066000
     32 C11        -1.5990   -2.6990    1.4500 ca        1 8HI     -0.122000
     33 C12        -2.5290   -3.6550    1.8550 ca        1 8HI     -0.132500
     34 C14        -2.9140   -4.2650   -0.4480 ca        1 8HI     -0.132500
     35 C16        -1.9500    0.4020   -0.8950 c         1 8HI      0.722700
     36 O          -2.3150    1.0290   -1.9040 o         1 8HI     -0.582100
     37 C18        -4.8500    0.1130    1.4660 ca        1 8HI     -0.209000
     38 C19        -6.1760    0.4660    1.6390 ca        1 8HI      0.013500
     39 S          -8.4510    1.7000    0.9410 sy        1 8HI      1.536200
     40 O1         -8.7810    1.5430    2.3080 o         1 8HI     -0.666800
     41 O2         -8.6890    2.9670    0.3600 o         1 8HI     -0.666800
     42 N2         -9.2440    0.5910    0.0910 n3        1 8HI     -1.025700
     43 HN1        -2.4260   -0.3860    0.9350 hn        1 8HI      0.334500
     44 H4          1.0960   -3.0720    1.9000 ha        1 8HI      0.140500
     45 H5          2.3560   -5.1690    2.4060 ha        1 8HI      0.145000
     46 H13        -3.9190   -5.1930    1.2310 ha        1 8HI      0.129000
     47 H15        -1.7640   -3.1790   -1.9300 ha        1 8HI      0.140000
     48 H21        -6.6130    2.4410   -1.0950 ha        1 8HI      0.149500
     49 H22        -4.2570    1.8260   -1.4610 ha        1 8HI      0.160000
     50 H24         0.3640    2.6960    0.4000 hc        1 8HI      0.051700
     51 H24A        0.4350    3.8350   -1.0070 hc        1 8HI      0.051700
     52 H24B       -1.0080    2.7580   -0.7930 hc        1 8HI      0.051700
     53 H26         3.6190   -1.1890   -1.1750 hc        1 8HI      0.071200
     54 H26A        3.2040    0.3090   -2.1040 hc        1 8HI      0.071200
     55 H28         5.5350    0.9200   -1.1000 h1        1 8HI      0.035700
     56 H31         7.6700    2.5890    2.1120 hc        1 8HI      0.037700
     57 H31A        7.0550    4.2740    1.8370 hc        1 8HI      0.037700
     58 H30         7.3930    2.1730   -0.4150 h1        1 8HI      0.029700
     59 HO4         7.2740    4.5020   -0.8620 ho        1 8HI      0.469000
     60 H29         4.7750    3.0910    0.9760 hc        1 8HI      0.051700
     61 H29A        5.6720    1.5770    1.4320 hc        1 8HI      0.051700
     62 HO3         4.7730    3.1650   -1.6150 ho        1 8HI      0.447000
     63 H27         2.8790    1.2830    0.4670 hc        1 8HI      0.050200
     64 H27A        4.0900   -0.0210    0.7930 hc        1 8HI      0.050200
     65 H2          2.6670   -3.0900   -2.1290 ha        1 8HI      0.140500
     66 H1          3.9280   -5.1870   -1.6330 ha        1 8HI      0.145000
     67 H23         1.9300    1.9780   -1.4460 h1        1 8HI      0.118700
     68 H25        -0.6570    1.8300   -3.1770 hc        1 8HI      0.051700
     69 H25A        0.6950    3.0390   -3.2900 hc        1 8HI      0.051700
     70 H25B        1.0090    1.2940   -3.6670 hc        1 8HI      0.051700
     71 H11        -1.0700   -2.0910    2.1990 ha        1 8HI      0.140000
     72 H12        -2.7380   -3.7950    2.9260 ha        1 8HI      0.131000
     73 H14        -3.4290   -4.8840   -1.1970 ha        1 8HI      0.131000
     74 H18        -4.3640   -0.5340    2.2130 ha        1 8HI      0.160000
     75 H19        -6.7220    0.1050    2.5290 ha        1 8HI      0.149500
     76 HN2        -9.5370   -0.2760    0.4620 hn        1 8HI      0.442300
     77 HN2A       -9.4920    0.7060   -0.8580 hn        1 8HI      0.442300
     78 C26         3.0680   -0.2110   -1.1140 c3        1 8HI     -0.029100
     79 C24         0.1000    2.8210   -0.6770 c3        1 8HI     -0.110600
     80 C32         8.9860    3.8760    0.9490 c         1 8HI      0.910600
@<TRIPOS>BOND
     1    1   10 1   
     2    1   35 1   
     3    1   43 1   
     4    2    3 ar  
     5    2   23 ar  
     6    2   44 1   
     7    3   26 ar  
     8    3   45 1   
     9    4    5 2   
    10    4   23 1   
    11    4   31 1   
    12    5   28 1   
    13    5   78 1   
    14    6   28 1   
    15    6   31 2   
    16    6   35 1   
    17    7    9 ar  
    18    7   31 1   
    19    7   32 ar  
    20    8   33 ar  
    21    8   34 ar  
    22    8   46 1   
    23    9   34 ar  
    24    9   47 1   
    25   10   13 ar  
    26   10   37 ar  
    27   11   12 ar  
    28   11   38 ar  
    29   11   39 1   
    30   12   13 ar  
    31   12   48 1   
    32   13   49 1   
    33   14   20 1   
    34   14   21 1   
    35   14   22 1   
    36   14   55 1   
    37   15   80 1   
    38   16   80 1   
    39   17   18 1   
    40   17   56 1   
    41   17   57 1   
    42   17   80 1   
    43   18   19 1   
    44   18   20 1   
    45   18   58 1   
    46   19   59 1   
    47   20   60 1   
    48   20   61 1   
    49   21   62 1   
    50   22   63 1   
    51   22   64 1   
    52   22   78 1   
    53   23   24 ar  
    54   24   25 ar  
    55   24   65 1   
    56   25   26 ar  
    57   25   66 1   
    58   26   27 1   
    59   28   29 1   
    60   29   30 1   
    61   29   67 1   
    62   29   79 1   
    63   30   68 1   
    64   30   69 1   
    65   30   70 1   
    66   32   33 ar  
    67   32   71 1   
    68   33   72 1   
    69   34   73 1   
    70   35   36 2   
    71   37   38 ar  
    72   37   74 1   
    73   38   75 1   
    74   39   40 2   
    75   39   41 2   
    76   39   42 1   
    77   42   76 1   
    78   42   77 1   
    79   50   79 1   
    80   51   79 1   
    81   52   79 1   
    82   53   78 1   
    83   54   78 1   
@<TRIPOS>SUBSTRUCTURE
     1 8HI         1 TEMP              0 ****  ****    0 ROOT
