@<TRIPOS>MOLECULE
8HI
   80    70     1     0     0
SMALL
bcc


@<TRIPOS>ATOM
      1 N1          3.0590   -1.6410    0.3690 n3        1 8HI     -0.318000
      2 C4         -3.2390   -2.2340    0.8570 c1        1 8HI     -0.133000
      3 C5         -4.3130   -3.0360    0.4990 c1        1 8HI     -0.133000
      4 C6         -1.2980   -0.8980    0.2400 c2        1 8HI     -0.122000
      5 C7         -1.2690    0.3890    0.7670 c1        1 8HI     -0.011000
      6 C8          0.8250   -0.3820    0.7180 c1        1 8HI     -0.150000
      7 C10         0.2290   -2.7230   -0.1200 c1        1 8HI     -0.015000
      8 C13         0.6670   -5.3850   -0.7800 c1        1 8HI     -0.133000
      9 C15         0.5900   -3.0680   -1.4130 c1        1 8HI     -0.133000
     10 C17         4.5100   -1.6900    0.4120 c2        1 8HI      0.160000
     11 C20         7.2830   -1.8900    0.4470 c1        1 8HI     -0.890000
     12 C21         6.5420   -2.3180    1.5410 c1        1 8HI      0.014000
     13 C22         5.1560   -2.2180    1.5240 c2        1 8HI     -0.197000
     14 C24         1.5570    2.6220    0.9240 c3        1 8HI     -0.228500
     15 C26        -2.4880    1.3370    0.9240 c2        1 8HI     -0.115000
     16 C28        -3.7800    3.2040   -0.1490 c3        1 8HI      0.041000
     17 O5         -6.7190    7.5670   -2.4380 o         1 8HI     -0.578500
     18 C32        -6.7820    6.3160   -2.5940 c2        1 8HI      0.330000
     19 O6         -7.9040    5.7450   -2.6590 o         1 8HI     -0.578500
     20 C31        -5.5010    5.4930   -2.6750 c3        1 8HI     -0.265000
     21 C30        -5.2070    4.8830   -1.3200 c3        1 8HI      0.060000
     22 O4         -5.0820    5.8990   -0.3710 oh        1 8HI     -0.405000
     23 C29        -3.9050    4.0880   -1.3900 c3        1 8HI     -0.201000
     24 O3         -3.5810    4.0050    0.9730 oh        1 8HI     -0.377000
     25 C27        -2.5910    2.2530   -0.3150 c3        1 8HI     -0.160000
     26 C3         -2.4680   -1.6260   -0.1240 c1        1 8HI     -0.004000
     27 C2         -2.7700   -1.8220   -1.4600 c1        1 8HI     -0.093000
     28 C1         -3.8460   -2.6260   -1.8190 c1        1 8HI     -0.167000
     29 C          -4.6160   -3.2320   -0.8380 c1        1 8HI      0.083000
     30 F          -5.5890   -4.0920   -1.1860 f         1 8HI     -0.112000
     31 N           0.0450    0.7000    1.0610 n2        1 8HI     -0.065000
     32 C23         0.5050    1.9020    1.7690 c2        1 8HI      0.002000
     33 C25         1.1180    1.5000    3.1100 c3        1 8HI     -0.228500
     34 C9         -0.0110   -1.3720    0.2090 c1        1 8HI     -0.066000
     35 C11         0.0860   -3.7120    0.8480 c1        1 8HI     -0.106000
     36 C12         0.3040   -5.0400    0.5200 c1        1 8HI     -0.133000
     37 C14         0.8090   -4.4030   -1.7420 c1        1 8HI     -0.133000
     38 C16         2.3630   -0.4640    0.8330 c1        1 8HI      0.396000
     39 O           2.9910    0.4830    1.2580 o         1 8HI     -0.343000
     40 C18         5.2500   -1.2620   -0.6800 c1        1 8HI     -0.221000
     41 C19         6.6400   -1.3620   -0.6630 c1        1 8HI      0.013000
     42 S           9.0690   -2.0290    0.4650 s4        1 8HI      2.091800
     43 O1          9.6760   -1.0830   -0.4330 o         1 8HI     -0.554400
     44 O2          9.6140   -1.6060    1.7280 o         1 8HI     -0.554400
     45 N2          9.5250   -3.5710    0.1040 n2        1 8HI     -0.952000
     46 HN1         2.5900   -2.3320   -0.0010 hn        1 8HI      0.248000
     47 H4         -3.0020   -2.1280    1.7990 ha        1 8HI      0.135833
     48 H5         -4.8340   -3.4960    1.1920 ha        1 8HI      0.135833
     49 H13         0.8210   -6.3240   -1.0120 ha        1 8HI      0.135833
     50 H15         0.6970   -2.3750   -2.0890 ha        1 8HI      0.135833
     51 H21         6.9960   -2.6900    2.3240 ha        1 8HI      0.149000
     52 H22         4.6350   -2.5200    2.2940 ha        1 8HI      0.180000
     53 H24         1.3990    3.5930    0.9600 hc        1 8HI      0.091000
     54 H24A        1.4950    2.3170   -0.0030 hc        1 8HI      0.091000
     55 H24B        2.4530    2.4220    1.2750 hc        1 8HI      0.091000
     56 H26        -2.3740    1.8860    1.7260 ha        1 8HI      0.110500
     57 H26A       -3.3070    0.8060    1.0050 ha        1 8HI      0.110500
     58 H28        -4.5990    2.6850   -0.0360 h1        1 8HI      0.075000
     59 H31        -5.6130    4.7800   -3.3360 hc        1 8HI      0.077000
     60 H31A       -4.7580    6.0710   -2.9400 hc        1 8HI      0.077000
     61 H30        -5.9380    4.2890   -1.0660 h1        1 8HI      0.069000
     62 HO4        -5.8780    6.0550    0.0050 ho        1 8HI      0.268000
     63 H29        -3.9080    3.5270   -2.1910 hc        1 8HI      0.091000
     64 H29A       -3.1460    4.7070   -1.4280 hc        1 8HI      0.091000
     65 HO3        -4.2730    3.9280    1.5180 ho        1 8HI      0.246000
     66 H27        -2.7210    1.7070   -1.1140 hc        1 8HI      0.089500
     67 H27A       -1.7680    2.7730   -0.4060 hc        1 8HI      0.089500
     68 H2         -2.2290   -1.3940   -2.1500 ha        1 8HI      0.139000
     69 H1         -4.0280   -2.8060   -2.7630 ha        1 8HI      0.144000
     70 H23        -0.2530    2.4990    1.9240 ha        1 8HI      0.158000
     71 H25         0.7000    2.0220    3.8310 hc        1 8HI      0.091000
     72 H25A        2.0850    1.6770    3.0940 hc        1 8HI      0.091000
     73 H25B        0.9630    0.5460    3.2660 hc        1 8HI      0.091000
     74 H11        -0.1670   -3.4700    1.7580 ha        1 8HI      0.144000
     75 H12         0.1430   -5.7380    1.1830 ha        1 8HI      0.135833
     76 H14         1.0630   -4.6450   -2.6540 ha        1 8HI      0.135833
     77 H18         4.7970   -0.8910   -1.4610 ha        1 8HI      0.140000
     78 H19         7.1590   -1.1040   -1.4520 ha        1 8HI      0.150000
     79 HN2         9.6000   -4.1940    0.7710 hn        1 8HI      0.237500
     80 HN2A        9.7520   -3.7910   -0.7540 hn        1 8HI      0.237500
@<TRIPOS>BOND
     1    1   10 1   
     2    1   38 1   
     3    1   46 1   
     4    2    3 1   
     5    2   47 1   
     6    3   48 1   
     7    4    5 1   
     8    4   26 1   
     9    4   34 1   
    10    5   31 1   
    11    6   31 1   
    12    6   34 1   
    13    7   35 1   
    14    8   36 1   
    15    8   49 1   
    16    9   37 1   
    17    9   50 1   
    18   10   13 1   
    19   10   40 1   
    20   11   41 1   
    21   11   42 1   
    22   12   13 1   
    23   12   51 1   
    24   13   52 1   
    25   14   32 1   
    26   14   53 1   
    27   14   54 1   
    28   14   55 1   
    29   15   25 1   
    30   15   56 1   
    31   15   57 1   
    32   16   23 1   
    33   16   24 1   
    34   16   25 1   
    35   16   58 1   
    36   17   18 1   
    37   18   19 1   
    38   18   20 1   
    39   20   21 1   
    40   20   59 1   
    41   20   60 1   
    42   21   22 1   
    43   21   23 1   
    44   21   61 1   
    45   22   62 1   
    46   23   63 1   
    47   23   64 1   
    48   24   65 1   
    49   25   66 1   
    50   25   67 1   
    51   26   27 1   
    52   27   68 1   
    53   28   29 1   
    54   28   69 1   
    55   29   30 1   
    56   32   33 1   
    57   32   70 1   
    58   33   71 1   
    59   33   72 1   
    60   33   73 1   
    61   35   74 1   
    62   36   75 1   
    63   37   76 1   
    64   38   39 1   
    65   40   77 1   
    66   41   78 1   
    67   42   43 1   
    68   42   44 1   
    69   45   79 1   
    70   45   80 1   
@<TRIPOS>SUBSTRUCTURE
     1 8HI         1 TEMP              0 ****  ****    0 ROOT
