@<TRIPOS>MOLECULE
8HQ
   20    21     1     0     0
SMALL
bcc


@<TRIPOS>ATOM
      1 OAB         0.1050    0.4350    0.2160 o         1 8HQ     -0.817300
      2 OAA         1.9190   -0.6080    0.9950 o         1 8HQ     -0.817300
      3 OAC         1.8730   -0.1200   -6.2210 oh        1 8HQ     -0.524100
      4 CAD         3.3010    0.2390   -1.3400 ca        1 8HQ     -0.250300
      5 CAE         3.9530    0.3160   -2.6020 ca        1 8HQ      0.404200
      6 CAF        -0.1130   -0.3770   -5.0000 ca        1 8HQ     -0.176000
      7 CAG        -0.8230   -0.4380   -3.7820 ca        1 8HQ     -0.144000
      8 CAH         1.9370    0.0350   -1.2950 ca        1 8HQ     -0.062600
      9 NAI         3.3390    0.1930   -3.7680 nb        1 8HQ     -0.725000
     10 CAK         1.2530   -0.1700   -4.9880 ca        1 8HQ      0.056800
     11 CAL        -0.1760   -0.3000   -2.5790 ca        1 8HQ     -0.105000
     12 CA0         1.2590   -0.0550    0.0720 c         1 8HQ      0.908200
     13 CAM         1.2290   -0.0960   -2.5300 ca        1 8HQ     -0.098300
     14 CAN         1.9740   -0.0190   -3.7490 ca        1 8HQ      0.328600
     15 HAD         3.8760    0.3200   -0.4070 ha        1 8HQ      0.157000
     16 HAE         5.0440    0.4850   -2.6480 h4        1 8HQ     -0.004900
     17 HAF        -0.6400   -0.4900   -5.9560 ha        1 8HQ      0.128000
     18 HAG        -1.9110   -0.5950   -3.8140 ha        1 8HQ      0.118000
     19 HAL        -0.7220   -0.3230   -1.6170 ha        1 8HQ      0.192000
     20 HOC         2.8180    0.0320   -6.0840 ho        1 8HQ      0.433000
@<TRIPOS>BOND
     1    1   12 1   
     2    2   12 1   
     3    3   10 1   
     4    3   20 1   
     5    4    5 ar  
     6    4    8 ar  
     7    4   15 1   
     8    5    9 ar  
     9    5   16 1   
    10    6    7 ar  
    11    6   10 ar  
    12    6   17 1   
    13    7   11 ar  
    14    7   18 1   
    15    8   12 1   
    16    8   13 ar  
    17    9   14 ar  
    18   10   14 ar  
    19   11   13 ar  
    20   11   19 1   
    21   13   14 ar  
@<TRIPOS>SUBSTRUCTURE
     1 8HQ         1 TEMP              0 ****  ****    0 ROOT
