@<TRIPOS>MOLECULE
8HX
   16    17     1     0     0
SMALL
bcc


@<TRIPOS>ATOM
      1 N1         -0.0240   -0.0180    0.0130 n         1 8HX     -0.590500
      2 C2          1.3750   -0.0640   -0.0550 c         1 8HX      0.822500
      3 O2          1.9790   -0.1270   -1.1460 o         1 8HX     -0.633500
      4 N3          2.1370   -0.0380    1.1390 n         1 8HX     -0.448100
      5 C4          1.4560    0.0330    2.3390 cc        1 8HX     -0.012000
      6 C5          0.0280    0.0800    2.4230 cd        1 8HX      0.212800
      7 C6         -0.7780    0.0540    1.2080 c         1 8HX      0.656000
      8 O6         -2.0120    0.0890    1.1320 o         1 8HX     -0.575500
      9 N7         -0.3830    0.1470    3.7590 nd        1 8HX     -0.624000
     10 C8          0.7800    0.1410    4.4620 cc        1 8HX      0.615800
     11 O8          0.9750    0.1900    5.8200 oh        1 8HX     -0.598300
     12 N9          1.9440    0.0720    3.6500 na        1 8HX     -0.330900
     13 HAC        -0.5100   -0.0390   -0.8600 hn        1 8HX      0.358500
     14 H1          3.1270   -0.0700    1.0750 hn        1 8HX      0.357500
     15 HAA         0.0940    0.2360    6.2320 ho        1 8HX      0.466000
     16 HAB         2.8770    0.0560    3.9630 hn        1 8HX      0.325700
@<TRIPOS>BOND
     1    1    2 1   
     2    1    7 1   
     3    1   13 1   
     4    2    3 2   
     5    2    4 1   
     6    4    5 1   
     7    4   14 1   
     8    5    6 2   
     9    5   12 1   
    10    6    7 1   
    11    6    9 1   
    12    7    8 2   
    13    9   10 2   
    14   10   11 1   
    15   10   12 1   
    16   11   15 1   
    17   12   16 1   
@<TRIPOS>SUBSTRUCTURE
     1 8HX         1 TEMP              0 ****  ****    0 ROOT
