@<TRIPOS>MOLECULE
8I1
   63    67     1     0     0
SMALL
bcc


@<TRIPOS>ATOM
      1 C1         -5.4880    3.7330    0.6410 c3        1 8I1      0.107700
      2 N1         -0.8850   -1.9880   -1.0120 nb        1 8I1     -0.738000
      3 O1         -6.5560    2.7950    0.7200 os        1 8I1     -0.299900
      4 C2         -6.2240    1.4770    0.4900 ca        1 8I1      0.113100
      5 N2         -5.6500   -2.6480   -0.1370 nb        1 8I1     -0.663000
      6 C3         -4.9590    1.0130    0.1860 ca        1 8I1     -0.170000
      7 O3          3.6760    0.2340   -0.0330 os        1 8I1     -0.326900
      8 C4         -4.7280   -0.3630   -0.0330 ca        1 8I1     -0.134300
      9 N4          1.0720    2.3330   -1.6140 nb        1 8I1     -0.638000
     10 C5         -3.4190   -0.8830   -0.3540 ca        1 8I1      0.068000
     11 N5          5.8940   -0.0210    1.7580 n3        1 8I1     -0.894800
     12 C6         -2.2720   -0.0690   -0.4600 ca        1 8I1     -0.282300
     13 C7         -1.0440   -0.6560   -0.7830 cp        1 8I1      0.515800
     14 C8         -1.9730   -2.7950   -0.8990 ca        1 8I1      0.679200
     15 C9         -3.2810   -2.2740   -0.5700 ca        1 8I1     -0.318600
     16 C10        -4.4570   -3.0970   -0.4310 ca        1 8I1      0.447200
     17 C11        -5.8130   -1.2780    0.0630 ca        1 8I1      0.408600
     18 C12        -7.1150   -0.7910    0.3760 ca        1 8I1     -0.235300
     19 C13        -7.3200    0.5580    0.5860 ca        1 8I1      0.127100
     20 C14        -9.6390    0.2460    1.0030 c3        1 8I1      0.107700
     21 C15         0.1470    0.2050   -0.8930 cp        1 8I1     -0.230800
     22 C16         1.3920   -0.2050   -0.4120 ca        1 8I1     -0.083000
     23 C17         2.4760    0.6860   -0.5360 ca        1 8I1      0.005800
     24 C18         2.2720    1.9440   -1.1410 ca        1 8I1      0.329200
     25 C19         0.0410    1.4840   -1.4930 ca        1 8I1      0.374200
     26 C20         4.7940    1.1130   -0.2110 c3        1 8I1      0.078400
     27 C21         6.0190    0.3640    0.3690 c3        1 8I1      0.172500
     28 C22         7.2470    1.2570    0.1090 c3        1 8I1     -0.030100
     29 C23         8.5220    0.5020    0.2330 ca        1 8I1     -0.077300
     30 C24         9.1710    0.0250   -0.9130 ca        1 8I1     -0.116000
     31 C25        10.3740   -0.6690   -0.8020 ca        1 8I1     -0.132000
     32 C26        10.9400   -0.8930    0.4530 ca        1 8I1     -0.129000
     33 C27        10.2980   -0.4210    1.5970 ca        1 8I1     -0.132000
     34 C28         9.0940    0.2740    1.4890 ca        1 8I1     -0.116000
     35 H1         -5.9880    4.7100    0.8640 h1        1 8I1      0.047033
     36 H1A        -4.7050    3.5070    1.4060 h1        1 8I1      0.047033
     37 H1B        -5.0450    3.7420   -0.3840 h1        1 8I1      0.047033
     38 H3         -4.1200    1.7200    0.1130 ha        1 8I1      0.145000
     39 HN3        -0.9010   -4.4680   -1.3870 hn        1 8I1      0.413800
     40 HN3A       -2.5630   -4.6610   -1.4320 hn        1 8I1      0.413800
     41 HN5A        5.1150   -0.6410    1.8700 hn        1 8I1      0.354300
     42 H6         -2.3280    1.0120   -0.2830 ha        1 8I1      0.148000
     43 H10        -4.3910   -4.1940   -0.5600 h4        1 8I1      0.019100
     44 H12        -7.9470   -1.5080    0.4480 ha        1 8I1      0.161000
     45 H14       -10.4910    0.9280    1.2560 h1        1 8I1      0.048367
     46 H14A       -9.8250   -0.2740    0.0330 h1        1 8I1      0.048367
     47 H14B       -9.4700   -0.4950    1.8210 h1        1 8I1      0.048367
     48 H16         1.5390   -1.1930    0.0500 ha        1 8I1      0.171000
     49 H18         3.0910    2.6740   -1.2600 h4        1 8I1      0.027100
     50 H19        -0.9230    1.8340   -1.9050 h4        1 8I1      0.028100
     51 H20         4.9420    1.3170   -1.3020 h1        1 8I1      0.044700
     52 H20A        4.6070    2.0730    0.3360 h1        1 8I1      0.044700
     53 H21         6.1390   -0.5920   -0.2240 h1        1 8I1      0.081700
     54 H22         7.1590    1.6790   -0.9280 hc        1 8I1      0.049200
     55 H22A        7.2470    2.1230    0.8240 hc        1 8I1      0.049200
     56 H24         8.7290    0.1980   -1.9050 ha        1 8I1      0.132500
     57 H25        10.8770   -1.0400   -1.7070 ha        1 8I1      0.130000
     58 H26        11.8890   -1.4410    0.5390 ha        1 8I1      0.130000
     59 H27        10.7390   -0.6000    2.5880 ha        1 8I1      0.130000
     60 H28         8.5830    0.6340    2.3940 ha        1 8I1      0.132500
     61 O2         -8.5320    1.1360    0.8930 os        1 8I1     -0.300900
     62 N3         -1.7890   -4.1730   -1.0440 nh        1 8I1     -0.929500
     63 HN5         5.7620    0.7810    2.3410 hn        1 8I1      0.354300
@<TRIPOS>BOND
     1    1    3 1   
     2    1   35 1   
     3    1   36 1   
     4    1   37 1   
     5    2   13 ar  
     6    2   14 ar  
     7    3    4 1   
     8    4    6 ar  
     9    4   19 ar  
    10    5   16 ar  
    11    5   17 ar  
    12    6    8 ar  
    13    6   38 1   
    14    7   23 1   
    15    7   26 1   
    16    8   10 ar  
    17    8   17 ar  
    18    9   24 ar  
    19    9   25 ar  
    20   10   12 ar  
    21   10   15 ar  
    22   11   27 1   
    23   11   41 1   
    24   11   63 1   
    25   12   13 ar  
    26   12   42 1   
    27   13   21 1   
    28   14   15 ar  
    29   14   62 1   
    30   15   16 ar  
    31   16   43 1   
    32   17   18 ar  
    33   18   19 ar  
    34   18   44 1   
    35   19   61 1   
    36   20   45 1   
    37   20   46 1   
    38   20   47 1   
    39   20   61 1   
    40   21   22 ar  
    41   21   25 ar  
    42   22   23 ar  
    43   22   48 1   
    44   23   24 ar  
    45   24   49 1   
    46   25   50 1   
    47   26   27 1   
    48   26   51 1   
    49   26   52 1   
    50   27   28 1   
    51   27   53 1   
    52   28   29 1   
    53   28   54 1   
    54   28   55 1   
    55   29   30 ar  
    56   29   34 ar  
    57   30   31 ar  
    58   30   56 1   
    59   31   32 ar  
    60   31   57 1   
    61   32   33 ar  
    62   32   58 1   
    63   33   34 ar  
    64   33   59 1   
    65   34   60 1   
    66   39   62 1   
    67   40   62 1   
@<TRIPOS>SUBSTRUCTURE
     1 8I1         1 TEMP              0 ****  ****    0 ROOT
