@<TRIPOS>MOLECULE
8I1
   63    57     1     0     0
SMALL
bcc


@<TRIPOS>ATOM
      1 C1          1.9200   -5.0380   -5.4460 c3        1 8I1     -0.077500
      2 N1          1.4660    1.8480   -1.4800 n1        1 8I1     -0.212000
      3 O1          2.8160   -4.9090   -4.3330 os        1 8I1     -0.208000
      4 C2          3.4030   -3.6330   -4.2170 c2        1 8I1      0.055500
      5 N2          5.4300   -0.0490   -3.4470 n1        1 8I1     -0.143000
      6 O2          5.2140   -4.8170   -4.7450 os        1 8I1     -0.208000
      7 C3          2.7510   -2.5820   -3.5530 c1        1 8I1     -0.137000
      8 N3          3.3480    3.2400   -1.5020 n3        1 8I1     -0.327000
      9 O3         -2.3810    0.5560    1.9410 os        1 8I1     -0.210000
     10 C4          3.4570   -1.3760   -3.2650 c1        1 8I1     -0.093000
     11 N4         -2.8630    0.5270   -1.6930 n1        1 8I1     -0.111000
     12 C5          2.7850   -0.2880   -2.6880 c1        1 8I1      0.073000
     13 N5         -4.2300    0.1850    4.2590 n3        1 8I1     -0.327000
     14 C6          1.4600   -0.4170   -2.2730 c1        1 8I1     -0.153500
     15 C7          0.8060    0.6680   -1.6650 c1        1 8I1      0.011500
     16 C8          2.7570    1.9780   -1.8830 c2        1 8I1      0.160000
     17 C9          3.4310    0.8730   -2.5040 c2        1 8I1     -0.194000
     18 C10         4.7830    0.9990   -2.8910 c1        1 8I1     -0.008000
     19 C11         4.7710   -1.2470   -3.6390 c1        1 8I1      0.031000
     20 C12         5.4330   -2.3260   -4.3190 c1        1 8I1     -0.137000
     21 C13         4.7470   -3.4970   -4.5980 c2        1 8I1      0.055500
     22 C14         6.1210   -4.9890   -5.8060 c3        1 8I1     -0.077500
     23 C15        -0.5150    0.6730   -1.2240 c1        1 8I1      0.011500
     24 C16        -0.7880    0.6610    0.1180 c1        1 8I1     -0.082000
     25 C17        -2.0960    0.5820    0.5530 c2        1 8I1      0.025000
     26 C18        -3.1340    0.5150   -0.3720 c2        1 8I1     -0.135000
     27 C19        -1.5440    0.6060   -2.1350 c1        1 8I1     -0.153500
     28 C20        -3.5340    1.4140    2.3400 c3        1 8I1     -0.072000
     29 C21        -3.6670    1.4080    3.8430 c3        1 8I1     -0.025000
     30 C22        -4.5820    2.5860    4.2950 c3        1 8I1     -0.116000
     31 C23        -4.5370    2.7050    5.8220 c2        1 8I1     -0.070000
     32 C24        -3.4770    3.4130    6.4440 c2        1 8I1     -0.129000
     33 C25        -3.4380    3.5320    7.8200 c1        1 8I1     -0.132000
     34 C26        -4.4290    2.9620    8.5900 c1        1 8I1     -0.130500
     35 C27        -5.4820    2.2600    7.9760 c1        1 8I1     -0.130500
     36 C28        -5.5210    2.1400    6.5830 c1        1 8I1     -0.103000
     37 H1          0.9990   -4.7330   -5.1720 h1        1 8I1      0.086667
     38 H1A         2.2460   -4.4770   -6.1990 h1        1 8I1      0.086667
     39 H1B         1.8810   -5.9950   -5.7350 h1        1 8I1      0.086667
     40 H3          1.8840   -2.7280   -3.1720 ha        1 8I1      0.156500
     41 HN3         2.9130    3.7890   -0.9220 hn        1 8I1      0.208500
     42 HN3A        4.1530    3.5080   -1.8780 hn        1 8I1      0.208500
     43 HN5        -3.5400   -0.4250    4.4640 hn        1 8I1      0.149500
     44 HN5A       -4.7650   -0.1700    3.5640 hn        1 8I1      0.149500
     45 H6          0.9840   -1.2630   -2.4050 ha        1 8I1      0.159500
     46 H10         5.2470    1.8460   -2.7690 ha        1 8I1      0.156000
     47 H12         6.3790   -2.2340   -4.5890 ha        1 8I1      0.156500
     48 H14         6.9800   -4.5710   -5.5740 h1        1 8I1      0.086667
     49 H14A        6.2610   -5.9960   -5.9750 h1        1 8I1      0.086667
     50 H14B        5.7560   -4.5640   -6.6250 h1        1 8I1      0.086667
     51 H16        -0.0370    0.6290    0.7810 ha        1 8I1      0.171000
     52 H18        -4.0550    0.4590   -0.0660 h4        1 8I1      0.164000
     53 H19        -1.3510    0.6160   -3.0820 ha        1 8I1      0.159500
     54 H20        -3.3810    2.3460    2.0240 h1        1 8I1      0.084000
     55 H20A       -4.3560    1.0630    1.9390 h1        1 8I1      0.084000
     56 H21        -2.7810    1.5120    4.2470 h1        1 8I1      0.121000
     57 H22        -4.2630    3.4150    3.8950 hc        1 8I1      0.088500
     58 H22A       -5.5370    2.4110    3.9950 hc        1 8I1      0.088500
     59 H24        -2.7740    3.8160    5.9000 ha        1 8I1      0.127000
     60 H25        -2.6840    4.0340    8.2590 ha        1 8I1      0.129000
     61 H26        -4.4010    3.0450    9.5350 ha        1 8I1      0.130500
     62 H27        -6.1710    1.8630    8.5100 ha        1 8I1      0.130500
     63 H28        -6.2680    1.6410    6.1460 ha        1 8I1      0.138000
@<TRIPOS>BOND
     1    1    3 1   
     2    1   37 1   
     3    1   38 1   
     4    1   39 1   
     5    2   16 1   
     6    3    4 1   
     7    4    7 1   
     8    4   21 1   
     9    5   19 1   
    10    6   21 1   
    11    6   22 1   
    12    7   40 1   
    13    8   16 1   
    14    8   41 1   
    15    8   42 1   
    16    9   25 1   
    17    9   28 1   
    18   10   12 1   
    19   10   19 1   
    20   11   26 1   
    21   12   17 1   
    22   13   29 1   
    23   13   43 1   
    24   13   44 1   
    25   14   15 1   
    26   14   45 1   
    27   16   17 1   
    28   17   18 1   
    29   18   46 1   
    30   20   21 1   
    31   20   47 1   
    32   22   48 1   
    33   22   49 1   
    34   22   50 1   
    35   23   27 1   
    36   24   25 1   
    37   24   51 1   
    38   25   26 1   
    39   26   52 1   
    40   27   53 1   
    41   28   29 1   
    42   28   54 1   
    43   28   55 1   
    44   29   30 1   
    45   29   56 1   
    46   30   31 1   
    47   30   57 1   
    48   30   58 1   
    49   31   32 1   
    50   31   36 1   
    51   32   33 1   
    52   32   59 1   
    53   33   60 1   
    54   34   35 1   
    55   34   61 1   
    56   35   62 1   
    57   36   63 1   
@<TRIPOS>SUBSTRUCTURE
     1 8I1         1 TEMP              0 ****  ****    0 ROOT
