@<TRIPOS>MOLECULE
8I1
   65    64     1     0     0
SMALL
bcc


@<TRIPOS>ATOM
      1 C1        346.3850  -14.4930 -169.5310 c3        1 8I1     -0.090000
      2 N1        339.4610  -15.0560 -166.1260 n2        1 8I1     -0.116000
      3 O1        346.6800  -15.6860 -168.7850 os        1 8I1     -0.147000
      4 C2        345.6690  -16.2300 -168.0890 ca        1 8I1      0.207000
      5 N2        342.8820  -18.5760 -165.8450 n2        1 8I1     -0.072000
      6 C3        344.3550  -15.8160 -167.9760 ca        1 8I1     -0.285000
      7 O3       -406.5940   19.6200  210.9550 os        1 8I1     -0.085000
      8 C4        343.3870  -16.5420 -167.1750 ca        1 8I1      0.077000
      9 N4       -408.6840   15.1050  208.6090 n2        1 8I1     -0.331000
     10 C5        342.1190  -16.0380 -166.8770 c2        1 8I1     -0.064000
     11 N5       -404.2910   19.8020  209.3860 n4        1 8I1     -0.122000
     12 C6        341.6120  -14.8260 -167.4250 cx        1 8I1     -0.030000
     13 C7        340.1400  -14.4540 -167.2360 cx        1 8I1     -0.095000
     14 C8        339.9970  -16.1170 -165.6010 c2        1 8I1      0.021000
     15 C9        341.2670  -16.7690 -165.9770 c2        1 8I1     -0.144000
     16 C10       341.6930  -18.0060 -165.5010 c2        1 8I1     -0.070000
     17 C11       343.6870  -17.8890 -166.6410 ca        1 8I1      0.070000
     18 C12       344.9280  -18.3130 -167.3010 ca        1 8I1     -0.235000
     19 C13       345.9180  -17.3630 -167.1720 ca        1 8I1     -0.007000
     20 C14       346.7990  -17.8010 -165.0150 c1        1 8I1      0.032000
     21 C15       340.8920  -13.1140 -167.1320 cx        1 8I1     -0.078000
     22 C16      -408.6090   19.3070  212.4500 c1        1 8I1     -0.134000
     23 C17      -407.6740   19.4080  211.7160 c1        1 8I1     -0.114000
     24 C18      -408.0210   16.0360  208.8780 c1        1 8I1      0.043000
     25 C19       342.1080  -13.5130 -167.7650 c1        1 8I1     -0.054000
     26 C20      -406.3910   18.6550  209.9660 c2        1 8I1      0.025000
     27 C21      -405.2700   18.7490  209.2090 c2        1 8I1     -0.191000
     28 C22      -404.9990   17.7270  208.1440 c3        1 8I1     -0.104000
     29 C23      -404.7480   18.3500  206.8210 c2        1 8I1     -0.168000
     30 C24      -405.8600   23.4030  209.2480 c2        1 8I1     -0.396000
     31 C25      -405.3340   22.2330  209.2660 c1        1 8I1      0.080000
     32 C26      -401.2500   18.2460  207.5120 c1        1 8I1     -0.151000
     33 C27      -402.3170   18.4340  206.9990 c1        1 8I1     -0.195000
     34 C28      -403.5340   18.6460  206.3310 c2        1 8I1     -0.053000
     35 H1        347.3670  -14.2530 -170.0130 h1        1 8I1      0.111667
     36 H1A       345.5980  -14.7050 -170.2940 h1        1 8I1      0.111667
     37 H1B       346.0630  -13.6790 -168.8370 h1        1 8I1      0.111667
     38 H3        344.0170  -14.8710 -168.4400 ha        1 8I1      0.205000
     39 HN3       339.9030  -16.8410 -163.6720 hn        1 8I1      0.270667
     40 HN3A      338.9430  -17.6800 -164.7630 hn        1 8I1      0.270667
     41 H6        339.4620  -14.5240 -168.1290 h1        1 8I1      0.190000
     42 H10       341.0970  -18.6390 -164.8190 h4        1 8I1      0.153000
     43 H12       344.8020  -18.9090 -168.2190 ha        1 8I1      0.191000
     44 H14       345.3870  -17.4360 -163.1460 ha        1 8I1      0.002750
     45 H14A      344.8940  -17.6820 -163.5430 ha        1 8I1      0.002750
     46 H14B      346.5900  -18.8870 -165.1030 ha        1 8I1      0.063000
     47 H16      -409.4380   19.2240  213.1090 ha        1 8I1      0.261000
     48 H18      -409.2310   14.3340  208.3890 hn        1 8I1      0.296000
     49 H19       340.6070  -12.2500 -166.5380 hc        1 8I1      0.191000
     50 H20      -405.7850   15.8630  210.0430 ha        1 8I1      0.002750
     51 H20A     -405.5820   15.2960  210.3530 ha        1 8I1      0.002750
     52 H21      -407.1460   17.8520  209.8410 h4        1 8I1      0.234000
     53 H22      -405.8890   17.0360  208.0730 hc        1 8I1      0.132000
     54 H22A     -404.1180   17.0990  208.4590 hc        1 8I1      0.132000
     55 H24      -405.6470   18.5470  206.2130 ha        1 8I1      0.148000
     56 H25      -406.7090   23.7140  209.8940 ha        1 8I1      0.249000
     57 H26      -405.5320   24.2360  208.5910 ha        1 8I1      0.249000
     58 H27      -400.2980   18.0750  207.9550 ha        1 8I1      0.241000
     59 H28      -403.4330   19.0760  205.3140 ha        1 8I1      0.161000
     60 O2        346.5080  -16.9780 -165.9510 os        1 8I1     -0.029000
     61 N3        339.2600  -16.7490 -164.4670 n4        1 8I1     -0.039000
     62 HN5      -404.7850   20.8490  209.3130 hn        1 8I1      0.264000
     63 H52      -403.5680   19.7150  208.6700 hn        1 8I1      0.264000
     64 H33       338.4440  -16.1870 -164.1850 hn        1 8I1      0.270667
     65 HN5A     -403.8630   19.7120  210.3050 hn        1 8I1      0.264000
@<TRIPOS>BOND
     1    1    3 1   
     2    1   35 1   
     3    1   36 1   
     4    1   37 1   
     5    2   13 1   
     6    2   14 1   
     7    3    4 1   
     8    4    6 1   
     9    4   19 1   
    10    5   16 1   
    11    5   17 1   
    12    6    8 1   
    13    6   38 1   
    14    7   23 1   
    15    7   26 1   
    16    8   10 1   
    17    8   17 1   
    18    9   24 1   
    19    9   48 1   
    20   10   12 1   
    21   10   15 1   
    22   11   27 1   
    23   11   62 1   
    24   11   63 1   
    25   11   65 1   
    26   12   13 1   
    27   12   21 1   
    28   12   25 1   
    29   13   21 1   
    30   13   41 1   
    31   14   15 1   
    32   14   61 1   
    33   15   16 1   
    34   16   42 1   
    35   17   18 1   
    36   18   19 1   
    37   18   43 1   
    38   19   60 1   
    39   20   46 1   
    40   20   60 1   
    41   21   25 1   
    42   21   49 1   
    43   22   23 1   
    44   22   47 1   
    45   26   27 1   
    46   26   52 1   
    47   27   28 1   
    48   28   29 1   
    49   28   53 1   
    50   28   54 1   
    51   29   34 1   
    52   29   55 1   
    53   30   31 1   
    54   30   56 1   
    55   30   57 1   
    56   32   33 1   
    57   32   58 1   
    58   33   34 1   
    59   34   59 1   
    60   39   61 1   
    61   40   61 1   
    62   44   45 1   
    63   50   51 1   
    64   61   64 1   
@<TRIPOS>SUBSTRUCTURE
     1 8I1         1 TEMP              0 ****  ****    0 ROOT
