@<TRIPOS>MOLECULE
8IG
   17    18     1     0     0
SMALL
bcc


@<TRIPOS>ATOM
      1 I           0.0590   -0.2040   -0.0770 i         1 8IG     -0.022800
      2 O6          5.5420    0.1990   -2.7420 o         1 8IG     -0.495500
      3 C8          2.0590   -0.0950   -0.0900 cc        1 8IG      0.516300
      4 N9          2.8300   -0.1000    1.0830 na        1 8IG     -0.244900
      5 N1          6.5390    0.1720   -0.6970 n         1 8IG     -0.503400
      6 C2          6.4340    0.1100    0.6940 cc        1 8IG      0.514800
      7 N3          5.3220    0.0210    1.4250 nd        1 8IG     -0.529100
      8 C4          4.1600   -0.0120    0.6700 cd        1 8IG      0.017800
      9 C5          4.1220    0.0440   -0.7750 cd        1 8IG      0.282800
     10 C6          5.3650    0.1410   -1.5280 c         1 8IG      0.649000
     11 N7          2.8140   -0.0090   -1.2190 nd        1 8IG     -0.537000
     12 HN9         2.5060   -0.1550    2.0190 hn        1 8IG      0.346700
     13 HN21        7.5030    0.0960    2.4890 hn        1 8IG      0.484133
     14 HN22        8.3000   -0.6520    1.2170 hn        1 8IG      0.484133
     15 HN11        7.4220    0.2380   -1.1580 hn        1 8IG      0.352500
     16 N2          7.7130    0.1480    1.4800 n4        1 8IG     -0.798600
     17 H23         8.2090    1.0270    1.2850 hn        1 8IG      0.484133
@<TRIPOS>BOND
     1    1    3 1   
     2    2   10 2   
     3    3    4 1   
     4    3   11 2   
     5    4    8 1   
     6    4   12 1   
     7    5    6 1   
     8    5   10 1   
     9    5   15 1   
    10    6    7 2   
    11    6   16 1   
    12    7    8 1   
    13    8    9 2   
    14    9   10 1   
    15    9   11 1   
    16   13   16 1   
    17   14   16 1   
    18   16   17 1   
@<TRIPOS>SUBSTRUCTURE
     1 8IG         1 TEMP              0 ****  ****    0 ROOT
