@<TRIPOS>MOLECULE
8IG
   17    18     1     0     0
SMALL
bcc


@<TRIPOS>ATOM
      1 I           0.2750    1.2450   -0.0810 i         1 8IG      0.063800
      2 O6          5.6050   -0.3870   -2.6260 o         1 8IG     -0.458500
      3 C8          2.1110    0.4440    0.0580 ce        1 8IG      0.580200
      4 N9          2.6200   -0.1130    1.1340 n2        1 8IG     -0.468900
      5 N1          6.4730   -0.1610   -0.5240 n         1 8IG     -0.542400
      6 C2          6.2310   -0.1190    0.8620 c2        1 8IG      0.548800
      7 N3          5.1100   -0.3100    1.5080 n2        1 8IG     -0.531900
      8 C4          3.9470   -0.6580    0.7190 c3        1 8IG      0.181400
      9 C5          4.0620   -0.1350   -0.7650 cf        1 8IG      0.283300
     10 C6          5.3750   -0.2480   -1.4310 c         1 8IG      0.660200
     11 N7          2.9740    0.4820   -1.1320 ne        1 8IG     -0.487000
     12 HN9         3.8390   -1.7920    0.7460 h2        1 8IG      0.162700
     13 HN21        7.1360    0.2290    2.7200 hn        1 8IG      0.486467
     14 HN22        8.1440   -0.5220    1.6090 hn        1 8IG      0.486467
     15 HN11        7.3940   -0.2470   -0.8980 hn        1 8IG      0.356500
     16 N2          7.4250    0.2000    1.7290 n4        1 8IG     -0.808600
     17 H23         7.8010    1.1190    1.4620 hn        1 8IG      0.486467
@<TRIPOS>BOND
     1    1    3 1   
     2    2   10 2   
     3    3    4 2   
     4    3   11 1   
     5    4    8 1   
     6    5    6 1   
     7    5   10 1   
     8    5   15 1   
     9    6    7 2   
    10    6   16 1   
    11    7    8 1   
    12    8    9 1   
    13    8   12 1   
    14    9   10 1   
    15    9   11 2   
    16   13   16 1   
    17   14   16 1   
    18   16   17 1   
@<TRIPOS>SUBSTRUCTURE
     1 8IG         1 TEMP              0 ****  ****    0 ROOT
