@<TRIPOS>MOLECULE
8IG
   16    14     1     0     0
SMALL
bcc


@<TRIPOS>ATOM
      1 I          -4.9440   -0.0020    0.8360 i         1 8IG      0.251000
      2 O6         -0.4850    0.0460   -2.7680 o         1 8IG     -0.314000
      3 C8         -2.8370   -0.0020    0.8360 c2        1 8IG     -0.255000
      4 N9         -1.7270   -0.0020    1.6170 n2        1 8IG     -0.094000
      5 N2          3.1290   -0.0010    0.2760 n3        1 8IG     -0.335000
      6 N1          1.2790   -0.0020   -1.3470 n3        1 8IG     -0.351000
      7 C2          1.7370   -0.0020    0.0000 c2        1 8IG      0.249000
      8 N3          0.7870   -0.0020    1.0850 n1        1 8IG     -0.252000
      9 C4         -0.6440   -0.0020    0.8050 c1        1 8IG     -0.086500
     10 C5         -1.0850   -0.0020   -0.4840 c1        1 8IG     -0.086500
     11 C6         -0.0930   -0.0020   -1.6190 c1        1 8IG      0.401000
     12 N7         -2.4380   -0.0020   -0.4620 n2        1 8IG     -0.094000
     13 HN9        -1.7130   -0.0030    2.5290 DU        1 8IG      0.275000
     14 HN21        3.4230   -0.0060    1.1390 hn        1 8IG      0.221500
     15 HN22        3.7300    0.0030   -0.4100 hn        1 8IG      0.221500
     16 HN11        1.8800   -0.0180   -2.0330 hn        1 8IG      0.250000
@<TRIPOS>BOND
     1    1    3 1   
     2    2   11 1   
     3    3    4 1   
     4    3   12 1   
     5    4    9 1   
     6    5    7 1   
     7    5   14 1   
     8    5   15 1   
     9    6    7 1   
    10    6   11 1   
    11    6   16 1   
    12    7    8 1   
    13    9   10 1   
    14   10   12 1   
@<TRIPOS>SUBSTRUCTURE
     1 8IG         1 TEMP              0 ****  ****    0 ROOT
