@<TRIPOS>MOLECULE
8IG
   17    18     1     0     0
SMALL
bcc


@<TRIPOS>ATOM
      1 I           0.2430    1.1020   -0.1440 i         1 8IG      0.063800
      2 O6          5.6260   -0.4760   -2.6110 o         1 8IG     -0.458500
      3 C8          2.1000    0.3550    0.0290 ce        1 8IG      0.580200
      4 N9          2.6190   -0.1490    1.1270 n2        1 8IG     -0.468900
      5 N1          6.4790   -0.1530   -0.5150 ns        1 8IG     -0.542400
      6 C2          6.2300   -0.0690    0.8680 c2        1 8IG      0.548800
      7 N3          5.1110   -0.2660    1.5170 n2        1 8IG     -0.531900
      8 C4          3.9620   -0.6740    0.7360 c3        1 8IG      0.181400
      9 C5          4.0700   -0.2000   -0.7650 cf        1 8IG      0.283300
     10 C6          5.3880   -0.3020   -1.4220 c         1 8IG      0.660200
     11 N7          2.9670    0.3740   -1.1570 ne        1 8IG     -0.487000
     12 HN9         3.8840   -1.8080    0.8020 h2        1 8IG      0.162700
     13 HN21        7.1160    0.3700    2.7160 hn        1 8IG      0.486467
     14 HN22        8.1490   -0.3940    1.6360 hn        1 8IG      0.486467
     15 HN11        7.4040   -0.2270   -0.8820 hn        1 8IG      0.356500
     16 N2          7.4110    0.3130    1.7270 nz        1 8IG     -0.808600
     17 H23         7.7630    1.2310    1.4280 hn        1 8IG      0.486467
@<TRIPOS>BOND
     1    1    3 1   
     2    2   10 2   
     3    3    4 2   
     4    3   11 1   
     5    4    8 1   
     6    5    6 1   
     7    5   10 1   
     8    5   15 1   
     9    6    7 2   
    10    6   16 1   
    11    7    8 1   
    12    8    9 1   
    13    8   12 1   
    14    9   10 1   
    15    9   11 2   
    16   13   16 1   
    17   14   16 1   
    18   16   17 1   
@<TRIPOS>SUBSTRUCTURE
     1 8IG         1 TEMP              0 ****  ****    0 ROOT
