@<TRIPOS>MOLECULE
8IG
   16    17     1     0     0
SMALL
bcc


@<TRIPOS>ATOM
      1 I           0.1360    0.0210   -2.5880 i         1 8IG     -0.101800
      2 O6         -2.6610   -0.0090    2.8410 o         1 8IG     -0.589500
      3 C8          0.0500    0.0110   -0.5910 cc        1 8IG      0.449300
      4 N9          1.2150    0.0070    0.2110 na        1 8IG     -0.289900
      5 N1         -0.6270   -0.0060    3.8690 n         1 8IG     -0.511400
      6 C2          0.7810   -0.0320    3.8320 cc        1 8IG      0.695800
      7 N3          1.5220    0.0040    2.6950 nd        1 8IG     -0.679100
      8 C4          0.7750    0.0020    1.5320 cd        1 8IG      0.124800
      9 C5         -0.6680    0.0040    1.4620 cd        1 8IG      0.169800
     10 C6         -1.4310   -0.0070    2.6950 c         1 8IG      0.654000
     11 N7         -1.0870    0.0090    0.1360 nd        1 8IG     -0.538000
     12 HN9         2.1530    0.0050   -0.0970 hn        1 8IG      0.324700
     13 HN21        2.4490   -0.0560    5.0140 hn        1 8IG      0.426300
     14 HN22        1.0310    0.2790    5.8460 hn        1 8IG      0.426300
     15 HN11       -1.1060   -0.0730    4.7410 hn        1 8IG      0.336500
     16 N2          1.4580   -0.1580    5.0610 nh        1 8IG     -0.896800
@<TRIPOS>BOND
     1    1    3 1   
     2    2   10 2   
     3    3    4 1   
     4    3   11 2   
     5    4    8 1   
     6    4   12 1   
     7    5    6 1   
     8    5   10 1   
     9    5   15 1   
    10    6    7 2   
    11    6   16 1   
    12    7    8 1   
    13    8    9 2   
    14    9   10 1   
    15    9   11 1   
    16   13   16 1   
    17   14   16 1   
@<TRIPOS>SUBSTRUCTURE
     1 8IG         1 TEMP              0 ****  ****    0 ROOT
