@<TRIPOS>MOLECULE
8IN
   52    44     1     0     0
SMALL
bcc


@<TRIPOS>ATOM
      1 C1         -1.3220    0.8700   -1.7130 c1        1 8IN     -0.158000
      2 C2          0.0810    0.8610   -1.7550 c1        1 8IN     -0.169000
      3 C3          0.8270    0.7670   -0.5460 c1        1 8IN     -0.050000
      4 C4          0.1720    0.6860    0.6560 c1        1 8IN     -0.050000
      5 C5         -1.2520    0.6950    0.6970 c1        1 8IN     -0.169000
      6 C6         -1.9840    0.7870   -0.4900 c1        1 8IN      0.124000
      7 N7          2.2120    0.7330   -0.2870 n1        1 8IN     -0.160000
      8 C8          2.3910    0.6290    1.0770 c1        1 8IN     -0.018000
      9 C9          1.1410    0.5990    1.6730 c1        1 8IN     -0.155000
     10 C10         1.4600    0.1720    3.1510 c2        1 8IN     -0.110000
     11 C11         0.5510    0.9170    4.1060 c2        1 8IN      0.307000
     12 O12        -0.0170    1.8950    3.7460 o         1 8IN     -0.422000
     13 N13         0.4330    0.4830    5.4480 n         1 8IN     -0.420000
     14 C14         3.8270    0.2720    1.5910 c2        1 8IN     -0.163000
     15 C15         3.2640    1.3260   -1.1060 c2        1 8IN      0.021000
     16 C16         3.7480    0.3030   -2.1270 c2        1 8IN     -0.108000
     17 C17         3.0870    0.1590   -3.3380 c2        1 8IN     -0.102000
     18 C18         3.5840   -0.7240   -4.3020 c1        1 8IN     -0.126000
     19 C19         4.7360   -1.4520   -4.0450 c1        1 8IN     -0.137500
     20 C20         5.3950   -1.3030   -2.8250 c1        1 8IN     -0.137500
     21 C21         4.9020   -0.4300   -1.8740 c1        1 8IN     -0.129000
     22 O22        -3.3100    0.5500   -1.0000 os        1 8IN     -0.206000
     23 C23        -4.3470    0.6620   -0.0150 c3        1 8IN     -0.023000
     24 C24        -5.5300   -0.2130   -0.4250 c3        1 8IN     -0.116000
     25 C25        -6.0310   -1.0110    0.8040 c3        1 8IN     -0.766000
     26 P26        -7.0380   -2.3960    0.2540 p5        1 8IN      1.619500
     27 O27        -6.1800   -3.3420   -0.5670 o         1 8IN     -0.951833
     28 O28        -8.1780   -1.8830   -0.5890 o         1 8IN     -0.951833
     29 O29        -7.5930   -3.1330    1.4540 o         1 8IN     -0.951833
     30 H1         -1.8460    0.9340   -2.5600 ha        1 8IN      0.149000
     31 H2          0.5370    0.9570   -2.5970 ha        1 8IN      0.135500
     32 H5         -1.7160    0.5440    1.5460 ha        1 8IN      0.135500
     33 H101        1.3150   -0.7820    3.2490 ha        1 8IN      0.115000
     34 H102        2.3980    0.3840    3.3580 ha        1 8IN      0.115000
     35 H131        0.6890   -0.3700    5.6790 hn        1 8IN      0.232500
     36 H132        0.1340    1.0650    6.0960 hn        1 8IN      0.232500
     37 H141        4.4130    0.0950    0.8270 ha        1 8IN      0.086667
     38 H142        4.1800    1.0160    2.1040 ha        1 8IN      0.086667
     39 H143        3.7830   -0.5150    2.1520 ha        1 8IN      0.086667
     40 H151        4.0130    1.5940   -0.5320 ha        1 8IN      0.096500
     41 H152        2.9100    2.1190   -1.5780 ha        1 8IN      0.096500
     42 H17         2.3570    0.7520   -3.5600 ha        1 8IN      0.163000
     43 H18         3.1070   -0.8400   -5.1530 ha        1 8IN      0.138000
     44 H19         5.1170   -2.0170   -4.7340 ha        1 8IN      0.121500
     45 H20         6.1920   -1.8060   -2.6450 ha        1 8IN      0.121500
     46 H21         5.3720   -0.3260   -1.0110 ha        1 8IN      0.122000
     47 H231       -4.6440    1.6140    0.0510 h1        1 8IN      0.060000
     48 H232       -4.0030    0.3600    0.8660 h1        1 8IN      0.060000
     49 H241       -5.2470   -0.8390   -1.1300 hc        1 8IN      0.102500
     50 H242       -6.2540    0.3510   -0.7620 hc        1 8IN      0.102500
     51 H251       -6.5680   -0.4230    1.3780 hc        1 8IN      0.060000
     52 H252       -5.2670   -1.3470    1.3060 hc        1 8IN      0.060000
@<TRIPOS>BOND
     1    1    6 1   
     2    1   30 1   
     3    2    3 1   
     4    2   31 1   
     5    4    5 1   
     6    5   32 1   
     7    6   22 1   
     8    7    8 1   
     9    8    9 1   
    10   10   11 1   
    11   10   33 1   
    12   10   34 1   
    13   11   12 1   
    14   11   13 1   
    15   13   35 1   
    16   13   36 1   
    17   14   37 1   
    18   14   38 1   
    19   14   39 1   
    20   15   16 1   
    21   15   40 1   
    22   15   41 1   
    23   16   17 1   
    24   16   21 1   
    25   17   18 1   
    26   17   42 1   
    27   18   43 1   
    28   19   20 1   
    29   19   44 1   
    30   20   45 1   
    31   21   46 1   
    32   22   23 1   
    33   23   24 1   
    34   23   47 1   
    35   23   48 1   
    36   24   25 1   
    37   24   49 1   
    38   24   50 1   
    39   25   26 1   
    40   25   51 1   
    41   25   52 1   
    42   26   27 1   
    43   26   28 1   
    44   26   29 1   
@<TRIPOS>SUBSTRUCTURE
     1 8IN         1 TEMP              0 ****  ****    0 ROOT
