@<TRIPOS>MOLECULE
8IN
   53    55     1     0     0
SMALL
bcc


@<TRIPOS>ATOM
      1 C1          0.0000    0.0000    0.0000 ca        1 8IN     -0.192000
      2 C2          1.3760    0.0000    0.0000 ca        1 8IN     -0.071000
      3 C3          2.0710    0.0000    1.2050 ca        1 8IN     -0.247200
      4 C4          1.3580   -0.0010    2.4160 ca        1 8IN     -0.034800
      5 C5         -0.0390   -0.0020    2.4040 ca        1 8IN     -0.120000
      6 C6         -0.7090   -0.0000    1.1970 ca        1 8IN      0.136100
      7 N7          3.4130   -0.0010    1.5240 na        1 8IN      0.405600
      8 C8          3.5670   -0.0010    2.8820 cc        1 8IN     -0.216300
      9 C9          2.3650   -0.0070    3.4800 cd        1 8IN     -0.145400
     10 C10         2.1020   -0.0180    4.9630 c3        1 8IN      0.080800
     11 C11         2.0140   -1.4400    5.4480 c         1 8IN      0.009100
     12 O12         2.1520   -2.3570    4.6670 o         1 8IN     -0.600100
     13 N13         1.7820   -1.6940    6.7510 nz        1 8IN      0.286600
     14 C14         4.8910   -0.0030    3.6020 c3        1 8IN      0.089100
     15 C15         4.5100   -0.0010    0.5520 c3        1 8IN      0.016600
     16 C16         4.8840   -1.4220    0.2180 ca        1 8IN     -0.094300
     17 C17         4.2620   -2.0720   -0.8310 ca        1 8IN     -0.090000
     18 C18         4.6060   -3.3750   -1.1370 ca        1 8IN     -0.107000
     19 C19         5.5720   -4.0270   -0.3960 ca        1 8IN     -0.102000
     20 C20         6.1950   -3.3770    0.6530 ca        1 8IN     -0.107000
     21 C21         5.8540   -2.0720    0.9570 ca        1 8IN     -0.090000
     22 O22        -2.0690   -0.0010    1.1790 os        1 8IN     -0.281900
     23 C23        -2.4640    0.0000   -0.1940 c3        1 8IN      0.157400
     24 C24        -3.9910    0.0020   -0.2870 c3        1 8IN      0.003600
     25 C25        -4.4140    0.0020   -1.7560 c3        1 8IN     -0.067600
     26 P26        -6.2340    0.0030   -1.8660 p5        1 8IN      0.539700
     27 O27        -6.6780    0.0030   -3.4120 o         1 8IN     -0.551833
     28 O28        -6.8140   -1.3120   -1.1420 o         1 8IN     -0.551833
     29 O29        -6.7670    1.2100   -1.1990 o         1 8IN     -0.551833
     30 H1         -0.5360    0.0010   -0.9410 ha        1 8IN      0.146000
     31 H2          1.9170    0.0540   -0.9370 ha        1 8IN      0.091000
     32 H5         -0.5920   -0.0020    3.3350 ha        1 8IN      0.108000
     33 H101        1.1680    0.4920    5.1670 hc        1 8IN      0.003700
     34 H102        2.9090    0.4900    5.4770 hc        1 8IN      0.003700
     35 H131        0.8270   -1.4870    6.9660 hn        1 8IN      0.152133
     36 H132        2.3830   -1.1250    7.3140 hn        1 8IN      0.152133
     37 H141        5.1720   -1.0220    3.8390 hc        1 8IN      0.004700
     38 H142        4.8050    0.5700    4.5180 hc        1 8IN      0.004700
     39 H143        5.6480    0.4420    2.9680 hc        1 8IN      0.004700
     40 H151        4.1940    0.5110   -0.3490 h1        1 8IN      0.031200
     41 H152        5.3670    0.5080    0.9750 h1        1 8IN      0.031200
     42 H17         3.5490   -1.5410   -1.4500 ha        1 8IN      0.112500
     43 H18         4.1160   -3.8860   -1.9570 ha        1 8IN      0.102000
     44 H19         5.8380   -5.0500   -0.6330 ha        1 8IN      0.098000
     45 H20         6.9280   -3.9000    1.2560 ha        1 8IN      0.102000
     46 H21         6.7960   -1.7200    1.3600 ha        1 8IN      0.112500
     47 H231       -2.0710    0.8840   -0.6820 h1        1 8IN      0.000200
     48 H232       -2.0730   -0.8850   -0.6820 h1        1 8IN      0.000200
     49 H241       -4.3810    0.8870    0.2010 hc        1 8IN      0.028700
     50 H242       -4.3830   -0.8820    0.2020 hc        1 8IN      0.028700
     51 H251       -4.0230   -0.8830   -2.2440 hc        1 8IN      0.012700
     52 H252       -4.0220    0.8850   -2.2440 hc        1 8IN      0.012700
     53 H133        1.9650   -2.6600    6.9400 hn        1 8IN      0.152133
@<TRIPOS>BOND
     1    1    2 ar  
     2    1    6 ar  
     3    1   30 1   
     4    2    3 ar  
     5    2   31 1   
     6    3    4 ar  
     7    3    7 1   
     8    4    5 ar  
     9    4    9 1   
    10    5    6 ar  
    11    5   32 1   
    12    6   22 1   
    13    7    8 1   
    14    7   15 1   
    15    8    9 2   
    16    8   14 1   
    17    9   10 1   
    18   10   11 1   
    19   10   33 1   
    20   10   34 1   
    21   11   12 2   
    22   11   13 1   
    23   13   35 1   
    24   13   36 1   
    25   13   53 1   
    26   14   37 1   
    27   14   38 1   
    28   14   39 1   
    29   15   16 1   
    30   15   40 1   
    31   15   41 1   
    32   16   17 ar  
    33   16   21 ar  
    34   17   18 ar  
    35   17   42 1   
    36   18   19 ar  
    37   18   43 1   
    38   19   20 ar  
    39   19   44 1   
    40   20   21 ar  
    41   20   45 1   
    42   21   46 1   
    43   22   23 1   
    44   23   24 1   
    45   23   47 1   
    46   23   48 1   
    47   24   25 1   
    48   24   49 1   
    49   24   50 1   
    50   25   26 1   
    51   25   51 1   
    52   25   52 1   
    53   26   27 1   
    54   26   28 1   
    55   26   29 1   
@<TRIPOS>SUBSTRUCTURE
     1 8IN         1 TEMP              0 ****  ****    0 ROOT
