@<TRIPOS>MOLECULE
8IN
   52    54     1     0     0
SMALL
bcc


@<TRIPOS>ATOM
      1 C1          0.8660    1.2230   -0.4950 ca        1 8IN     -0.197000
      2 C2          1.2210    1.5080    0.8150 ca        1 8IN     -0.113000
      3 C3          0.2630    1.3440    1.8190 ca        1 8IN     -0.112200
      4 C4         -1.0710    0.9030    1.4940 ca        1 8IN     -0.049800
      5 C5         -1.4200    0.6360    0.1780 ca        1 8IN     -0.181000
      6 C6         -0.4400    0.7840   -0.8230 ca        1 8IN      0.169100
      7 N7          0.3240    1.6080    3.2110 na        1 8IN     -0.069400
      8 C8         -0.9180    1.2090    3.7670 cc        1 8IN     -0.045300
      9 C9         -1.7970    0.8320    2.7530 cd        1 8IN     -0.154400
     10 C10        -3.2080    0.4540    2.8920 c3        1 8IN     -0.075200
     11 C11        -3.4010   -1.0520    3.0120 c         1 8IN      0.661100
     12 O12        -4.0540   -1.5450    3.9600 o         1 8IN     -0.662100
     13 N13        -2.8730   -1.8500    2.0360 n         1 8IN     -0.658000
     14 C14        -1.1900    1.2680    5.2170 c3        1 8IN     -0.043900
     15 C15         1.5480    1.6320    3.9570 c3        1 8IN      0.085600
     16 C16         2.1400    0.3020    4.3400 ca        1 8IN     -0.115300
     17 C17         2.4670   -0.6370    3.3560 ca        1 8IN     -0.115000
     18 C18         3.0480   -1.8520    3.7150 ca        1 8IN     -0.133500
     19 C19         3.3080   -2.1350    5.0560 ca        1 8IN     -0.132000
     20 C20         2.9810   -1.2020    6.0390 ca        1 8IN     -0.133500
     21 C21         2.3950    0.0120    5.6840 ca        1 8IN     -0.115000
     22 O22        -0.8470    0.4760   -2.0850 os        1 8IN     -0.316900
     23 C23         0.1550    0.5270   -3.1310 c3        1 8IN      0.129400
     24 C24        -0.4830    0.0170   -4.4100 c3        1 8IN     -0.056400
     25 C25         0.5020    0.0180   -5.5210 c3        1 8IN     -0.275600
     26 P26        -0.4660   -0.6740   -6.9180 p5        1 8IN      1.211700
     27 O27        -1.6000    0.3160   -7.0640 o         1 8IN     -0.953500
     28 O28         0.5330   -0.6860   -8.0500 o         1 8IN     -0.953500
     29 O29        -0.8740   -2.0350   -6.3990 o         1 8IN     -0.953500
     30 H1          1.6130    1.3440   -1.2940 ha        1 8IN      0.153000
     31 H2          2.2360    1.8560    1.0510 ha        1 8IN      0.119000
     32 H5         -2.4370    0.3290   -0.1030 ha        1 8IN      0.150000
     33 H101       -3.6600    0.9240    3.8060 hc        1 8IN      0.072200
     34 H102       -3.7870    0.8110    1.9960 hc        1 8IN      0.072200
     35 H131       -2.9720   -2.8320    2.0910 hn        1 8IN      0.320500
     36 H132       -2.3010   -1.4630    1.3240 hn        1 8IN      0.320500
     37 H141       -1.2360    2.3310    5.5640 hc        1 8IN      0.048033
     38 H142       -2.1690    0.7750    5.4370 hc        1 8IN      0.048033
     39 H143       -0.3870    0.7420    5.7940 hc        1 8IN      0.048033
     40 H151        2.3110    2.1840    3.3320 h1        1 8IN      0.057700
     41 H152        1.3560    2.2330    4.8930 h1        1 8IN      0.057700
     42 H17         2.2500   -0.4140    2.2970 ha        1 8IN      0.141500
     43 H18         3.2960   -2.5890    2.9370 ha        1 8IN      0.129000
     44 H19         3.7650   -3.0940    5.3370 ha        1 8IN      0.124000
     45 H20         3.1790   -1.4250    7.0970 ha        1 8IN      0.129000
     46 H21         2.1290    0.7410    6.4640 ha        1 8IN      0.141500
     47 H231        0.4930    1.5910   -3.2340 h1        1 8IN      0.013200
     48 H232        1.0200   -0.1190   -2.8280 h1        1 8IN      0.013200
     49 H241       -0.8660   -1.0320   -4.2760 hc        1 8IN      0.083200
     50 H242       -1.3590    0.6550   -4.7070 hc        1 8IN      0.083200
     51 H251        0.8480    1.0310   -5.8010 hc        1 8IN      0.015700
     52 H252        1.3700   -0.6420   -5.3390 hc        1 8IN      0.015700
@<TRIPOS>BOND
     1    1    2 ar  
     2    1    6 ar  
     3    1   30 1   
     4    2    3 ar  
     5    2   31 1   
     6    3    4 ar  
     7    3    7 1   
     8    4    5 ar  
     9    4    9 1   
    10    5    6 ar  
    11    5   32 1   
    12    6   22 1   
    13    7    8 1   
    14    7   15 1   
    15    8    9 2   
    16    8   14 1   
    17    9   10 1   
    18   10   11 1   
    19   10   33 1   
    20   10   34 1   
    21   11   12 2   
    22   11   13 1   
    23   13   35 1   
    24   13   36 1   
    25   14   37 1   
    26   14   38 1   
    27   14   39 1   
    28   15   16 1   
    29   15   40 1   
    30   15   41 1   
    31   16   17 ar  
    32   16   21 ar  
    33   17   18 ar  
    34   17   42 1   
    35   18   19 ar  
    36   18   43 1   
    37   19   20 ar  
    38   19   44 1   
    39   20   21 ar  
    40   20   45 1   
    41   21   46 1   
    42   22   23 1   
    43   23   24 1   
    44   23   47 1   
    45   23   48 1   
    46   24   25 1   
    47   24   49 1   
    48   24   50 1   
    49   25   26 1   
    50   25   51 1   
    51   25   52 1   
    52   26   27 1   
    53   26   28 1   
    54   26   29 1   
@<TRIPOS>SUBSTRUCTURE
     1 8IN         1 TEMP              0 ****  ****    0 ROOT
