@<TRIPOS>MOLECULE
8IP
   37    31     1     0     0
SMALL
bcc


@<TRIPOS>ATOM
      1 N1          3.6380    1.3730    3.4430 n3        1 8IP     -0.306000
      2 C2          3.4060    0.0190    3.2040 c2        1 8IP      0.063000
      3 N3          4.0260   -0.9180    3.9630 n2        1 8IP     -0.181000
      4 C4          3.7860   -2.2140    3.7590 c1        1 8IP     -0.065000
      5 C5          2.8790   -2.6190    2.7480 c1        1 8IP     -0.143750
      6 C6          2.2460   -1.6740    1.9740 c1        1 8IP     -0.143750
      7 C7          2.4860   -0.3850    2.1780 c1        1 8IP     -0.040000
      8 N8          1.8950    0.5810    1.3480 n3        1 8IP     -0.262000
      9 C9          0.4110    0.7960    1.3810 c3        1 8IP     -0.027000
     10 C10        -0.0780    1.1110   -0.0280 c2        1 8IP     -0.114000
     11 C11         0.5120    2.1510   -0.7650 c2        1 8IP     -0.118000
     12 C12         0.0200    2.4790   -2.0240 c1        1 8IP     -0.124000
     13 C13        -1.0670    1.7700   -2.5560 c1        1 8IP     -0.088000
     14 C14        -1.6430    0.7550   -1.8330 c1        1 8IP     -0.060000
     15 C15        -1.1330    0.4220   -0.5420 c1        1 8IP     -0.112000
     16 C16        -2.8080   -0.0000   -2.3870 c1        1 8IP     -0.060000
     17 C17        -2.6050   -1.0810   -3.1230 c1        1 8IP     -0.143750
     18 C18        -3.6850   -1.8120   -3.5830 c1        1 8IP     -0.143750
     19 C19        -4.9920   -1.4040   -3.2660 c1        1 8IP     -0.070000
     20 N20        -5.1910   -0.3170   -2.5250 n1        1 8IP     -0.137000
     21 C21        -4.1370    0.4020   -2.0720 c1        1 8IP     -0.088000
     22 HN11        4.3890    1.6410    3.9810 hn        1 8IP      0.187500
     23 HN12        3.0220    2.0210    3.1340 hn        1 8IP      0.187500
     24 H4          4.2040   -2.8330    4.2690 ha        1 8IP      0.157000
     25 H5          2.6970   -3.5980    2.5940 ha        1 8IP      0.142750
     26 H6          1.5910   -1.9650    1.2480 ha        1 8IP      0.142750
     27 HN8         2.4070    1.0440    0.7620 hn        1 8IP      0.189000
     28 H91        -0.0530   -0.0480    1.7200 h1        1 8IP      0.105000
     29 H92         0.2150    1.4950    1.9390 h1        1 8IP      0.105000
     30 H11         1.2370    2.6190   -0.4150 ha        1 8IP      0.133000
     31 H12         0.4120    3.1670   -2.5090 ha        1 8IP      0.137000
     32 H13        -1.4090    1.9960   -3.4260 ha        1 8IP      0.149500
     33 H15        -1.5440   -0.3100   -0.0200 ha        1 8IP      0.136000
     34 H17        -1.6320   -1.3830   -3.3570 ha        1 8IP      0.142750
     35 H18        -3.5440   -2.5910   -4.1150 ha        1 8IP      0.142750
     36 H19        -5.6730   -1.8640   -3.5550 ha        1 8IP      0.161000
     37 H21        -4.2850    1.1720   -1.5430 ha        1 8IP      0.149500
@<TRIPOS>BOND
     1    1    2 1   
     2    1   22 1   
     3    1   23 1   
     4    2    3 1   
     5    2    7 1   
     6    3    4 1   
     7    4   24 1   
     8    5    6 1   
     9    5   25 1   
    10    6   26 1   
    11    7    8 1   
    12    8    9 1   
    13    8   27 1   
    14    9   10 1   
    15    9   28 1   
    16    9   29 1   
    17   10   11 1   
    18   10   15 1   
    19   11   12 1   
    20   11   30 1   
    21   12   31 1   
    22   13   14 1   
    23   13   32 1   
    24   15   33 1   
    25   16   21 1   
    26   17   18 1   
    27   17   34 1   
    28   18   35 1   
    29   19   20 1   
    30   19   36 1   
    31   21   37 1   
@<TRIPOS>SUBSTRUCTURE
     1 8IP         1 TEMP              0 ****  ****    0 ROOT
