@<TRIPOS>MOLECULE
8IP
   39    41     1     0     0
SMALL
bcc


@<TRIPOS>ATOM
      1 N1          1.1050   -2.0250   -1.0500 n4        1 8IP     -0.837300
      2 C2          2.0530   -1.0340   -0.4930 ca        1 8IP      0.486200
      3 N3          2.8750   -1.5180    0.4730 nb        1 8IP     -0.616000
      4 C4          3.7600   -0.6880    1.0440 ca        1 8IP      0.493200
      5 C5          3.8720    0.6730    0.6810 ca        1 8IP     -0.148300
      6 C6          3.0330    1.1740   -0.3100 ca        1 8IP     -0.053000
      7 C7          2.0880    0.3210   -0.9330 ca        1 8IP     -0.121700
      8 N8          1.2230    0.8610   -1.9740 n4        1 8IP     -0.661400
      9 C9          1.6820    0.5120   -3.3860 c3        1 8IP      0.192100
     10 C10         0.5280    0.5680   -4.3150 ca        1 8IP     -0.213300
     11 C11        -0.4400   -0.4490   -4.2830 ca        1 8IP     -0.145000
     12 C12        -1.4900   -0.4330   -5.1920 ca        1 8IP     -0.094000
     13 C13        -1.5810    0.5890   -6.1410 ca        1 8IP     -0.060000
     14 C14        -0.6180    1.6100   -6.1880 cp        1 8IP      0.031000
     15 C15         0.4350    1.5960   -5.2570 ca        1 8IP     -0.074000
     16 C16        -0.7000    2.6570   -7.1940 cp        1 8IP     -0.226300
     17 C17        -0.3720    3.9920   -6.9050 ca        1 8IP     -0.072000
     18 C18        -0.4770    4.9510   -7.9090 ca        1 8IP     -0.236300
     19 C19        -0.9070    4.5440   -9.1890 ca        1 8IP      0.442200
     20 N20        -1.2210    3.2690   -9.4890 nb        1 8IP     -0.638000
     21 C21        -1.1200    2.3520   -8.5120 ca        1 8IP      0.435200
     22 HN11        0.1500   -1.8080   -0.7360 hn        1 8IP      0.489133
     23 HN12        1.1520   -2.0280   -2.0760 hn        1 8IP      0.489133
     24 H4          4.4070   -1.1460    1.8300 h4        1 8IP      0.110100
     25 H5          4.6150    1.3240    1.1810 ha        1 8IP      0.225000
     26 H6          3.1140    2.2400   -0.6010 ha        1 8IP      0.200000
     27 HN8         0.2540    0.5370   -1.8480 hn        1 8IP      0.467800
     28 H91         2.1350   -0.5180   -3.3520 hx        1 8IP      0.107700
     29 H92         2.4900    1.2480   -3.6710 hx        1 8IP      0.107700
     30 H11        -0.3540   -1.2740   -3.5610 ha        1 8IP      0.080000
     31 H12        -2.2530   -1.2300   -5.1760 ha        1 8IP      0.170000
     32 H13        -2.4190    0.5940   -6.8610 ha        1 8IP      0.183000
     33 H15         1.2000    2.3890   -5.3010 ha        1 8IP      0.155000
     34 H17        -0.0520    4.2820   -5.8940 ha        1 8IP      0.126000
     35 H18        -0.2360    6.0060   -7.7160 ha        1 8IP      0.166000
     36 H19        -1.0070    5.2730  -10.0170 h4        1 8IP      0.053100
     37 H21        -1.3770    1.3160   -8.8020 h4        1 8IP      0.031100
     38 H131        1.3450   -2.9780   -0.7080 hn        1 8IP      0.489133
     39 H82         1.2040    1.8910   -1.8880 hn        1 8IP      0.467800
@<TRIPOS>BOND
     1    1    2 1   
     2    1   22 1   
     3    1   23 1   
     4    1   38 1   
     5    2    3 ar  
     6    2    7 ar  
     7    3    4 ar  
     8    4    5 ar  
     9    4   24 1   
    10    5    6 ar  
    11    5   25 1   
    12    6    7 ar  
    13    6   26 1   
    14    7    8 1   
    15    8    9 1   
    16    8   27 1   
    17    8   39 1   
    18    9   10 1   
    19    9   28 1   
    20    9   29 1   
    21   10   11 ar  
    22   10   15 ar  
    23   11   12 ar  
    24   11   30 1   
    25   12   13 ar  
    26   12   31 1   
    27   13   14 ar  
    28   13   32 1   
    29   14   15 ar  
    30   14   16 1   
    31   15   33 1   
    32   16   17 ar  
    33   16   21 ar  
    34   17   18 ar  
    35   17   34 1   
    36   18   19 ar  
    37   18   35 1   
    38   19   20 ar  
    39   19   36 1   
    40   20   21 ar  
    41   21   37 1   
@<TRIPOS>SUBSTRUCTURE
     1 8IP         1 TEMP              0 ****  ****    0 ROOT
