@<TRIPOS>MOLECULE
8IP
   37    39     1     0     0
SMALL
bcc


@<TRIPOS>ATOM
      1 N1          3.0170    2.7350    6.0310 nh        1 8IP     -0.906500
      2 C2          2.7380    1.5940    6.8280 ca        1 8IP      0.557200
      3 N3          2.8760    1.6840    8.1810 nb        1 8IP     -0.697000
      4 C4          2.6950    0.5810    8.9230 ca        1 8IP      0.387200
      5 C5          2.3480   -0.6660    8.3860 ca        1 8IP     -0.242300
      6 C6          2.1950   -0.7790    7.0070 ca        1 8IP     -0.139000
      7 C7          2.3890    0.3430    6.1770 ca        1 8IP      0.005300
      8 N8          2.1660    0.3050    4.7890 nh        1 8IP     -0.713600
      9 C9          2.0540   -1.0020    4.1680 c3        1 8IP      0.223100
     10 C10         2.0780   -0.9330    2.6690 ca        1 8IP     -0.103300
     11 C11         1.1170   -0.1840    1.9830 ca        1 8IP     -0.105000
     12 C12         1.1230   -0.1540    0.5900 ca        1 8IP     -0.132000
     13 C13         2.0810   -0.8710   -0.1250 ca        1 8IP     -0.111000
     14 C14         3.0500   -1.6240    0.5530 cp        1 8IP     -0.037000
     15 C15         3.0430   -1.6470    1.9550 ca        1 8IP     -0.108000
     16 C16         4.0550   -2.3740   -0.1900 cp        1 8IP     -0.152300
     17 C17         5.3880   -2.4460    0.2430 ca        1 8IP     -0.084000
     18 C18         6.3080   -3.1760   -0.5080 ca        1 8IP     -0.245300
     19 C19         5.8650   -3.8180   -1.6780 ca        1 8IP      0.395200
     20 N20         4.5910   -3.7660   -2.1130 nb        1 8IP     -0.663000
     21 C21         3.7130   -3.0580   -1.3800 ca        1 8IP      0.404200
     22 HN11        3.3070    3.5290    6.5660 hn        1 8IP      0.386800
     23 HN12        2.2400    2.9650    5.4430 hn        1 8IP      0.386800
     24 H4          2.8300    0.7190   10.0110 h4        1 8IP      0.021100
     25 H5          2.2010   -1.5350    9.0400 ha        1 8IP      0.142000
     26 H6          1.9210   -1.7550    6.5790 ha        1 8IP      0.138000
     27 HN8         2.7840    0.9080    4.2790 hn        1 8IP      0.404800
     28 H91         1.0650   -1.4450    4.4900 h1        1 8IP      0.047200
     29 H92         2.8690   -1.7020    4.5210 h1        1 8IP      0.047200
     30 H11         0.3580    0.3800    2.5470 ha        1 8IP      0.146000
     31 H12         0.3690    0.4380    0.0500 ha        1 8IP      0.137000
     32 H13         2.0840   -0.8400   -1.2250 ha        1 8IP      0.138000
     33 H15         3.7990   -2.2410    2.4920 ha        1 8IP      0.136000
     34 H17         5.7010   -1.9250    1.1600 ha        1 8IP      0.142000
     35 H18         7.3590   -3.2490   -0.1980 ha        1 8IP      0.145000
     36 H19         6.5620   -4.4060   -2.3010 h4        1 8IP      0.023100
     37 H21         2.6750   -3.0390   -1.7590 h4        1 8IP      0.025100
@<TRIPOS>BOND
     1    1    2 1   
     2    1   22 1   
     3    1   23 1   
     4    2    3 ar  
     5    2    7 ar  
     6    3    4 ar  
     7    4    5 ar  
     8    4   24 1   
     9    5    6 ar  
    10    5   25 1   
    11    6    7 ar  
    12    6   26 1   
    13    7    8 1   
    14    8    9 1   
    15    8   27 1   
    16    9   10 1   
    17    9   28 1   
    18    9   29 1   
    19   10   11 ar  
    20   10   15 ar  
    21   11   12 ar  
    22   11   30 1   
    23   12   13 ar  
    24   12   31 1   
    25   13   14 ar  
    26   13   32 1   
    27   14   15 ar  
    28   14   16 1   
    29   15   33 1   
    30   16   17 ar  
    31   16   21 ar  
    32   17   18 ar  
    33   17   34 1   
    34   18   19 ar  
    35   18   35 1   
    36   19   20 ar  
    37   19   36 1   
    38   20   21 ar  
    39   21   37 1   
@<TRIPOS>SUBSTRUCTURE
     1 8IP         1 TEMP              0 ****  ****    0 ROOT
