@<TRIPOS>MOLECULE
8IP
   37    39     1     0     0
SMALL
bcc


@<TRIPOS>ATOM
      1 N1          0.0260    0.6470    0.0030 nh        1 8IP     -0.905500
      2 C2          1.4130    0.3470   -0.0150 ca        1 8IP      0.558200
      3 N3          2.0740    0.2140    1.1690 nb        1 8IP     -0.697000
      4 C4          3.3640   -0.1550    1.1500 ca        1 8IP      0.387200
      5 C5          4.0840   -0.3940   -0.0280 ca        1 8IP     -0.242300
      6 C6          3.4290   -0.2570   -1.2490 ca        1 8IP     -0.139000
      7 C7          2.0710    0.1130   -1.2890 ca        1 8IP      0.004300
      8 N8          1.3830    0.3480   -2.4930 nh        1 8IP     -0.713600
      9 C9          2.0110   -0.1120   -3.7170 c3        1 8IP      0.222100
     10 C10         1.0950   -0.0260   -4.9030 ca        1 8IP     -0.103300
     11 C11         0.7530   -1.1810   -5.6110 ca        1 8IP     -0.114000
     12 C12        -0.0690   -1.0900   -6.7340 ca        1 8IP     -0.130000
     13 C13        -0.5550    0.1470   -7.1510 ca        1 8IP     -0.111000
     14 C14        -0.2210    1.3120   -6.4450 cp        1 8IP     -0.038000
     15 C15         0.6070    1.2160   -5.3180 ca        1 8IP     -0.098000
     16 C16        -0.7280    2.6080   -6.8780 cp        1 8IP     -0.152300
     17 C17        -1.1300    3.5850   -5.9550 ca        1 8IP     -0.084000
     18 C18        -1.6090    4.8080   -6.4230 ca        1 8IP     -0.245300
     19 C19        -1.6710    5.0190   -7.8130 ca        1 8IP      0.394200
     20 N20        -1.2880    4.0990   -8.7190 nb        1 8IP     -0.663000
     21 C21        -0.8290    2.9240   -8.2540 ca        1 8IP      0.404200
     22 HN11       -0.3490    0.7290    0.9280 hn        1 8IP      0.386300
     23 HN12       -0.1760    1.4650   -0.5370 hn        1 8IP      0.386300
     24 H4          3.8400   -0.2540    2.1420 h4        1 8IP      0.021100
     25 H5          5.1420   -0.6840    0.0120 ha        1 8IP      0.142000
     26 H6          3.9890   -0.4420   -2.1790 ha        1 8IP      0.138000
     27 HN8         0.4180    0.0800   -2.4470 hn        1 8IP      0.404800
     28 H91         2.3890   -1.1740   -3.6190 h1        1 8IP      0.047200
     29 H92         2.9080    0.5480   -3.9080 h1        1 8IP      0.047200
     30 H11         1.1310   -2.1620   -5.2870 ha        1 8IP      0.136000
     31 H12        -0.3380   -2.0000   -7.2910 ha        1 8IP      0.137000
     32 H13        -1.2100    0.2100   -8.0330 ha        1 8IP      0.138000
     33 H15         0.8830    2.1230   -4.7590 ha        1 8IP      0.146000
     34 H17        -1.0730    3.3840   -4.8750 ha        1 8IP      0.142000
     35 H18        -1.9340    5.5920   -5.7270 ha        1 8IP      0.145000
     36 H19        -2.0450    5.9730   -8.2260 h4        1 8IP      0.023100
     37 H21        -0.5150    2.1920   -9.0210 h4        1 8IP      0.025100
@<TRIPOS>BOND
     1    1    2 1   
     2    1   22 1   
     3    1   23 1   
     4    2    3 ar  
     5    2    7 ar  
     6    3    4 ar  
     7    4    5 ar  
     8    4   24 1   
     9    5    6 ar  
    10    5   25 1   
    11    6    7 ar  
    12    6   26 1   
    13    7    8 1   
    14    8    9 1   
    15    8   27 1   
    16    9   10 1   
    17    9   28 1   
    18    9   29 1   
    19   10   11 ar  
    20   10   15 ar  
    21   11   12 ar  
    22   11   30 1   
    23   12   13 ar  
    24   12   31 1   
    25   13   14 ar  
    26   13   32 1   
    27   14   15 ar  
    28   14   16 1   
    29   15   33 1   
    30   16   17 ar  
    31   16   21 ar  
    32   17   18 ar  
    33   17   34 1   
    34   18   19 ar  
    35   18   35 1   
    36   19   20 ar  
    37   19   36 1   
    38   20   21 ar  
    39   21   37 1   
@<TRIPOS>SUBSTRUCTURE
     1 8IP         1 TEMP              0 ****  ****    0 ROOT
