@<TRIPOS>MOLECULE
8IP
   37    39     1     0     0
SMALL
bcc


@<TRIPOS>ATOM
      1 N1          0.0420    0.6570    0.0050 nv        1 8IP     -0.905500
      2 C2          1.4280    0.3510   -0.0180 ca        1 8IP      0.558200
      3 N3          2.0930    0.2170    1.1640 nb        1 8IP     -0.697000
      4 C4          3.3810   -0.1580    1.1400 ca        1 8IP      0.387200
      5 C5          4.0960   -0.4020   -0.0410 ca        1 8IP     -0.242300
      6 C6          3.4370   -0.2640   -1.2590 ca        1 8IP     -0.139000
      7 C7          2.0790    0.1120   -1.2940 ca        1 8IP      0.004300
      8 N8          1.3890    0.3480   -2.4960 nu        1 8IP     -0.713600
      9 C9          2.0100   -0.1170   -3.7220 c3        1 8IP      0.222100
     10 C10         1.0890   -0.0280   -4.9050 ca        1 8IP     -0.103300
     11 C11         0.7420   -1.1830   -5.6120 ca        1 8IP     -0.114000
     12 C12        -0.0840   -1.0900   -6.7310 ca        1 8IP     -0.130000
     13 C13        -0.5690    0.1480   -7.1470 ca        1 8IP     -0.111000
     14 C14        -0.2300    1.3120   -6.4410 cp        1 8IP     -0.038000
     15 C15         0.6020    1.2140   -5.3180 ca        1 8IP     -0.098000
     16 C16        -0.7350    2.6100   -6.8720 cp        1 8IP     -0.152300
     17 C17        -1.1330    3.5870   -5.9470 ca        1 8IP     -0.084000
     18 C18        -1.6110    4.8110   -6.4140 ca        1 8IP     -0.245300
     19 C19        -1.6780    5.0230   -7.8030 ca        1 8IP      0.394200
     20 N20        -1.3000    4.1010   -8.7110 nb        1 8IP     -0.663000
     21 C21        -0.8410    2.9260   -8.2480 ca        1 8IP      0.404200
     22 HN11       -0.3290    0.7430    0.9310 hn        1 8IP      0.386300
     23 HN12       -0.1580    1.4750   -0.5360 hn        1 8IP      0.386300
     24 H4          3.8610   -0.2570    2.1300 h4        1 8IP      0.021100
     25 H5          5.1520   -0.6970   -0.0040 ha        1 8IP      0.142000
     26 H6          3.9920   -0.4530   -2.1900 ha        1 8IP      0.138000
     27 HN8         0.4220    0.0840   -2.4460 hn        1 8IP      0.404800
     28 H91         2.9080    0.5400   -3.9170 h1        1 8IP      0.047200
     29 H92         2.3830   -1.1810   -3.6240 h1        1 8IP      0.047200
     30 H11         1.1200   -2.1650   -5.2880 ha        1 8IP      0.136000
     31 H12        -0.3560   -1.9990   -7.2880 ha        1 8IP      0.137000
     32 H13        -1.2270    0.2130   -8.0260 ha        1 8IP      0.138000
     33 H15         0.8820    2.1210   -4.7600 ha        1 8IP      0.146000
     34 H17        -1.0720    3.3850   -4.8670 ha        1 8IP      0.142000
     35 H18        -1.9320    5.5950   -5.7160 ha        1 8IP      0.145000
     36 H19        -2.0510    5.9780   -8.2140 h4        1 8IP      0.023100
     37 H21        -0.5320    2.1940   -9.0160 h4        1 8IP      0.025100
@<TRIPOS>BOND
     1    1    2 1   
     2    1   22 1   
     3    1   23 1   
     4    2    3 ar  
     5    2    7 ar  
     6    3    4 ar  
     7    4    5 ar  
     8    4   24 1   
     9    5    6 ar  
    10    5   25 1   
    11    6    7 ar  
    12    6   26 1   
    13    7    8 1   
    14    8    9 1   
    15    8   27 1   
    16    9   10 1   
    17    9   28 1   
    18    9   29 1   
    19   10   11 ar  
    20   10   15 ar  
    21   11   12 ar  
    22   11   30 1   
    23   12   13 ar  
    24   12   31 1   
    25   13   14 ar  
    26   13   32 1   
    27   14   15 ar  
    28   14   16 1   
    29   15   33 1   
    30   16   17 ar  
    31   16   21 ar  
    32   17   18 ar  
    33   17   34 1   
    34   18   19 ar  
    35   18   35 1   
    36   19   20 ar  
    37   19   36 1   
    38   20   21 ar  
    39   21   37 1   
@<TRIPOS>SUBSTRUCTURE
     1 8IP         1 TEMP              0 ****  ****    0 ROOT
