@<TRIPOS>MOLECULE
8JZ
   20    19     1     0     0
SMALL
bcc


@<TRIPOS>ATOM
      1 OAC         2.2030   -1.3270    0.2190 o         1 8JZ     -0.546000
      2 CAH         2.1140   -0.1040    0.0950 c         1 8JZ      0.632100
      3 CAB         3.2070    0.9050    0.0270 c3        1 8JZ     -0.150100
      4 OAG         0.8670    0.4510    0.0050 os        1 8JZ     -0.444900
      5 CAF        -0.2470   -0.4560    0.0640 c3        1 8JZ      0.139400
      6 CAE        -1.4930    0.4000   -0.0530 c3        1 8JZ     -0.086400
      7 CAD        -2.7320   -0.4690   -0.0010 c3        1 8JZ     -0.079400
      8 CAA        -3.9860    0.3590   -0.1160 c3        1 8JZ     -0.092100
      9 HAB         3.8740    0.6560   -0.8350 hc        1 8JZ      0.075700
     10 HABA        2.7950    1.9340   -0.1050 hc        1 8JZ      0.075700
     11 HABB        3.8000    0.8590    0.9730 hc        1 8JZ      0.075700
     12 HAF        -0.1620   -1.1890   -0.7800 h1        1 8JZ      0.051700
     13 HAFA       -0.2110   -1.0110    1.0380 h1        1 8JZ      0.051700
     14 HAE        -1.5120    1.1500    0.7800 hc        1 8JZ      0.053700
     15 HAEA       -1.4640    0.9750   -1.0150 hc        1 8JZ      0.053700
     16 HAD        -2.6980   -1.2190   -0.8350 hc        1 8JZ      0.041700
     17 HADA       -2.7460   -1.0440    0.9620 hc        1 8JZ      0.041700
     18 HAA        -4.0000    0.9220   -1.0810 hc        1 8JZ      0.035033
     19 HAAA       -4.8880   -0.2980   -0.0760 hc        1 8JZ      0.035033
     20 HAAB       -4.0490    1.0970    0.7200 hc        1 8JZ      0.035033
@<TRIPOS>BOND
     1    1    2 2   
     2    2    3 1   
     3    2    4 1   
     4    3    9 1   
     5    3   10 1   
     6    3   11 1   
     7    4    5 1   
     8    5    6 1   
     9    5   12 1   
    10    5   13 1   
    11    6    7 1   
    12    6   14 1   
    13    6   15 1   
    14    7    8 1   
    15    7   16 1   
    16    7   17 1   
    17    8   18 1   
    18    8   19 1   
    19    8   20 1   
@<TRIPOS>SUBSTRUCTURE
     1 8JZ         1 TEMP              0 ****  ****    0 ROOT
