@<TRIPOS>MOLECULE
8JZ
   20    18     1     0     0
SMALL
bcc


@<TRIPOS>ATOM
      1 OAC        -1.5400   -0.0030    2.6280 o         1 8JZ     -0.357000
      2 CAH        -0.3250   -0.0030    2.6280 c1        1 8JZ      0.303000
      3 CAB         0.4310   -0.0030    3.9380 c2        1 8JZ     -0.218000
      4 OAG         0.3780   -0.0040    1.4110 os        1 8JZ     -0.283000
      5 CAF        -0.4530   -0.0050    0.2730 c3        1 8JZ     -0.011000
      6 CAE         0.4030    0.0140   -0.9750 c3        1 8JZ     -0.165000
      7 CAD        -0.4890    0.0030   -2.1970 c3        1 8JZ     -0.158000
      8 CAA         0.3660   -0.0030   -3.4450 c3        1 8JZ     -0.210000
      9 HAB         1.0320    0.7660    3.9670 ha        1 8JZ      0.115000
     10 HABA        0.9520   -0.8250    4.0130 ha        1 8JZ      0.115000
     11 HABB       -0.2020    0.0500    4.6790 ha        1 8JZ      0.115000
     12 HAF        -1.0070   -0.8090    0.2760 h1        1 8JZ      0.091000
     13 HAFA       -1.0250    0.7850    0.2870 h1        1 8JZ      0.091000
     14 HAE         0.9800   -0.7730   -0.9860 hc        1 8JZ      0.093000
     15 HAEA        0.9520    0.8210   -0.9800 hc        1 8JZ      0.093000
     16 HAD        -1.0550    0.7980   -2.1940 hc        1 8JZ      0.081000
     17 HADA       -1.0500   -0.7960   -2.1830 hc        1 8JZ      0.081000
     18 HAA         0.9390    0.7880   -3.4510 hc        1 8JZ      0.074333
     19 HAAA        0.9210   -0.8060   -3.4560 hc        1 8JZ      0.074333
     20 HAAB       -0.2090    0.0060   -4.2340 hc        1 8JZ      0.074333
@<TRIPOS>BOND
     1    1    2 1   
     2    2    4 1   
     3    3    9 1   
     4    3   10 1   
     5    3   11 1   
     6    4    5 1   
     7    5    6 1   
     8    5   12 1   
     9    5   13 1   
    10    6    7 1   
    11    6   14 1   
    12    6   15 1   
    13    7    8 1   
    14    7   16 1   
    15    7   17 1   
    16    8   18 1   
    17    8   19 1   
    18    8   20 1   
@<TRIPOS>SUBSTRUCTURE
     1 8JZ         1 TEMP              0 ****  ****    0 ROOT
