@<TRIPOS>MOLECULE
8JZ
   20    19     1     0     0
SMALL
bcc


@<TRIPOS>ATOM
      1 OAC        -0.1010   -0.1770   -0.0190 o         1 8JZ     -0.546000
      2 CAH         1.1270   -0.0790    0.0060 c         1 8JZ      0.632100
      3 CAB         2.0300   -0.0190    1.1880 c3        1 8JZ     -0.150100
      4 OAG         1.7980   -0.0130   -1.1840 os        1 8JZ     -0.444900
      5 CAF         0.9990   -0.0650   -2.3780 c3        1 8JZ      0.139400
      6 CAE         1.9700    0.0240   -3.5390 c3        1 8JZ     -0.086400
      7 CAD         1.2200   -0.0230   -4.8530 c3        1 8JZ     -0.079400
      8 CAA         2.1640    0.0630   -6.0240 c3        1 8JZ     -0.092100
      9 HAB         3.0970    0.0830    0.8740 hc        1 8JZ      0.075700
     10 HABA        1.7420    0.8570    1.8190 hc        1 8JZ      0.075700
     11 HABB        1.9060   -0.9560    1.7850 hc        1 8JZ      0.075700
     12 HAF         0.4230   -1.0270   -2.3860 h1        1 8JZ      0.051700
     13 HAFA        0.2780    0.7940   -2.3680 h1        1 8JZ      0.051700
     14 HAE         2.7020   -0.8240   -3.4810 hc        1 8JZ      0.053700
     15 HAEA        2.5590    0.9750   -3.4630 hc        1 8JZ      0.053700
     16 HAD         0.4870    0.8250   -4.8960 hc        1 8JZ      0.041700
     17 HADA        0.6290   -0.9750   -4.9140 hc        1 8JZ      0.041700
     18 HAA         2.8880   -0.7870   -6.0110 hc        1 8JZ      0.035033
     19 HAAA        1.5940    0.0270   -6.9840 hc        1 8JZ      0.035033
     20 HAAB        2.7450    1.0170   -5.9940 hc        1 8JZ      0.035033
@<TRIPOS>BOND
     1    1    2 2   
     2    2    3 1   
     3    2    4 1   
     4    3    9 1   
     5    3   10 1   
     6    3   11 1   
     7    4    5 1   
     8    5    6 1   
     9    5   12 1   
    10    5   13 1   
    11    6    7 1   
    12    6   14 1   
    13    6   15 1   
    14    7    8 1   
    15    7   16 1   
    16    7   17 1   
    17    8   18 1   
    18    8   19 1   
    19    8   20 1   
@<TRIPOS>SUBSTRUCTURE
     1 8JZ         1 TEMP              0 ****  ****    0 ROOT
