@<TRIPOS>MOLECULE
8JZ
   20    19     1     0     0
SMALL
bcc


@<TRIPOS>ATOM
      1 OAC        -0.1010   -0.1780   -0.0190 o         1 8JZ     -0.546000
      2 CAH         1.1270   -0.0650    0.0060 c         1 8JZ      0.632100
      3 CAB         2.0280    0.0150    1.1880 c3        1 8JZ     -0.150100
      4 OAG         1.7980   -0.0010   -1.1840 os        1 8JZ     -0.444900
      5 CAF         0.9990   -0.0710   -2.3780 c3        1 8JZ      0.139400
      6 CAE         1.9700    0.0210   -3.5390 c3        1 8JZ     -0.086400
      7 CAD         1.2220   -0.0440   -4.8530 c3        1 8JZ     -0.079400
      8 CAA         2.1650    0.0450   -6.0240 c3        1 8JZ     -0.092100
      9 HAB         3.0950    0.1140    0.8740 hc        1 8JZ      0.075700
     10 HABA        1.7370    0.9000    1.8050 hc        1 8JZ      0.075700
     11 HABB        1.9040   -0.9120    1.8000 hc        1 8JZ      0.075700
     12 HAF         0.4350   -1.0400   -2.3790 h1        1 8JZ      0.051700
     13 HAFA        0.2690    0.7790   -2.3750 h1        1 8JZ      0.051700
     14 HAE         2.7120   -0.8170   -3.4740 hc        1 8JZ      0.053700
     15 HAEA        2.5470    0.9800   -3.4700 hc        1 8JZ      0.053700
     16 HAD         0.4780    0.7940   -4.9030 hc        1 8JZ      0.041700
     17 HADA        0.6430   -1.0040   -4.9070 hc        1 8JZ      0.041700
     18 HAA         2.9000   -0.7960   -6.0050 hc        1 8JZ      0.035033
     19 HAAA        1.5960   -0.0050   -6.9840 hc        1 8JZ      0.035033
     20 HAAB        2.7340    1.0060   -6.0010 hc        1 8JZ      0.035033
@<TRIPOS>BOND
     1    1    2 2   
     2    2    3 1   
     3    2    4 1   
     4    3    9 1   
     5    3   10 1   
     6    3   11 1   
     7    4    5 1   
     8    5    6 1   
     9    5   12 1   
    10    5   13 1   
    11    6    7 1   
    12    6   14 1   
    13    6   15 1   
    14    7    8 1   
    15    7   16 1   
    16    7   17 1   
    17    8   18 1   
    18    8   19 1   
    19    8   20 1   
@<TRIPOS>SUBSTRUCTURE
     1 8JZ         1 TEMP              0 ****  ****    0 ROOT
