@<TRIPOS>MOLECULE
8K6
   56    55     1     0     0
SMALL
bcc


@<TRIPOS>ATOM
      1 C1         10.6230   -0.3490    0.0010 c3        1 8K6     -0.092100
      2 C2          9.3700    0.4890   -0.0020 c3        1 8K6     -0.080400
      3 C3          8.1250   -0.3720    0.0010 c3        1 8K6     -0.079400
      4 C4          6.8700    0.4730   -0.0020 c3        1 8K6     -0.079400
      5 C5          5.6260   -0.3890    0.0010 c3        1 8K6     -0.079400
      6 C6          4.3710    0.4570   -0.0020 c3        1 8K6     -0.079400
      7 C7          3.1270   -0.4060    0.0010 c3        1 8K6     -0.079400
      8 C8          1.8710    0.4400   -0.0020 c3        1 8K6     -0.079400
      9 C9          0.6280   -0.4230    0.0010 c3        1 8K6     -0.079400
     10 C10        -0.6280    0.4230   -0.0010 c3        1 8K6     -0.079400
     11 C11        -1.8710   -0.4400    0.0020 c3        1 8K6     -0.079400
     12 C12        -3.1270    0.4060   -0.0010 c3        1 8K6     -0.079400
     13 C13        -4.3710   -0.4570    0.0020 c3        1 8K6     -0.079400
     14 C14        -5.6260    0.3890   -0.0010 c3        1 8K6     -0.079400
     15 C15        -6.8700   -0.4730    0.0020 c3        1 8K6     -0.079400
     16 C16        -8.1250    0.3720   -0.0010 c3        1 8K6     -0.079400
     17 C17        -9.3700   -0.4890    0.0020 c3        1 8K6     -0.080400
     18 C18       -10.6230    0.3490   -0.0010 c3        1 8K6     -0.092100
     19 H11C       10.6600   -0.9990    0.9080 hc        1 8K6      0.032700
     20 H12C       10.6600   -1.0050   -0.9020 hc        1 8K6      0.032700
     21 H13C       11.5270    0.3060   -0.0010 hc        1 8K6      0.032700
     22 H21C        9.3630    1.1590    0.8980 hc        1 8K6      0.038700
     23 H22C        9.3630    1.1530   -0.9070 hc        1 8K6      0.038700
     24 H31C        8.1300   -1.0420   -0.8990 hc        1 8K6      0.039700
     25 H32C        8.1300   -1.0360    0.9060 hc        1 8K6      0.039700
     26 H41C        6.8650    1.1430    0.8980 hc        1 8K6      0.039700
     27 H42C        6.8650    1.1370   -0.9070 hc        1 8K6      0.039700
     28 H51C        5.6300   -1.0590   -0.8990 hc        1 8K6      0.039700
     29 H52C        5.6300   -1.0530    0.9060 hc        1 8K6      0.039700
     30 H61C        4.3660    1.1260    0.8990 hc        1 8K6      0.039700
     31 H62C        4.3660    1.1200   -0.9060 hc        1 8K6      0.039700
     32 H71C        3.1310   -1.0750   -0.8990 hc        1 8K6      0.039700
     33 H72C        3.1310   -1.0700    0.9060 hc        1 8K6      0.039700
     34 H81C        1.8670    1.1090    0.8990 hc        1 8K6      0.039700
     35 H82C        1.8670    1.1030   -0.9060 hc        1 8K6      0.039700
     36 H91C        0.6320   -1.0920   -0.8990 hc        1 8K6      0.039700
     37 H92C        0.6320   -1.0860    0.9060 hc        1 8K6      0.039700
     38 H101       -0.6320    1.0920    0.8990 hc        1 8K6      0.039700
     39 H102       -0.6320    1.0860   -0.9060 hc        1 8K6      0.039700
     40 H111       -1.8670   -1.1090   -0.8990 hc        1 8K6      0.039700
     41 H112       -1.8670   -1.1030    0.9060 hc        1 8K6      0.039700
     42 H121       -3.1310    1.0750    0.8990 hc        1 8K6      0.039700
     43 H122       -3.1310    1.0700   -0.9060 hc        1 8K6      0.039700
     44 H131       -4.3660   -1.1260   -0.8990 hc        1 8K6      0.039700
     45 H132       -4.3660   -1.1200    0.9060 hc        1 8K6      0.039700
     46 H141       -5.6300    1.0590    0.8990 hc        1 8K6      0.039700
     47 H142       -5.6300    1.0530   -0.9060 hc        1 8K6      0.039700
     48 H151       -6.8650   -1.1430   -0.8980 hc        1 8K6      0.039700
     49 H152       -6.8650   -1.1370    0.9070 hc        1 8K6      0.039700
     50 H161       -8.1300    1.0420    0.8990 hc        1 8K6      0.039700
     51 H162       -8.1300    1.0360   -0.9060 hc        1 8K6      0.039700
     52 H171       -9.3630   -1.1590   -0.8980 hc        1 8K6      0.038700
     53 H172       -9.3630   -1.1530    0.9070 hc        1 8K6      0.038700
     54 H181      -10.6600    1.0050    0.9020 hc        1 8K6      0.032700
     55 H182      -10.6600    0.9990   -0.9080 hc        1 8K6      0.032700
     56 H183      -11.5270   -0.3060    0.0010 hc        1 8K6      0.032700
@<TRIPOS>BOND
     1    1    2 1   
     2    1   19 1   
     3    1   20 1   
     4    1   21 1   
     5    2    3 1   
     6    2   22 1   
     7    2   23 1   
     8    3    4 1   
     9    3   24 1   
    10    3   25 1   
    11    4    5 1   
    12    4   26 1   
    13    4   27 1   
    14    5    6 1   
    15    5   28 1   
    16    5   29 1   
    17    6    7 1   
    18    6   30 1   
    19    6   31 1   
    20    7    8 1   
    21    7   32 1   
    22    7   33 1   
    23    8    9 1   
    24    8   34 1   
    25    8   35 1   
    26    9   10 1   
    27    9   36 1   
    28    9   37 1   
    29   10   11 1   
    30   10   38 1   
    31   10   39 1   
    32   11   12 1   
    33   11   40 1   
    34   11   41 1   
    35   12   13 1   
    36   12   42 1   
    37   12   43 1   
    38   13   14 1   
    39   13   44 1   
    40   13   45 1   
    41   14   15 1   
    42   14   46 1   
    43   14   47 1   
    44   15   16 1   
    45   15   48 1   
    46   15   49 1   
    47   16   17 1   
    48   16   50 1   
    49   16   51 1   
    50   17   18 1   
    51   17   52 1   
    52   17   53 1   
    53   18   54 1   
    54   18   55 1   
    55   18   56 1   
@<TRIPOS>SUBSTRUCTURE
     1 8K6         1 TEMP              0 ****  ****    0 ROOT
