@<TRIPOS>MOLECULE
8K6
   56    55     1     0     0
SMALL
bcc


@<TRIPOS>ATOM
      1 C1         -8.8250   -0.0180   -5.7050 c3        1 8K6     -0.092100
      2 C2         -7.3120   -0.0180   -5.7050 c3        1 8K6     -0.080400
      3 C3         -6.8080   -0.0180   -4.2790 c3        1 8K6     -0.079400
      4 C4         -5.2950   -0.0220   -4.2790 c3        1 8K6     -0.079400
      5 C5         -4.7910   -0.0110   -2.8530 c3        1 8K6     -0.079400
      6 C6         -3.2780   -0.0200   -2.8530 c3        1 8K6     -0.079400
      7 C7         -2.7740    0.0010   -1.4260 c3        1 8K6     -0.079400
      8 C8         -1.2610   -0.0160   -1.4260 c3        1 8K6     -0.079400
      9 C9         -0.7560    0.0130   -0.0000 c3        1 8K6     -0.079400
     10 C10         0.7560   -0.0120    0.0000 c3        1 8K6     -0.079400
     11 C11         1.2610    0.0230    1.4260 c3        1 8K6     -0.079400
     12 C12         2.7730   -0.0090    1.4270 c3        1 8K6     -0.079400
     13 C13         3.2780    0.0320    2.8520 c3        1 8K6     -0.079400
     14 C14         4.7910   -0.0060    2.8530 c3        1 8K6     -0.079400
     15 C15         5.2950    0.0400    4.2780 c3        1 8K6     -0.079400
     16 C16         6.8080   -0.0020    4.2790 c3        1 8K6     -0.079400
     17 C17         7.3130    0.0440    5.7050 c3        1 8K6     -0.080400
     18 C18         8.8250    0.0020    5.7060 c3        1 8K6     -0.092100
     19 H11C       -9.1510   -0.8150   -5.2470 hc        1 8K6      0.032700
     20 H12C       -9.1510   -0.0160   -6.6260 hc        1 8K6      0.032700
     21 H13C       -9.1510    0.7790   -5.2440 hc        1 8K6      0.032700
     22 H21C       -6.9870    0.7790   -6.1660 hc        1 8K6      0.038700
     23 H22C       -6.9870   -0.8150   -6.1660 hc        1 8K6      0.038700
     24 H31C       -7.1350   -0.8130   -3.8180 hc        1 8K6      0.039700
     25 H32C       -7.1310    0.7810   -3.8200 hc        1 8K6      0.039700
     26 H41C       -4.9680    0.7710   -4.7460 hc        1 8K6      0.039700
     27 H42C       -4.9720   -0.8230   -4.7320 hc        1 8K6      0.039700
     28 H51C       -5.1110    0.7930   -2.4000 hc        1 8K6      0.039700
     29 H52C       -5.1210   -0.8010   -2.3850 hc        1 8K6      0.039700
     30 H61C       -2.9580   -0.8270   -3.2990 hc        1 8K6      0.039700
     31 H62C       -2.9480    0.7670   -3.3260 hc        1 8K6      0.039700
     32 H71C       -3.0900    0.8100   -0.9810 hc        1 8K6      0.039700
     33 H72C       -3.1080   -0.7840   -0.9520 hc        1 8K6      0.039700
     34 H81C       -0.9270    0.7660   -1.9050 hc        1 8K6      0.039700
     35 H82C       -0.9440   -0.8280   -1.8670 hc        1 8K6      0.039700
     36 H91C       -1.0940   -0.7670    0.4800 hc        1 8K6      0.039700
     37 H92C       -1.0690    0.8260    0.4390 hc        1 8K6      0.039700
     38 H101        1.0940    0.7660   -0.4840 hc        1 8K6      0.039700
     39 H102        1.0690   -0.8280   -0.4360 hc        1 8K6      0.039700
     40 H111        0.9530    0.8410    1.8600 hc        1 8K6      0.039700
     41 H112        0.9190   -0.7520    1.9110 hc        1 8K6      0.039700
     42 H121        3.1150    0.7640    0.9380 hc        1 8K6      0.039700
     43 H122        3.0820   -0.8290    0.9960 hc        1 8K6      0.039700
     44 H131        2.9330   -0.7390    3.3420 hc        1 8K6      0.039700
     45 H132        2.9730    0.8540    3.2820 hc        1 8K6      0.039700
     46 H141        5.0960   -0.8280    2.4260 hc        1 8K6      0.039700
     47 H142        5.1350    0.7640    2.3610 hc        1 8K6      0.039700
     48 H151        4.9920    0.8640    4.7050 hc        1 8K6      0.039700
     49 H152        4.9490   -0.7290    4.7710 hc        1 8K6      0.039700
     50 H161        7.1110   -0.8260    3.8530 hc        1 8K6      0.039700
     51 H162        7.1550    0.7660    3.7860 hc        1 8K6      0.039700
     52 H171        7.0100    0.8690    6.1310 hc        1 8K6      0.038700
     53 H172        6.9650   -0.7230    6.1980 hc        1 8K6      0.038700
     54 H181        9.1720    0.7690    5.2120 hc        1 8K6      0.032700
     55 H182        9.1510    0.0320    6.6260 hc        1 8K6      0.032700
     56 H183        9.1280   -0.8230    5.2810 hc        1 8K6      0.032700
@<TRIPOS>BOND
     1    1    2 1   
     2    1   19 1   
     3    1   20 1   
     4    1   21 1   
     5    2    3 1   
     6    2   22 1   
     7    2   23 1   
     8    3    4 1   
     9    3   24 1   
    10    3   25 1   
    11    4    5 1   
    12    4   26 1   
    13    4   27 1   
    14    5    6 1   
    15    5   28 1   
    16    5   29 1   
    17    6    7 1   
    18    6   30 1   
    19    6   31 1   
    20    7    8 1   
    21    7   32 1   
    22    7   33 1   
    23    8    9 1   
    24    8   34 1   
    25    8   35 1   
    26    9   10 1   
    27    9   36 1   
    28    9   37 1   
    29   10   11 1   
    30   10   38 1   
    31   10   39 1   
    32   11   12 1   
    33   11   40 1   
    34   11   41 1   
    35   12   13 1   
    36   12   42 1   
    37   12   43 1   
    38   13   14 1   
    39   13   44 1   
    40   13   45 1   
    41   14   15 1   
    42   14   46 1   
    43   14   47 1   
    44   15   16 1   
    45   15   48 1   
    46   15   49 1   
    47   16   17 1   
    48   16   50 1   
    49   16   51 1   
    50   17   18 1   
    51   17   52 1   
    52   17   53 1   
    53   18   54 1   
    54   18   55 1   
    55   18   56 1   
@<TRIPOS>SUBSTRUCTURE
     1 8K6         1 TEMP              0 ****  ****    0 ROOT
