@<TRIPOS>MOLECULE
8LG
   13    13     1     0     0
SMALL
bcc


@<TRIPOS>ATOM
      1 C7          1.9140    0.6900    0.0540 ca        1 8LG     -0.242300
      2 C8          1.7760   -0.7030   -0.0650 ca        1 8LG      0.392200
      3 C3          0.7730    1.4930    0.0210 ca        1 8LG     -0.103000
      4 C1         -0.4740    0.8740   -0.1300 ca        1 8LG      0.006800
      5 C2         -0.5110   -0.5460   -0.2420 ca        1 8LG      0.549600
      6 N5          0.5920   -1.3300   -0.2110 nb        1 8LG     -0.702000
      7 O4         -1.5950    1.6620   -0.1620 oh        1 8LG     -0.487100
      8 O6         -1.7680   -1.0970   -0.3890 oh        1 8LG     -0.638300
      9 H1          2.9090    1.1390    0.1710 ha        1 8LG      0.148000
     10 H3          2.6580   -1.3670   -0.0430 h4        1 8LG      0.027100
     11 H4          0.8330    2.5870    0.1110 ha        1 8LG      0.159000
     12 H5         -2.3650    1.0820   -0.2710 ho        1 8LG      0.441000
     13 H2         -1.6890   -2.0620   -0.4570 ho        1 8LG      0.450000
@<TRIPOS>BOND
     1    1    2 ar  
     2    1    3 ar  
     3    1    9 1   
     4    2    6 ar  
     5    2   10 1   
     6    3    4 ar  
     7    3   11 1   
     8    4    5 ar  
     9    4    7 1   
    10    5    6 ar  
    11    5    8 1   
    12    7   12 1   
    13    8   13 1   
@<TRIPOS>SUBSTRUCTURE
     1 8LG         1 TEMP              0 ****  ****    0 ROOT
