@<TRIPOS>MOLECULE
8LG
   13    13     1     0     0
SMALL
bcc


@<TRIPOS>ATOM
      1 C7          0.0070   -0.1450   -0.0760 ca        1 8LG     -0.242300
      2 C8          1.4090   -0.1170    0.0190 ca        1 8LG      0.392200
      3 C3         -0.7560   -0.0510    1.0890 ca        1 8LG     -0.103000
      4 C1         -0.0900    0.0680    2.3150 ca        1 8LG      0.006800
      5 C2          1.3350    0.0870    2.3080 ca        1 8LG      0.549600
      6 N5          2.0800   -0.0040    1.1810 nb        1 8LG     -0.702000
      7 O4         -0.8400    0.1600    3.4590 oh        1 8LG     -0.487100
      8 O6          1.9330    0.2060    3.5460 oh        1 8LG     -0.638300
      9 H1         -0.4790   -0.2390   -1.0560 ha        1 8LG      0.148000
     10 H3          2.0430   -0.1890   -0.8820 h4        1 8LG      0.027100
     11 H4         -1.8550   -0.0680    1.0630 ha        1 8LG      0.159000
     12 H5         -0.2300    0.2360    4.2100 ho        1 8LG      0.441000
     13 H2          2.8980    0.2100    3.4370 ho        1 8LG      0.450000
@<TRIPOS>BOND
     1    1    2 ar  
     2    1    3 ar  
     3    1    9 1   
     4    2    6 ar  
     5    2   10 1   
     6    3    4 ar  
     7    3   11 1   
     8    4    5 ar  
     9    4    7 1   
    10    5    6 ar  
    11    5    8 1   
    12    7   12 1   
    13    8   13 1   
@<TRIPOS>SUBSTRUCTURE
     1 8LG         1 TEMP              0 ****  ****    0 ROOT
