@<TRIPOS>MOLECULE
8LG
   13    10     1     0     0
SMALL
bcc


@<TRIPOS>ATOM
      1 C7         -0.5420   -0.0140   -1.6190 c1        1 8LG     -0.082500
      2 C8          0.8440   -0.0140   -1.6190 c1        1 8LG      0.310300
      3 C3         -1.2240   -0.0140   -0.4370 c1        1 8LG     -0.082500
      4 C1         -0.5400   -0.0140    0.7440 c1        1 8LG      0.067600
      5 C2          0.8460   -0.0140    0.7420 c1        1 8LG      0.067600
      6 N5          1.5260   -0.0140   -0.4390 n1        1 8LG     -0.501800
      7 O4         -1.2410   -0.0610    1.9640 oh        1 8LG     -0.483600
      8 O6          1.5520    0.0020    1.9590 oh        1 8LG     -0.483600
      9 H1         -1.0310   -0.0140   -2.4640 ha        1 8LG      0.096000
     10 H3          1.3320   -0.0140   -2.4640 ha        1 8LG      0.106500
     11 H4         -2.2000   -0.0140   -0.4360 ha        1 8LG      0.096000
     12 H5         -1.5540    0.7470    2.1570 ho        1 8LG      0.445500
     13 H2          2.2340   -0.5650    1.9130 ho        1 8LG      0.445500
@<TRIPOS>BOND
     1    1    3 3   
     2    1    9 1   
     3    2    6 3   
     4    2   10 1   
     5    3   11 1   
     6    4    5 3   
     7    4    7 1   
     8    5    8 1   
     9    7   12 1   
    10    8   13 1   
@<TRIPOS>SUBSTRUCTURE
     1 8LG         1 TEMP              0 ****  ****    0 ROOT
