@<TRIPOS>MOLECULE
8LI
   26    26     1     0     0
SMALL
bcc


@<TRIPOS>ATOM
      1 S8          0.1260    0.4900    0.4350 sh        1 8LI     -0.128400
      2 N13         1.7570    0.3170   -2.3620 nc        1 8LI     -0.551300
      3 O14         3.9640   -0.2200   -2.7340 os        1 8LI     -0.407700
      4 O17         3.5840    0.8900   -5.3380 o         1 8LI     -0.468100
      5 C52         2.3370   -1.2440   -7.4270 c3        1 8LI     -0.094100
      6 C53         1.4310   -0.1560   -6.8890 c3        1 8LI     -0.064700
      7 C54         0.0270   -0.3140   -7.4340 c3        1 8LI     -0.094100
      8 C56         2.7070    0.1650   -3.2630 cd        1 8LI      0.486600
      9 C57         3.7710   -0.3140   -1.3430 c         1 8LI      0.713800
     10 C58         2.3530    0.0360   -1.0980 cc        1 8LI     -0.214600
     11 C59         1.7340    0.0860    0.1230 c2        1 8LI      0.334700
     12 C60         1.3990   -0.1770   -5.3680 c3        1 8LI     -0.167400
     13 OXT         2.3980   -0.2060    1.2740 oh        1 8LI     -0.463100
     14 HS8        -0.2890    0.7340   -0.8040 hs        1 8LI      0.226800
     15 H52         3.3720   -1.1130   -7.0260 hc        1 8LI      0.039033
     16 H52A        1.2240   -1.2250   -5.0040 hc        1 8LI      0.082200
     17 H52B        1.9620   -2.2540   -7.1330 hc        1 8LI      0.039033
     18 H53         2.3780   -1.1930   -8.5420 hc        1 8LI      0.039033
     19 H54         0.0480   -0.3090   -8.5510 hc        1 8LI      0.039033
     20 H54A        1.8400    0.8410   -7.2200 hc        1 8LI      0.067700
     21 H54B       -0.4220   -1.2780   -7.0930 hc        1 8LI      0.039033
     22 H60         0.5480    0.4570   -4.9950 hc        1 8LI      0.082200
     23 H60A       -0.6250    0.5230   -7.0880 hc        1 8LI      0.039033
     24 HXT         3.3290   -0.4340    1.0820 ho        1 8LI      0.467000
     25 O18         4.7220   -0.6430   -0.6470 o         1 8LI     -0.568500
     26 C55         2.6560    0.3460   -4.7460 c         1 8LI      0.527800
@<TRIPOS>BOND
     1    1   11 1   
     2    1   14 1   
     3    2    8 2   
     4    2   10 1   
     5    3    8 1   
     6    3    9 1   
     7    4   26 2   
     8    5    6 1   
     9    5   15 1   
    10    5   17 1   
    11    5   18 1   
    12    6    7 1   
    13    6   12 1   
    14    6   20 1   
    15    7   19 1   
    16    7   21 1   
    17    7   23 1   
    18    8   26 1   
    19    9   10 1   
    20    9   25 2   
    21   10   11 2   
    22   11   13 1   
    23   12   16 1   
    24   12   22 1   
    25   12   26 1   
    26   13   24 1   
@<TRIPOS>SUBSTRUCTURE
     1 8LI         1 TEMP              0 ****  ****    0 ROOT
