@<TRIPOS>MOLECULE
8LI
   26    26     1     0     0
SMALL
bcc


@<TRIPOS>ATOM
      1 S8          0.1390    0.5300    0.4090 sh        1 8LI     -0.128400
      2 N13         1.7850    0.3280   -2.3780 nc        1 8LI     -0.551300
      3 O14         3.9820   -0.2580   -2.7370 os        1 8LI     -0.407700
      4 O17         3.6480    0.8590   -5.3410 o         1 8LI     -0.468100
      5 C52         2.3490   -1.2340   -7.4410 c3        1 8LI     -0.094100
      6 C53         1.4740   -0.1200   -6.9070 c3        1 8LI     -0.064700
      7 C54         0.0690   -0.2340   -7.4610 c3        1 8LI     -0.094100
      8 C56         2.7380    0.1570   -3.2730 cd        1 8LI      0.486600
      9 C57         3.7770   -0.3500   -1.3470 c         1 8LI      0.713800
     10 C58         2.3660    0.0300   -1.1110 cc        1 8LI     -0.214600
     11 C59         1.7400    0.0920    0.1060 c2        1 8LI      0.334700
     12 C60         1.4330   -0.1420   -5.3860 c3        1 8LI     -0.167400
     13 OXT         2.3900   -0.2170    1.2620 oh        1 8LI     -0.463100
     14 HS8        -0.2610    0.7860   -0.8320 hs        1 8LI      0.226800
     15 H52         3.3850   -1.1360   -7.0340 hc        1 8LI      0.039033
     16 H52A        1.2220   -1.1840   -5.0250 hc        1 8LI      0.082200
     17 H52B        2.3990   -1.1830   -8.5550 hc        1 8LI      0.039033
     18 H53         1.9420   -2.2330   -7.1510 hc        1 8LI      0.039033
     19 H54         0.0970   -0.2290   -8.5770 hc        1 8LI      0.039033
     20 H54A        1.9150    0.8650   -7.2340 hc        1 8LI      0.067700
     21 H54B       -0.4110   -1.1840   -7.1240 hc        1 8LI      0.039033
     22 H60        -0.5590    0.6230   -7.1180 hc        1 8LI      0.039033
     23 H60A        0.5980    0.5170   -5.0180 hc        1 8LI      0.082200
     24 HXT         3.3170   -0.4650    1.0750 ho        1 8LI      0.467000
     25 O18         4.7160   -0.7020   -0.6460 o         1 8LI     -0.568500
     26 C55         2.7010    0.3420   -4.7550 c         1 8LI      0.527800
@<TRIPOS>BOND
     1    1   11 1   
     2    1   14 1   
     3    2    8 2   
     4    2   10 1   
     5    3    8 1   
     6    3    9 1   
     7    4   26 2   
     8    5    6 1   
     9    5   15 1   
    10    5   17 1   
    11    5   18 1   
    12    6    7 1   
    13    6   12 1   
    14    6   20 1   
    15    7   19 1   
    16    7   21 1   
    17    7   22 1   
    18    8   26 1   
    19    9   10 1   
    20    9   25 2   
    21   10   11 2   
    22   11   13 1   
    23   12   16 1   
    24   12   23 1   
    25   12   26 1   
    26   13   24 1   
@<TRIPOS>SUBSTRUCTURE
     1 8LI         1 TEMP              0 ****  ****    0 ROOT
