@<TRIPOS>MOLECULE
8LI
   26    24     1     0     0
SMALL
bcc


@<TRIPOS>ATOM
      1 S8         -4.9740    0.4370    3.1350 sh        1 8LI      0.302000
      2 N13        -1.1980    0.4370    1.7870 n1        1 8LI     -0.096000
      3 O14        -1.9020    0.4370   -0.3760 os        1 8LI     -0.223000
      4 O17         1.2260   -0.6440    0.9640 o         1 8LI     -0.242000
      5 O18        -4.2360    0.8040    0.1980 o         1 8LI     -0.262000
      6 C52         2.7370   -1.6120   -2.1530 c3        1 8LI     -0.211500
      7 C53         2.4210   -0.3280   -1.4180 c3        1 8LI     -0.102000
      8 C54         3.0240    0.8420   -2.1650 c3        1 8LI     -0.211500
      9 C55         0.4960   -0.1620    0.1210 c1        1 8LI      0.305000
     10 C56        -0.8330    0.4370    0.5240 c1        1 8LI     -0.011000
     11 C57        -3.1220    0.4370    0.5140 c2        1 8LI      0.335000
     12 C58        -2.5280    0.4370    1.9680 c1        1 8LI     -0.294000
     13 C59        -3.2010    0.4370    3.1350 c2        1 8LI      0.034000
     14 C60         0.9210   -0.1520   -1.3310 c3        1 8LI     -0.197000
     15 OXT        -2.4980    0.4370    4.3540 oh        1 8LI     -0.254000
     16 HS8        -5.3670   -0.4120    3.8510 hs        1 8LI      0.038000
     17 H52         2.3430   -2.3660   -1.6730 hc        1 8LI      0.077667
     18 H52A        2.3660   -1.5710   -3.0550 hc        1 8LI      0.077667
     19 H52B        3.7040   -1.7290   -2.2040 hc        1 8LI      0.077667
     20 H53         2.7970   -0.3670   -0.5180 hc        1 8LI      0.104000
     21 H54         2.8480    1.6670   -1.6740 hc        1 8LI      0.077667
     22 H54A        3.9880    0.7120   -2.2500 hc        1 8LI      0.077667
     23 H54B        2.6240    0.9000   -3.0540 hc        1 8LI      0.077667
     24 H60         0.6690    0.6990   -1.7370 hc        1 8LI      0.126000
     25 H60A        0.4800   -0.8820   -1.8040 hc        1 8LI      0.126000
     26 HXT        -2.7860    1.1060    4.8610 ho        1 8LI      0.268000
@<TRIPOS>BOND
     1    1   13 1   
     2    1   16 1   
     3    2   10 1   
     4    3   10 1   
     5    3   11 1   
     6    4    9 1   
     7    5   11 1   
     8    6    7 1   
     9    6   17 1   
    10    6   18 1   
    11    6   19 1   
    12    7    8 1   
    13    7   14 1   
    14    7   20 1   
    15    8   21 1   
    16    8   22 1   
    17    8   23 1   
    18    9   14 1   
    19   11   12 1   
    20   12   13 1   
    21   13   15 1   
    22   14   24 1   
    23   14   25 1   
    24   15   26 1   
@<TRIPOS>SUBSTRUCTURE
     1 8LI         1 TEMP              0 ****  ****    0 ROOT
