@<TRIPOS>MOLECULE
8LI
   26    26     1     0     0
SMALL
bcc


@<TRIPOS>ATOM
      1 S8          0.1350    0.5070    0.4340 sh        1 8LI     -0.128400
      2 N13         1.7630    0.3210   -2.3640 nc        1 8LI     -0.551300
      3 O14         3.9680   -0.2240   -2.7370 os        1 8LI     -0.407700
      4 O17         3.5900    0.8740   -5.3450 o         1 8LI     -0.468100
      5 C52         2.3240   -1.2590   -7.4240 c3        1 8LI     -0.094100
      6 C53         1.4280   -0.1620   -6.8890 c3        1 8LI     -0.064700
      7 C54         0.0220   -0.3110   -7.4310 c3        1 8LI     -0.094100
      8 C56         2.7120    0.1630   -3.2660 cd        1 8LI      0.486600
      9 C57         3.7760   -0.3120   -1.3450 c         1 8LI      0.713800
     10 C58         2.3600    0.0420   -1.1000 cc        1 8LI     -0.214600
     11 C59         1.7420    0.0980    0.1210 c2        1 8LI      0.334700
     12 C60         1.3980   -0.1760   -5.3680 c3        1 8LI     -0.167400
     13 OXT         2.4070   -0.1910    1.2730 oh        1 8LI     -0.463100
     14 HS8        -0.2800    0.7480   -0.8050 hs        1 8LI      0.226800
     15 H52         3.3600   -1.1350   -7.0250 hc        1 8LI      0.039033
     16 H52A        1.2140   -1.2210   -4.9990 hc        1 8LI      0.082200
     17 H52B        1.9410   -2.2650   -7.1250 hc        1 8LI      0.039033
     18 H53         2.3640   -1.2130   -8.5390 hc        1 8LI      0.039033
     19 H54         0.0410   -0.3110   -8.5480 hc        1 8LI      0.039033
     20 H54A        1.8440    0.8310   -7.2250 hc        1 8LI      0.067700
     21 H54B       -0.4340   -1.2700   -7.0850 hc        1 8LI      0.039033
     22 H60         0.5520    0.4650   -4.9960 hc        1 8LI      0.082200
     23 H60A       -0.6240    0.5330   -7.0880 hc        1 8LI      0.039033
     24 HXT         3.3370   -0.4230    1.0810 ho        1 8LI      0.467000
     25 O18         4.7270   -0.6410   -0.6490 o         1 8LI     -0.568500
     26 C55         2.6600    0.3390   -4.7490 c         1 8LI      0.527800
@<TRIPOS>BOND
     1    1   11 1   
     2    1   14 1   
     3    2    8 2   
     4    2   10 1   
     5    3    8 1   
     6    3    9 1   
     7    4   26 2   
     8    5    6 1   
     9    5   15 1   
    10    5   17 1   
    11    5   18 1   
    12    6    7 1   
    13    6   12 1   
    14    6   20 1   
    15    7   19 1   
    16    7   21 1   
    17    7   23 1   
    18    8   26 1   
    19    9   10 1   
    20    9   25 2   
    21   10   11 2   
    22   11   13 1   
    23   12   16 1   
    24   12   22 1   
    25   12   26 1   
    26   13   24 1   
@<TRIPOS>SUBSTRUCTURE
     1 8LI         1 TEMP              0 ****  ****    0 ROOT
