@<TRIPOS>MOLECULE
8LI
   26    26     1     0     0
SMALL
bcc


@<TRIPOS>ATOM
      1 S8         -3.0360   -2.4570   -0.3550 sh        1 8LI     -0.102400
      2 N13        -0.5090   -0.5600   -0.3370 nc        1 8LI     -0.517300
      3 O14        -0.3480    1.6990    0.0950 os        1 8LI     -0.406700
      4 O17         2.2710    1.6000   -0.9210 o         1 8LI     -0.472100
      5 C52         4.5340    0.2900    0.9760 c3        1 8LI     -0.094100
      6 C53         4.0200   -0.5260   -0.1900 c3        1 8LI     -0.064700
      7 C54         4.6760   -1.8910   -0.2160 c3        1 8LI     -0.094100
      8 C56         0.2960    0.4820   -0.2520 cd        1 8LI      0.474600
      9 C57        -1.7080    1.3740    0.2370 c         1 8LI      0.708800
     10 C58        -1.8170   -0.0780   -0.0430 cc        1 8LI     -0.177600
     11 C59        -2.9710   -0.8120   -0.0260 c2        1 8LI      0.316700
     12 C60         2.5080   -0.6820   -0.1210 c3        1 8LI     -0.167400
     13 OXT        -4.1800   -0.2530    0.2670 oh        1 8LI     -0.500100
     14 HS8        -4.3430   -2.6470   -0.2040 hs        1 8LI      0.203800
     15 H52         4.0510    1.2980    0.9800 hc        1 8LI      0.038533
     16 H52A        4.3130   -0.2190    1.9450 hc        1 8LI      0.038533
     17 H52B        5.6390    0.4250    0.8930 hc        1 8LI      0.038533
     18 H53         4.2760    0.0180   -1.1440 hc        1 8LI      0.066700
     19 H54         4.4110   -2.4720    0.7000 hc        1 8LI      0.038533
     20 H54A        4.3440   -2.4700   -1.1110 hc        1 8LI      0.038533
     21 H54B        5.7860   -1.7810   -0.2560 hc        1 8LI      0.038533
     22 H60         2.1740   -1.4860   -0.8350 hc        1 8LI      0.084200
     23 H60A        2.2030   -1.0040    0.9110 hc        1 8LI      0.084200
     24 HXT        -4.0890    0.7030    0.4470 ho        1 8LI      0.471000
     25 O18        -2.4920    2.2620    0.5420 o         1 8LI     -0.572500
     26 C55         1.7700    0.5710   -0.4750 c         1 8LI      0.526800
@<TRIPOS>BOND
     1    1   11 1   
     2    1   14 1   
     3    2    8 2   
     4    2   10 1   
     5    3    8 1   
     6    3    9 1   
     7    4   26 2   
     8    5    6 1   
     9    5   15 1   
    10    5   16 1   
    11    5   17 1   
    12    6    7 1   
    13    6   12 1   
    14    6   18 1   
    15    7   19 1   
    16    7   20 1   
    17    7   21 1   
    18    8   26 1   
    19    9   10 1   
    20    9   25 2   
    21   10   11 2   
    22   11   13 1   
    23   12   22 1   
    24   12   23 1   
    25   12   26 1   
    26   13   24 1   
@<TRIPOS>SUBSTRUCTURE
     1 8LI         1 TEMP              0 ****  ****    0 ROOT
