@<TRIPOS>MOLECULE
8LR
   31    31     1     0     0
SMALL
bcc


@<TRIPOS>ATOM
      1 OAF         0.1160    0.1880   -0.0830 oh        1 8LR     -0.594800
      2 CAG         1.5200    0.1130    0.0420 c3        1 8LR      0.132400
      3 CAH         1.9620    0.0930    1.5010 c3        1 8LR      0.088400
      4 O1          1.5680   -1.1850    2.0110 os        1 8LR     -0.463600
      5 C1          1.9210   -1.3940    3.3650 c3        1 8LR      0.307900
      6 O5          1.2200   -0.4460    4.1360 os        1 8LR     -0.426600
      7 C5         -0.2030   -0.6120    4.1580 c3        1 8LR      0.147100
      8 C6         -0.7470    0.5030    5.0520 c3        1 8LR      0.135400
      9 O6         -0.8670    1.6590    4.2400 oh        1 8LR     -0.597800
     10 C4         -0.5390   -1.9970    4.7300 c3        1 8LR      0.085100
     11 O4         -1.9500   -2.1180    4.7740 oh        1 8LR     -0.595800
     12 C3          0.0770   -3.0790    3.8260 c3        1 8LR      0.117100
     13 O3         -0.2310   -4.3640    4.3250 oh        1 8LR     -0.595800
     14 C2          1.5900   -2.8650    3.6900 c3        1 8LR      0.094100
     15 O2          2.1660   -3.2370    4.9320 oh        1 8LR     -0.599800
     16 HAG1        1.9080    1.0400   -0.4570 h1        1 8LR      0.052700
     17 HAG2        1.9040   -0.7990   -0.4890 h1        1 8LR      0.052700
     18 HAH1        1.4520    0.8980    2.0920 h1        1 8LR      0.055200
     19 HAH2        3.0750    0.2010    1.5810 h1        1 8LR      0.055200
     20 H1          3.0080   -1.1620    3.5580 h2        1 8LR      0.073700
     21 H2          1.9910   -3.5210    2.8670 h1        1 8LR      0.071700
     22 H5         -0.6060   -0.5080    3.1130 h1        1 8LR      0.081700
     23 H61C       -0.0430    0.6970    5.9040 h1        1 8LR      0.047200
     24 H62C       -1.7540    0.1950    5.4430 h1        1 8LR      0.047200
     25 H4         -0.1220   -2.0980    5.7710 h1        1 8LR      0.060700
     26 H6         -1.2000    2.3600    4.8110 ho        1 8LR      0.402000
     27 HA         -2.1440   -3.0630    4.8430 ho        1 8LR      0.421000
     28 H3         -0.3960   -3.0430    2.8030 h1        1 8LR      0.101700
     29 HB          0.2850   -4.4950    5.1330 ho        1 8LR      0.421000
     30 HC          3.1230   -3.1700    4.8340 ho        1 8LR      0.414000
     31 HAF        -0.2540   -0.5300    0.4460 ho        1 8LR      0.410000
@<TRIPOS>BOND
     1    1    2 1   
     2    1   31 1   
     3    2    3 1   
     4    2   16 1   
     5    2   17 1   
     6    3    4 1   
     7    3   18 1   
     8    3   19 1   
     9    4    5 1   
    10    5    6 1   
    11    5   14 1   
    12    5   20 1   
    13    6    7 1   
    14    7    8 1   
    15    7   10 1   
    16    7   22 1   
    17    8    9 1   
    18    8   23 1   
    19    8   24 1   
    20    9   26 1   
    21   10   11 1   
    22   10   12 1   
    23   10   25 1   
    24   11   27 1   
    25   12   13 1   
    26   12   14 1   
    27   12   28 1   
    28   13   29 1   
    29   14   15 1   
    30   14   21 1   
    31   15   30 1   
@<TRIPOS>SUBSTRUCTURE
     1 8LR         1 TEMP              0 ****  ****    0 ROOT
