@<TRIPOS>MOLECULE
8M5
   33    33     1     0     0
SMALL
bcc


@<TRIPOS>ATOM
      1 C1          0.1160   -2.0710   -1.4740 c2        1 8M5     -0.533000
      2 C2          0.7270   -1.1290   -0.8150 c1        1 8M5      0.142000
      3 C3          2.1470    0.9490    1.4990 c3        1 8M5     -0.095000
      4 C4          1.5520    0.7160    2.8650 c2        1 8M5      0.031000
      5 C5          0.2860    0.8070    3.3620 c2        1 8M5     -0.290000
      6 C6          0.0950    0.4990    4.7440 c1        1 8M5      0.034000
      7 C15         3.9080    0.2950    2.9450 c1        1 8M5     -0.010000
      8 N19         3.5860    0.6590    1.6990 n3        1 8M5     -0.199000
      9 C24         1.9280   -0.5460    7.9550 c3        1 8M5     -0.139000
     10 C25         1.9800   -0.8550    9.4060 c2        1 8M5     -0.157000
     11 C26         1.2190   -0.2330   10.3040 c2        1 8M5     -0.212000
     12 C27         5.3850   -1.4060    8.6180 c1        1 8M5      0.154000
     13 C28         4.3700   -1.0440    7.9650 c1        1 8M5     -0.666000
     14 C29         3.2690   -0.6540    7.2840 c2        1 8M5      0.359000
     15 N35         3.3960   -0.3570    5.9420 n7        1 8M5     -0.230000
     16 O37         1.0910    0.1390    5.5210 os        1 8M5     -0.061000
     17 CAE         2.6460    0.3180    3.7260 c2        1 8M5     -0.311000
     18 H1          0.0290   -3.1100   -1.1140 ha        1 8M5      0.199000
     19 H2          1.7020    0.2550    0.7270 h1        1 8M5      0.144000
     20 H6         -0.3710   -1.9190   -2.4510 ha        1 8M5      0.199000
     21 H5         -0.5860    1.1010    2.7640 ha        1 8M5      0.170000
     22 H15         2.0020    2.0110    1.1660 h1        1 8M5      0.144000
     23 H181        4.4890    1.8210    0.2060 h1        1 8M5      0.095000
     24 H182        5.5220    0.4920    0.9310 h1        1 8M5      0.095000
     25 H183        4.1650    0.0770   -0.2310 h1        1 8M5      0.095000
     26 H25         1.2160   -1.2650    7.4530 hc        1 8M5      0.134000
     27 H26         2.6900   -1.6480    9.6980 ha        1 8M5      0.149000
     28 H27         1.2530   -0.4910   11.3700 ha        1 8M5      0.115500
     29 H28         0.5150    0.5680   10.0420 ha        1 8M5      0.115500
     30 H35         4.3170   -0.4280    5.5340 hn        1 8M5      0.290000
     31 C18         4.4870    0.7680    0.5950 c3        1 8M5     -0.072000
     32 C33         2.4110    0.0320    5.0540 c2        1 8M5      0.179000
     33 H24         1.5120    0.4880    7.7850 hc        1 8M5      0.134000
@<TRIPOS>BOND
     1    1    2 1   
     2    1   18 1   
     3    1   20 1   
     4    3    4 1   
     5    3    8 1   
     6    3   19 1   
     7    3   22 1   
     8    4    5 1   
     9    4   17 1   
    10    5    6 1   
    11    5   21 1   
    12    6   16 1   
    13    7    8 1   
    14    7   17 1   
    15    8   31 1   
    16    9   10 1   
    17    9   14 1   
    18    9   26 1   
    19    9   33 1   
    20   10   11 1   
    21   10   27 1   
    22   11   28 1   
    23   11   29 1   
    24   12   13 1   
    25   13   14 1   
    26   14   15 1   
    27   15   30 1   
    28   15   32 1   
    29   16   32 1   
    30   17   32 1   
    31   23   31 1   
    32   24   31 1   
    33   25   31 1   
@<TRIPOS>SUBSTRUCTURE
     1 8M5         1 TEMP              0 ****  ****    0 ROOT
