@<TRIPOS>MOLECULE
8M5
   33    25     1     0     0
SMALL
bcc


@<TRIPOS>ATOM
      1 C1         -2.0890    0.3400   -4.1250 c1        1 8M5     -0.130833
      2 C2         -0.7040    0.3390   -4.2140 c1        1 8M5     -0.116000
      3 C3          0.0750    0.2910   -3.0450 c1        1 8M5     -0.029500
      4 C4         -0.5330    0.2450   -1.8170 c1        1 8M5     -0.029500
      5 C5         -1.9360    0.2460   -1.7270 c1        1 8M5     -0.116000
      6 C6         -2.7050    0.2930   -2.8810 c1        1 8M5     -0.130833
      7 C15         1.6750    0.2260   -1.4980 c1        1 8M5      0.009000
      8 C18         2.5130    0.3400   -3.7840 c3        1 8M5     -0.073000
      9 N19         1.4440    0.2790   -2.8450 n2        1 8M5     -0.162000
     10 C24         0.9810    0.0160    3.5150 c1        1 8M5     -0.130833
     11 C25         1.1310   -0.2310    4.8710 c1        1 8M5     -0.130833
     12 C26         0.0550   -0.6860    5.6160 c1        1 8M5     -0.130833
     13 C27        -1.1720   -0.8950    5.0050 c1        1 8M5     -0.130833
     14 C28        -1.3220   -0.6480    3.6490 c1        1 8M5     -0.189000
     15 C29        -0.2460   -0.1930    2.9040 c1        1 8M5      0.082000
     16 C33         0.6440   -0.1070    0.6140 c1        1 8M5      0.390000
     17 N35        -0.4160    0.1200    1.5300 n2        1 8M5     -0.323000
     18 O37         1.6970   -0.5680    1.0060 o         1 8M5     -0.367000
     19 CAE         0.4540    0.2040   -0.8560 c1        1 8M5     -0.225000
     20 H1         -2.6300    0.3740   -4.9360 ha        1 8M5      0.138500
     21 H2         -0.2710    0.3720   -5.0880 ha        1 8M5      0.135500
     22 H6         -3.6780    0.2940   -2.8190 ha        1 8M5      0.138500
     23 H5         -2.3690    0.2130   -0.8530 ha        1 8M5      0.135500
     24 H15         2.5510    0.2210   -1.0670 DU        1 8M5      0.188000
     25 H181        3.3690    0.2570   -3.3110 h1        1 8M5      0.094333
     26 H182        2.4230   -0.3940   -4.4300 h1        1 8M5      0.094333
     27 H183        2.4830    1.1990   -4.2580 h1        1 8M5      0.094333
     28 H24         1.7390    0.3370    2.9900 ha        1 8M5      0.138500
     29 H25         1.9950   -0.0840    5.3010 ha        1 8M5      0.138500
     30 H26         0.1610   -0.8600    6.5710 ha        1 8M5      0.138500
     31 H27        -1.9300   -1.2160    5.5300 ha        1 8M5      0.138500
     32 H28        -2.1860   -0.7950    3.2200 ha        1 8M5      0.127000
     33 H35        -1.2060    0.4700    1.2360 hn        1 8M5      0.234000
@<TRIPOS>BOND
     1    1    6 1   
     2    1   20 1   
     3    2    3 1   
     4    2   21 1   
     5    4    5 1   
     6    5   23 1   
     7    6   22 1   
     8    7    9 1   
     9    7   19 1   
    10    8    9 1   
    11    8   25 1   
    12    8   26 1   
    13    8   27 1   
    14   10   11 1   
    15   10   28 1   
    16   11   29 1   
    17   12   13 1   
    18   12   30 1   
    19   13   31 1   
    20   14   15 1   
    21   14   32 1   
    22   15   17 1   
    23   16   18 1   
    24   16   19 1   
    25   17   33 1   
@<TRIPOS>SUBSTRUCTURE
     1 8M5         1 TEMP              0 ****  ****    0 ROOT
