@<TRIPOS>MOLECULE
8M5
   34    33     1     0     0
SMALL
bcc


@<TRIPOS>ATOM
      1 C1         -3.7690   -1.0170   -0.7040 c2        1 8M5     -0.508000
      2 C2         -2.6220   -0.8410   -0.1230 c1        1 8M5      0.107000
      3 C3          3.8210    0.1100    1.2890 c3        1 8M5     -0.103000
      4 C4          2.5980   -0.0420    2.1960 c2        1 8M5      0.200000
      5 C5          1.3340   -0.2350    1.6710 c1        1 8M5     -0.256000
      6 C6          0.2340   -0.4040    1.2160 c1        1 8M5     -0.017000
      7 C15         4.5250    0.2670    3.5130 c1        1 8M5     -0.074000
      8 N19         4.9310    0.2930    2.2450 n3        1 8M5     -0.172000
      9 C24         1.3970    0.0490    7.6230 c2        1 8M5     -0.284000
     10 C25         0.9230   -0.5340    8.7470 c2        1 8M5      0.100000
     11 C26         1.6480   -1.3020    9.7120 c2        1 8M5     -0.539000
     12 C27         1.1970   -1.7640   10.8750 c1        1 8M5      0.379000
     13 C28         3.8370    0.3150    8.2380 c3        1 8M5     -0.264000
     14 C29         2.7750    0.1390    7.1940 c2        1 8M5      0.266000
     15 N35         3.1430    0.1320    5.9140 n         1 8M5     -0.223000
     16 O37         1.0850   -0.1940    4.8800 o         1 8M5     -0.256000
     17 CAE         3.0420    0.0550    3.4960 c2        1 8M5     -0.303000
     18 H1         -4.1950   -2.0090   -0.9400 ha        1 8M5      0.209000
     19 H2          3.9730   -0.8110    0.6640 h1        1 8M5      0.154000
     20 H6         -4.4320   -0.1930   -1.0210 ha        1 8M5      0.209000
     21 H5         -0.7520   -0.5550    0.7990 ha        1 8M5      0.288000
     22 H15         3.7140    1.0040    0.6180 h1        1 8M5      0.154000
     23 H181        6.3260    1.3890    1.1240 h1        1 8M5      0.108333
     24 H182        6.9610    0.5940    2.6500 h1        1 8M5      0.108333
     25 H183        6.5850   -0.4220    1.1710 h1        1 8M5      0.108333
     26 H26         2.7000   -1.5850    9.4750 ha        1 8M5      0.201000
     27 H27         4.4140   -0.6400    8.3600 hc        1 8M5      0.141333
     28 H28         3.3740    0.5900    9.2190 hc        1 8M5      0.141333
     29 H35         4.5630    1.1220    7.9560 hc        1 8M5      0.141333
     30 C18         6.2710    0.4730    1.7720 c3        1 8M5     -0.082000
     31 C33         2.2960   -0.0200    4.7370 c2        1 8M5      0.394000
     32 H24         0.6520    0.5020    6.9320 ha        1 8M5      0.200000
     33 H352        4.1300    0.2620    5.6860 hn        1 8M5      0.306000
     34 H25        -0.1700   -0.4470    8.9330 ha        1 8M5      0.164000
@<TRIPOS>BOND
     1    1    2 1   
     2    1   18 1   
     3    1   20 1   
     4    3    4 1   
     5    3    8 1   
     6    3   19 1   
     7    3   22 1   
     8    4    5 1   
     9    4   17 1   
    10    5    6 1   
    11    6   21 1   
    12    7    8 1   
    13    7   17 1   
    14    8   30 1   
    15    9   10 1   
    16    9   14 1   
    17    9   32 1   
    18   10   11 1   
    19   10   34 1   
    20   11   12 1   
    21   11   26 1   
    22   13   14 1   
    23   13   27 1   
    24   13   28 1   
    25   13   29 1   
    26   14   15 1   
    27   15   31 1   
    28   15   33 1   
    29   16   31 1   
    30   17   31 1   
    31   23   30 1   
    32   24   30 1   
    33   25   30 1   
@<TRIPOS>SUBSTRUCTURE
     1 8M5         1 TEMP              0 ****  ****    0 ROOT
