@<TRIPOS>MOLECULE
8M5
   33    31     1     0     0
SMALL
bcc


@<TRIPOS>ATOM
      1 C1         -1.6190   -1.0870   -1.8040 c2        1 8M5     -0.530000
      2 C2         -0.9210   -0.8010   -0.7440 c1        1 8M5      0.141000
      3 C3          2.7560   -0.0980    1.5600 c2        1 8M5     -0.140000
      4 C4          1.7360    0.1980    2.4230 c2        1 8M5     -0.029000
      5 C5          0.3500   -0.0920    2.2660 c2        1 8M5     -0.475000
      6 C6         -0.6210   -0.1860    3.1570 c1        1 8M5      0.263000
      7 C15         3.8490    0.9340    3.3080 c1        1 8M5     -0.061000
      8 N19         4.0040    0.3500    2.1160 n3        1 8M5     -0.141000
      9 C24         1.6020   -0.6860    7.7040 c3        1 8M5     -0.076000
     10 C25         1.6770   -1.1850    9.0910 c2        1 8M5     -0.492000
     11 C26         0.9460   -2.1070    9.6710 c1        1 8M5      0.193000
     12 C27         4.9590    0.0930    8.8120 c1        1 8M5      0.139000
     13 C28         3.9700    0.0110    8.0370 c1        1 8M5     -0.674000
     14 C29         2.8980   -0.0890    7.2180 c2        1 8M5      0.360000
     15 N35         2.9910    0.3730    5.9230 n         1 8M5     -0.302000
     16 O37         0.8430   -0.0850    5.1930 o         1 8M5     -0.323000
     17 CAE         2.3340    0.9430    3.6070 c3        1 8M5     -0.204000
     18 H1         -1.9650   -2.1050   -2.0510 ha        1 8M5      0.200000
     19 H2          2.7290   -0.5950    0.5880 h4        1 8M5      0.180000
     20 H6         -1.9330   -0.3390   -2.5510 ha        1 8M5      0.200000
     21 H5          0.0150   -0.3000    1.2090 ha        1 8M5      0.235000
     22 H15         1.9900    2.0170    3.5980 hc        1 8M5      0.179000
     23 H181        5.2240    0.6830    0.4410 h1        1 8M5      0.102000
     24 H182        6.0840    0.5530    2.0540 h1        1 8M5      0.102000
     25 H183        5.4070   -0.9470    1.2470 h1        1 8M5      0.102000
     26 H25         1.3000   -1.5180    7.0050 hc        1 8M5      0.136000
     27 H26         2.4630   -0.7110    9.7340 ha        1 8M5      0.227000
     28 H27         3.6140    0.1920   11.5580 ha        1 8M5      0.001500
     29 H28         4.0850    0.2240   11.0710 ha        1 8M5      0.001500
     30 H35         3.8810    0.7510    5.6350 hn        1 8M5      0.287000
     31 C18         5.2450    0.1490    1.4280 c3        1 8M5     -0.080000
     32 C33         1.9790    0.3560    4.9510 c2        1 8M5      0.344000
     33 H24         0.7970    0.1030    7.6300 hc        1 8M5      0.136000
@<TRIPOS>BOND
     1    1    2 1   
     2    1   18 1   
     3    1   20 1   
     4    3    4 1   
     5    3    8 1   
     6    3   19 1   
     7    4    5 1   
     8    4   17 1   
     9    5    6 1   
    10    5   21 1   
    11    7    8 1   
    12    7   17 1   
    13    8   31 1   
    14    9   10 1   
    15    9   14 1   
    16    9   26 1   
    17    9   33 1   
    18   10   11 1   
    19   10   27 1   
    20   12   13 1   
    21   13   14 1   
    22   14   15 1   
    23   15   30 1   
    24   15   32 1   
    25   16   32 1   
    26   17   22 1   
    27   17   32 1   
    28   23   31 1   
    29   24   31 1   
    30   25   31 1   
    31   28   29 1   
@<TRIPOS>SUBSTRUCTURE
     1 8M5         1 TEMP              0 ****  ****    0 ROOT
