@<TRIPOS>MOLECULE
8M5
   33    35     1     0     0
SMALL
bcc


@<TRIPOS>ATOM
      1 C1         -4.7300    1.3910   -0.2400 ca        1 8M5     -0.111000
      2 C2         -4.5010    0.0290   -0.1140 ca        1 8M5     -0.141000
      3 C3         -3.1710   -0.3970    0.0240 ca        1 8M5     -0.054200
      4 C4         -2.0840    0.5540    0.0300 ca        1 8M5     -0.053800
      5 C5         -2.3560    1.9170   -0.0940 ca        1 8M5     -0.072000
      6 C6         -3.6760    2.3220   -0.2290 ca        1 8M5     -0.151000
      7 C15        -1.2400   -1.5630    0.2700 cc        1 8M5     -0.060100
      8 N19        -2.6250   -1.6830    0.1820 na        1 8M5     -0.066400
      9 C24         3.4350    0.9890    0.5310 ca        1 8M5     -0.171500
     10 C25         4.8090    1.2130    0.5090 ca        1 8M5     -0.104500
     11 C26         5.6830    0.2630   -0.0140 ca        1 8M5     -0.160000
     12 C27         5.1720   -0.9290   -0.5240 ca        1 8M5     -0.104500
     13 C28         3.8040   -1.1740   -0.5160 ca        1 8M5     -0.171500
     14 C29         2.9070   -0.2140    0.0150 ca        1 8M5      0.074600
     15 N35         1.5370   -0.5190    0.0300 n         1 8M5     -0.476100
     16 O37         0.6610    1.5740    0.4890 o         1 8M5     -0.593100
     17 CAE        -0.8670   -0.2170    0.1830 cd        1 8M5     -0.212400
     18 H1         -5.7630    1.7550   -0.3500 ha        1 8M5      0.131000
     19 H2         -5.3290   -0.6920   -0.1210 ha        1 8M5      0.132000
     20 H6         -3.9100    3.3930   -0.3280 ha        1 8M5      0.134000
     21 H5         -1.5240    2.6390   -0.0730 ha        1 8M5      0.164000
     22 H15        -0.6190   -2.4510    0.4110 h4        1 8M5      0.166000
     23 H181       -3.5670   -3.2510   -0.8510 h1        1 8M5      0.054033
     24 H182       -2.7690   -3.6950    0.7340 h1        1 8M5      0.054033
     25 H183       -4.3370   -2.7490    0.7280 h1        1 8M5      0.054033
     26 H25         5.2030    2.1580    0.9130 ha        1 8M5      0.131000
     27 H26         6.7660    0.4510   -0.0250 ha        1 8M5      0.131000
     28 H27         5.8540   -1.6860   -0.9400 ha        1 8M5      0.131000
     29 H28         3.4280   -2.1230   -0.9270 ha        1 8M5      0.148000
     30 H35         1.3030   -1.4340   -0.2820 hn        1 8M5      0.309500
     31 C18        -3.3590   -2.9050    0.1980 c3        1 8M5      0.026600
     32 C33         0.4790    0.3650    0.2490 c         1 8M5      0.715300
     33 H24         2.7680    1.7610    0.9490 ha        1 8M5      0.148000
@<TRIPOS>BOND
     1    1    2 ar  
     2    1    6 ar  
     3    1   18 1   
     4    2    3 ar  
     5    2   19 1   
     6    3    4 ar  
     7    3    8 1   
     8    4    5 ar  
     9    4   17 1   
    10    5    6 ar  
    11    5   21 1   
    12    6   20 1   
    13    7    8 1   
    14    7   17 2   
    15    7   22 1   
    16    8   31 1   
    17    9   10 ar  
    18    9   14 ar  
    19    9   33 1   
    20   10   11 ar  
    21   10   26 1   
    22   11   12 ar  
    23   11   27 1   
    24   12   13 ar  
    25   12   28 1   
    26   13   14 ar  
    27   13   29 1   
    28   14   15 1   
    29   15   30 1   
    30   15   32 1   
    31   16   32 2   
    32   17   32 1   
    33   23   31 1   
    34   24   31 1   
    35   25   31 1   
@<TRIPOS>SUBSTRUCTURE
     1 8M5         1 TEMP              0 ****  ****    0 ROOT
