@<TRIPOS>MOLECULE
8MC
   26    28     1     0     0
SMALL
bcc


@<TRIPOS>ATOM
      1 C           0.2600    1.5940    0.5220 c         1 8MC      0.704600
      2 O           1.2870    1.9200    1.3690 os        1 8MC     -0.265200
      3 CA         -0.5170    0.3860    0.9990 c3        1 8MC     -0.169400
      4 C9          0.0930    0.1130    2.3870 c3        1 8MC      0.087800
      5 C10         1.3470    0.9130    2.3690 c2        1 8MC     -0.409100
      6 C1          2.5600    0.5260    2.9000 c2        1 8MC      0.464100
      7 O2          3.6950    1.0220    3.0060 o         1 8MC     -0.427000
      8 C8          0.3710   -1.3100    2.7140 ca        1 8MC     -0.165300
      9 C7         -0.5530   -2.3220    2.4650 ca        1 8MC     -0.077000
     10 C6         -0.3070   -3.6390    2.8450 ca        1 8MC     -0.219000
     11 C5          0.9020   -3.9410    3.4930 ca        1 8MC      0.132100
     12 O4          1.0530   -5.2760    3.8460 os        1 8MC     -0.343900
     13 C11         2.2850   -5.6150    4.4650 c3        1 8MC      0.118700
     14 C4          1.8580   -2.9580    3.7480 ca        1 8MC     -0.257000
     15 C2          1.5920   -1.6320    3.3500 ca        1 8MC      0.215100
     16 O3          2.5640   -0.7210    3.6340 os        1 8MC     -0.385200
     17 H2         -0.3590   -0.4690    0.2990 hc        1 8MC      0.060200
     18 H3         -1.6060    0.6160    1.0530 hc        1 8MC      0.060200
     19 H4         -0.6180    0.5130    3.1680 hc        1 8MC      0.034700
     20 H5         -1.4980   -2.0720    1.9600 ha        1 8MC      0.120000
     21 H6         -1.0360   -4.4340    2.6510 ha        1 8MC      0.129000
     22 H7          3.1460   -5.3910    3.7880 h1        1 8MC      0.035367
     23 H8          2.4040   -5.0710    5.4340 h1        1 8MC      0.035367
     24 H9          2.2000   -6.7170    4.6420 h1        1 8MC      0.035367
     25 H10         2.8120   -3.1770    4.2430 ha        1 8MC      0.144000
     26 OXT         0.0800    2.3250   -0.4560 o         1 8MC     -0.660500
@<TRIPOS>BOND
     1    1    2 1   
     2    1    3 1   
     3    1   26 2   
     4    2    5 1   
     5    3    4 1   
     6    3   17 1   
     7    3   18 1   
     8    4    5 1   
     9    4    8 1   
    10    4   19 1   
    11    5    6 2   
    12    6    7 1   
    13    6   16 1   
    14    8    9 ar  
    15    8   15 ar  
    16    9   10 ar  
    17    9   20 1   
    18   10   11 ar  
    19   10   21 1   
    20   11   12 1   
    21   11   14 ar  
    22   12   13 1   
    23   13   22 1   
    24   13   23 1   
    25   13   24 1   
    26   14   15 ar  
    27   14   25 1   
    28   15   16 1   
@<TRIPOS>SUBSTRUCTURE
     1 8MC         1 TEMP              0 ****  ****    0 ROOT
