@<TRIPOS>MOLECULE
8MC
   26    28     1     0     0
SMALL
bcc


@<TRIPOS>ATOM
      1 C           0.0750    1.5400    0.5560 c         1 8MC      0.704600
      2 O           0.8330    2.1080    1.5460 os        1 8MC     -0.264200
      3 CA         -0.4310    0.1660    0.9360 c3        1 8MC     -0.169400
      4 C9         -0.0040    0.0400    2.4110 c3        1 8MC      0.087800
      5 C10         0.9870    1.1380    2.5710 c2        1 8MC     -0.411100
      6 C1          2.1550    1.0710    3.3030 c2        1 8MC      0.465100
      7 O2          3.0890    1.8440    3.5760 o         1 8MC     -0.425000
      8 C8          0.5760   -1.2670    2.8170 ca        1 8MC     -0.160300
      9 C7          0.0020   -2.4780    2.4480 ca        1 8MC     -0.077000
     10 C6          0.5140   -3.6950    2.9000 ca        1 8MC     -0.262000
     11 C5          1.6310   -3.6840    3.7430 ca        1 8MC      0.132100
     12 O4          2.2190   -4.8290    4.2670 os        1 8MC     -0.336900
     13 C11         1.6580   -6.0610    3.8450 c3        1 8MC      0.121700
     14 C4          2.2490   -2.4870    4.1240 ca        1 8MC     -0.213000
     15 C2          1.7200   -1.2710    3.6540 ca        1 8MC      0.212100
     16 O3          2.3610   -0.1420    4.0640 os        1 8MC     -0.382200
     17 H2          0.0520   -0.6100    0.2940 hc        1 8MC      0.060200
     18 H3         -1.5360    0.1060    0.8100 hc        1 8MC      0.060200
     19 H4         -0.9100    0.2290    3.0580 hc        1 8MC      0.034700
     20 H5         -0.8790   -2.4750    1.7880 ha        1 8MC      0.118000
     21 H6          0.0380   -4.6340    2.5940 ha        1 8MC      0.118000
     22 H7          1.7230   -6.1710    2.7360 h1        1 8MC      0.031700
     23 H8          2.2920   -6.8310    4.3540 h1        1 8MC      0.031700
     24 H9          0.5950   -6.1490    4.1800 h1        1 8MC      0.031700
     25 H10         3.1310   -2.4900    4.7770 ha        1 8MC      0.153000
     26 OXT        -0.1270    2.2120   -0.4600 o         1 8MC     -0.660500
@<TRIPOS>BOND
     1    1    2 1   
     2    1    3 1   
     3    1   26 2   
     4    2    5 1   
     5    3    4 1   
     6    3   17 1   
     7    3   18 1   
     8    4    5 1   
     9    4    8 1   
    10    4   19 1   
    11    5    6 2   
    12    6    7 1   
    13    6   16 1   
    14    8    9 ar  
    15    8   15 ar  
    16    9   10 ar  
    17    9   20 1   
    18   10   11 ar  
    19   10   21 1   
    20   11   12 1   
    21   11   14 ar  
    22   12   13 1   
    23   13   22 1   
    24   13   23 1   
    25   13   24 1   
    26   14   15 ar  
    27   14   25 1   
    28   15   16 1   
@<TRIPOS>SUBSTRUCTURE
     1 8MC         1 TEMP              0 ****  ****    0 ROOT
