@<TRIPOS>MOLECULE
8ME
   43    45     1     0     0
SMALL
bcc


@<TRIPOS>ATOM
      1 CAI        -0.3940    0.8700    0.0700 ca        1 8ME     -0.200300
      2 CAE         0.9240    1.2290   -0.2440 ca        1 8ME     -0.076000
      3 CAD         1.9630    0.7580    0.5540 ca        1 8ME     -0.200300
      4 CAH         1.6470   -0.0720    1.6520 ca        1 8ME      0.420200
      5 NAN         0.3930   -0.4240    1.9730 nb        1 8ME     -0.701000
      6 CAT        -0.6110    0.0500    1.1890 ca        1 8ME      0.316600
      7 CAX        -2.0420   -0.2840    1.5700 c3        1 8ME      0.103200
      8 CAA        -2.5490    0.7160    2.6000 c3        1 8ME     -0.129100
      9 NAP        -2.1420   -1.7060    2.0810 n4        1 8ME     -0.679800
     10 CAR        -3.5750   -2.1880    2.1390 c         1 8ME      0.543100
     11 OAB        -4.1300   -2.3400    1.0620 o         1 8ME     -0.414100
     12 CAL        -4.1160   -2.4240    3.5180 c3        1 8ME     -0.142400
     13 CAM        -5.5490   -2.9190    3.4460 c3        1 8ME     -0.118700
     14 CAS        -6.1440   -3.1590    4.8250 cc        1 8ME      0.478900
     15 NAO        -5.4260   -2.9140    5.9060 nd        1 8ME     -0.645100
     16 CAV        -6.0090   -3.1480    7.1600 ca        1 8ME      0.167400
     17 CAJ        -5.2740   -2.8990    8.3420 ca        1 8ME     -0.120000
     18 CAF        -5.8560   -3.1330    9.5800 ca        1 8ME     -0.087000
     19 CAG        -7.1670   -3.6120    9.6830 ca        1 8ME     -0.133000
     20 CAK        -7.9090   -3.8640    8.5360 ca        1 8ME     -0.055000
     21 CAW        -7.3390   -3.6350    7.2780 ca        1 8ME     -0.177600
     22 CAU        -8.1170   -3.8990    6.0540 c         1 8ME      0.711100
     23 OAC        -9.2820   -4.3220    6.0120 o         1 8ME     -0.588500
     24 NAQ        -7.4550   -3.6380    4.8340 n         1 8ME     -0.498400
     25 H1         -1.2320    1.2290   -0.5450 ha        1 8ME      0.159000
     26 H2          1.1280    1.8750   -1.1130 ha        1 8ME      0.169000
     27 H3          3.0110    1.0190    0.3440 ha        1 8ME      0.174000
     28 H4          2.4420   -0.4730    2.3100 h4        1 8ME      0.048100
     29 H5         -2.6880   -0.2420    0.6390 hx        1 8ME      0.117700
     30 H6         -3.6190    0.5240    2.8580 hc        1 8ME      0.080033
     31 H7         -2.4720    1.7410    2.1550 hc        1 8ME      0.080033
     32 H8         -1.9320    0.6960    3.5320 hc        1 8ME      0.080033
     33 H9         -1.6050   -2.3100    1.4440 hn        1 8ME      0.468800
     34 H10        -3.4730   -3.1800    4.0500 hc        1 8ME      0.121700
     35 H11        -4.0640   -1.4610    4.1030 hc        1 8ME      0.121700
     36 H12        -5.5860   -3.8790    2.8620 hc        1 8ME      0.087700
     37 H13        -6.1830   -2.1640    2.9060 hc        1 8ME      0.087700
     38 H14        -4.2420   -2.5220    8.2790 ha        1 8ME      0.147000
     39 H15        -5.2770   -2.9370   10.4970 ha        1 8ME      0.148000
     40 H16        -7.6090   -3.7910   10.6750 ha        1 8ME      0.154000
     41 H17        -8.9430   -4.2420    8.5960 ha        1 8ME      0.169000
     42 H18        -7.9380   -3.8040    3.9790 hn        1 8ME      0.340500
     43 HAP2       -1.7130   -1.7550    3.0130 hn        1 8ME      0.468800
@<TRIPOS>BOND
     1    1    2 ar  
     2    1    6 ar  
     3    1   25 1   
     4    2    3 ar  
     5    2   26 1   
     6    3    4 ar  
     7    3   27 1   
     8    4    5 ar  
     9    4   28 1   
    10    5    6 ar  
    11    6    7 1   
    12    7    8 1   
    13    7    9 1   
    14    7   29 1   
    15    8   30 1   
    16    8   31 1   
    17    8   32 1   
    18    9   10 1   
    19    9   33 1   
    20    9   43 1   
    21   10   11 2   
    22   10   12 1   
    23   12   13 1   
    24   12   34 1   
    25   12   35 1   
    26   13   14 1   
    27   13   36 1   
    28   13   37 1   
    29   14   15 2   
    30   14   24 1   
    31   15   16 1   
    32   16   17 ar  
    33   16   21 ar  
    34   17   18 ar  
    35   17   38 1   
    36   18   19 ar  
    37   18   39 1   
    38   19   20 ar  
    39   19   40 1   
    40   20   21 ar  
    41   20   41 1   
    42   21   22 1   
    43   22   23 2   
    44   22   24 1   
    45   24   42 1   
@<TRIPOS>SUBSTRUCTURE
     1 8ME         1 TEMP              0 ****  ****    0 ROOT
