@<TRIPOS>MOLECULE
8ME
   43    45     1     0     0
SMALL
bcc


@<TRIPOS>ATOM
      1 CAI        -0.3620    0.9030    0.1190 ca        1 8ME     -0.200300
      2 CAE         0.9580    1.2690   -0.1790 ca        1 8ME     -0.076000
      3 CAD         1.9900    0.8000    0.6290 ca        1 8ME     -0.200300
      4 CAH         1.6650   -0.0370    1.7190 ca        1 8ME      0.420200
      5 NAN         0.4100   -0.3960    2.0250 nb        1 8ME     -0.701000
      6 CAT        -0.5880    0.0770    1.2320 ca        1 8ME      0.316600
      7 CAX        -2.0210   -0.2660    1.5950 c3        1 8ME      0.103200
      8 CAA        -2.5450    0.7280    2.6230 c3        1 8ME     -0.129100
      9 NAP        -2.1200   -1.6900    2.0990 ny        1 8ME     -0.679800
     10 CAR        -3.5520   -2.1790    2.1390 c         1 8ME      0.543100
     11 OAB        -4.0930   -2.3290    1.0540 o         1 8ME     -0.414100
     12 CAL        -4.1080   -2.4230    3.5100 c3        1 8ME     -0.142400
     13 CAM        -5.5360   -2.9270    3.4190 c3        1 8ME     -0.118700
     14 CAS        -6.1460   -3.1760    4.7910 cc        1 8ME      0.478900
     15 NAO        -5.4430   -2.9290    5.8800 nd        1 8ME     -0.645100
     16 CAV        -6.0400   -3.1700    7.1270 ca        1 8ME      0.167400
     17 CAJ        -5.3200   -2.9200    8.3180 ca        1 8ME     -0.120000
     18 CAF        -5.9160   -3.1620    9.5490 ca        1 8ME     -0.087000
     19 CAG        -7.2240   -3.6510    9.6350 ca        1 8ME     -0.133000
     20 CAK        -7.9500   -3.9040    8.4770 ca        1 8ME     -0.055000
     21 CAW        -7.3670   -3.6670    7.2270 ca        1 8ME     -0.177600
     22 CAU        -8.1290   -3.9330    5.9930 c         1 8ME      0.711100
     23 OAC        -9.2900   -4.3650    5.9360 o         1 8ME     -0.588500
     24 NAQ        -7.4540   -3.6640    4.7820 ns        1 8ME     -0.498400
     25 H1         -1.1950    1.2610   -0.5030 ha        1 8ME      0.159000
     26 H2          1.1680    1.9210   -1.0430 ha        1 8ME      0.169000
     27 H3          3.0390    1.0660    0.4310 ha        1 8ME      0.174000
     28 H4          2.4550   -0.4380    2.3840 h4        1 8ME      0.048100
     29 H5         -2.6570   -0.2230    0.6570 hx        1 8ME      0.117700
     30 H6         -1.9380    0.7070    3.5620 hc        1 8ME      0.080033
     31 H7         -3.6160    0.5300    2.8680 hc        1 8ME      0.080033
     32 H8         -2.4670    1.7550    2.1840 hc        1 8ME      0.080033
     33 H9         -1.7020   -1.7410    3.0350 hn        1 8ME      0.468800
     34 H10        -3.4660   -3.1770    4.0480 hc        1 8ME      0.121700
     35 H11        -4.0690   -1.4620    4.0980 hc        1 8ME      0.121700
     36 H12        -5.5600   -3.8860    2.8320 hc        1 8ME      0.087700
     37 H13        -6.1690   -2.1740    2.8740 hc        1 8ME      0.087700
     38 H14        -4.2900   -2.5360    8.2690 ha        1 8ME      0.147000
     39 H15        -5.3490   -2.9650   10.4730 ha        1 8ME      0.148000
     40 H16        -7.6780   -3.8360   10.6210 ha        1 8ME      0.154000
     41 H17        -8.9830   -4.2900    8.5240 ha        1 8ME      0.169000
     42 H18        -7.9250   -3.8310    3.9220 hn        1 8ME      0.340500
     43 HAP2       -1.5740   -2.2890    1.4660 hn        1 8ME      0.468800
@<TRIPOS>BOND
     1    1    2 ar  
     2    1    6 ar  
     3    1   25 1   
     4    2    3 ar  
     5    2   26 1   
     6    3    4 ar  
     7    3   27 1   
     8    4    5 ar  
     9    4   28 1   
    10    5    6 ar  
    11    6    7 1   
    12    7    8 1   
    13    7    9 1   
    14    7   29 1   
    15    8   30 1   
    16    8   31 1   
    17    8   32 1   
    18    9   10 1   
    19    9   33 1   
    20    9   43 1   
    21   10   11 2   
    22   10   12 1   
    23   12   13 1   
    24   12   34 1   
    25   12   35 1   
    26   13   14 1   
    27   13   36 1   
    28   13   37 1   
    29   14   15 2   
    30   14   24 1   
    31   15   16 1   
    32   16   17 ar  
    33   16   21 ar  
    34   17   18 ar  
    35   17   38 1   
    36   18   19 ar  
    37   18   39 1   
    38   19   20 ar  
    39   19   40 1   
    40   20   21 ar  
    41   20   41 1   
    42   21   22 1   
    43   22   23 2   
    44   22   24 1   
    45   24   42 1   
@<TRIPOS>SUBSTRUCTURE
     1 8ME         1 TEMP              0 ****  ****    0 ROOT
