@<TRIPOS>MOLECULE
8ME
   42    35     1     0     0
SMALL
bcc


@<TRIPOS>ATOM
      1 CAI         3.2840    1.9140   -3.8930 c1        1 8ME     -0.165000
      2 CAE         4.4630    1.4170   -4.3720 c1        1 8ME     -0.117000
      3 CAD         5.4880    1.1450   -3.5090 c1        1 8ME     -0.117000
      4 CAH         5.3280    1.3750   -2.1370 c1        1 8ME     -0.068000
      5 NAN         4.1580    1.8670   -1.6650 n1        1 8ME     -0.147000
      6 CAT         3.1290    2.1420   -2.5290 c1        1 8ME     -0.047000
      7 CAX         1.8440    2.6690   -2.0070 c3        1 8ME      0.072000
      8 CAA         2.0510    4.0700   -1.4710 c3        1 8ME     -0.219000
      9 NAP         1.3690    1.8120   -0.9430 n3        1 8ME     -0.362000
     10 CAR         0.0380    1.3090   -0.9780 c1        1 8ME      0.298000
     11 OAB        -0.7380    1.6580   -1.8970 o         1 8ME     -0.383000
     12 CAL        -0.4880    0.4550    0.1870 c2        1 8ME     -0.170000
     13 CAM        -1.9780    0.1690   -0.0240 c3        1 8ME     -0.116000
     14 CAS        -2.4900   -0.7250    1.1050 c1        1 8ME      0.126000
     15 NAO        -2.1790   -2.1470    1.1060 n1        1 8ME     -0.207000
     16 CAV        -2.6820   -3.0070    2.1770 c1        1 8ME      0.046000
     17 CAJ        -2.4140   -4.4060    2.1570 c1        1 8ME     -0.117000
     18 CAF        -2.9240   -5.2200    3.1430 c1        1 8ME     -0.117000
     19 CAG        -3.7030   -4.6750    4.1620 c1        1 8ME     -0.117000
     20 CAK        -3.9670   -3.3020    4.1830 c1        1 8ME     -0.117000
     21 CAW        -3.4480   -2.4720    3.1790 c1        1 8ME     -0.170000
     22 CAU        -3.7730   -0.9910    3.1760 c2        1 8ME      0.346000
     23 OAC        -4.4590   -0.5140    4.0690 o         1 8ME     -0.347000
     24 NAQ        -3.2870   -0.1670    2.1470 n2        1 8ME     -0.338000
     25 H1          2.5510    2.1100   -4.5070 ha        1 8ME      0.150000
     26 H2          4.5740    1.2550   -5.3420 ha        1 8ME      0.145500
     27 H3          6.3180    0.7960   -3.8450 ha        1 8ME      0.145500
     28 H4          6.0690    1.1780   -1.5120 ha        1 8ME      0.159000
     29 H5          1.1800    2.6900   -2.7300 h1        1 8ME      0.133000
     30 H6          1.5610    4.7180   -2.0420 hc        1 8ME      0.087333
     31 H7          1.7110    4.1230   -0.5500 hc        1 8ME      0.087333
     32 H8          2.9820    4.2810   -1.4780 hc        1 8ME      0.087333
     33 H9          1.9630    1.5420   -0.2470 hn        1 8ME      0.234000
     34 H10         0.0160   -0.4100    0.2220 ha        1 8ME      0.123500
     35 H11        -0.3590    0.9590    1.0620 ha        1 8ME      0.123500
     36 H12        -2.4780    1.0160   -0.0230 hc        1 8ME      0.122000
     37 H13        -2.1050   -0.2830   -0.8810 hc        1 8ME      0.122000
     38 H14        -1.8660   -4.7900    1.4400 ha        1 8ME      0.145500
     39 H15        -2.7460   -6.1510    3.1290 ha        1 8ME      0.145500
     40 H16        -4.0600   -5.2450    4.8510 ha        1 8ME      0.145500
     41 H17        -4.5130   -2.9200    4.8990 ha        1 8ME      0.145500
     42 H18        -3.4180    0.7540    2.1870 hn        1 8ME      0.252000
@<TRIPOS>BOND
     1    1    6 1   
     2    1   25 1   
     3    2    3 1   
     4    2   26 1   
     5    3   27 1   
     6    4    5 1   
     7    4   28 1   
     8    6    7 1   
     9    7    8 1   
    10    7    9 1   
    11    7   29 1   
    12    8   30 1   
    13    8   31 1   
    14    8   32 1   
    15    9   10 1   
    16    9   33 1   
    17   10   11 1   
    18   12   13 1   
    19   12   34 1   
    20   12   35 1   
    21   13   14 1   
    22   13   36 1   
    23   13   37 1   
    24   14   15 1   
    25   16   21 1   
    26   17   18 1   
    27   17   38 1   
    28   18   39 1   
    29   19   20 1   
    30   19   40 1   
    31   20   41 1   
    32   21   22 1   
    33   22   23 1   
    34   22   24 1   
    35   24   42 1   
@<TRIPOS>SUBSTRUCTURE
     1 8ME         1 TEMP              0 ****  ****    0 ROOT
