@<TRIPOS>MOLECULE
8ME
   42    44     1     0     0
SMALL
bcc


@<TRIPOS>ATOM
      1 CAI         5.6290   -0.7040    0.7960 ca        1 8ME     -0.230300
      2 CAE         6.4380    0.0780    1.6230 ca        1 8ME     -0.092000
      3 CAD         6.4130    1.4650    1.4790 ca        1 8ME     -0.244300
      4 CAH         5.5660    2.0170    0.5000 ca        1 8ME      0.397200
      5 NAN         4.7810    1.2830   -0.3090 nb        1 8ME     -0.673000
      6 CAT         4.8160   -0.0640   -0.1630 ca        1 8ME      0.375600
      7 CAX         3.9560   -0.9320   -1.0820 c3        1 8ME      0.054400
      8 CAA         4.6230   -0.9710   -2.4590 c3        1 8ME     -0.101100
      9 NAP         2.5830   -0.4890   -1.1520 n         1 8ME     -0.552900
     10 CAR         1.5760   -1.1030   -0.4320 c         1 8ME      0.654100
     11 OAB         1.7670   -2.1750    0.1790 o         1 8ME     -0.622100
     12 CAL         0.2110   -0.4340   -0.4660 c3        1 8ME     -0.141400
     13 CAM        -0.7880   -1.2680    0.3050 c3        1 8ME     -0.112700
     14 CAS        -2.1850   -0.6740    0.3330 cc        1 8ME      0.495900
     15 NAO        -2.4520    0.4650   -0.2810 nd        1 8ME     -0.634100
     16 CAV        -3.7590    0.9650   -0.2220 ca        1 8ME      0.185400
     17 CAJ        -4.0810    2.1840   -0.8680 ca        1 8ME     -0.125000
     18 CAF        -5.3750    2.6780   -0.8090 ca        1 8ME     -0.094000
     19 CAG        -6.3810    1.9900   -0.1170 ca        1 8ME     -0.154000
     20 CAK        -6.0900    0.7950    0.5240 ca        1 8ME     -0.058000
     21 CAW        -4.7890    0.2790    0.4760 ca        1 8ME     -0.190600
     22 CAU        -4.4660   -0.9900    1.1530 c         1 8ME      0.709100
     23 OAC        -5.2720   -1.6860    1.7950 o         1 8ME     -0.622500
     24 NAQ        -3.1340   -1.4220    1.0450 n         1 8ME     -0.498400
     25 H1          5.6180   -1.7980    0.8920 ha        1 8ME      0.150000
     26 H2          7.0820   -0.3950    2.3790 ha        1 8ME      0.141000
     27 H3          7.0320    2.1150    2.1090 ha        1 8ME      0.145000
     28 H4          5.5100    3.1100    0.3520 h4        1 8ME      0.022100
     29 H5          3.9510   -1.9820   -0.6540 h1        1 8ME      0.093700
     30 H6          5.6770   -1.3160   -2.3390 hc        1 8ME      0.048033
     31 H7          4.0850   -1.6820   -3.1310 hc        1 8ME      0.048033
     32 H8          4.6290    0.0390   -2.9360 hc        1 8ME      0.048033
     33 H9          2.4280    0.4240   -1.5110 hn        1 8ME      0.320500
     34 H10         0.2930    0.5910   -0.0160 hc        1 8ME      0.084200
     35 H11        -0.1210   -0.3150   -1.5320 hc        1 8ME      0.084200
     36 H12        -0.8410   -2.2950   -0.1520 hc        1 8ME      0.082700
     37 H13        -0.4270   -1.3920    1.3630 hc        1 8ME      0.082700
     38 H14        -3.3000    2.7340   -1.4160 ha        1 8ME      0.151000
     39 H15        -5.6170    3.6260   -1.3140 ha        1 8ME      0.137000
     40 H16        -7.4010    2.4010   -0.0830 ha        1 8ME      0.140000
     41 H17        -6.8650    0.2370    1.0740 ha        1 8ME      0.159000
     42 H18        -2.8640   -2.2740    1.4850 hn        1 8ME      0.338500
@<TRIPOS>BOND
     1    1    2 ar  
     2    1    6 ar  
     3    1   25 1   
     4    2    3 ar  
     5    2   26 1   
     6    3    4 ar  
     7    3   27 1   
     8    4    5 ar  
     9    4   28 1   
    10    5    6 ar  
    11    6    7 1   
    12    7    8 1   
    13    7    9 1   
    14    7   29 1   
    15    8   30 1   
    16    8   31 1   
    17    8   32 1   
    18    9   10 1   
    19    9   33 1   
    20   10   11 2   
    21   10   12 1   
    22   12   13 1   
    23   12   34 1   
    24   12   35 1   
    25   13   14 1   
    26   13   36 1   
    27   13   37 1   
    28   14   15 2   
    29   14   24 1   
    30   15   16 1   
    31   16   17 ar  
    32   16   21 ar  
    33   17   18 ar  
    34   17   38 1   
    35   18   19 ar  
    36   18   39 1   
    37   19   20 ar  
    38   19   40 1   
    39   20   21 ar  
    40   20   41 1   
    41   21   22 1   
    42   22   23 2   
    43   22   24 1   
    44   24   42 1   
@<TRIPOS>SUBSTRUCTURE
     1 8ME         1 TEMP              0 ****  ****    0 ROOT
