@<TRIPOS>MOLECULE
8ME
   43    45     1     0     0
SMALL
bcc


@<TRIPOS>ATOM
      1 CAI        -0.3690    0.9240    0.1210 ca        1 8ME     -0.200300
      2 CAE         0.9520    1.2790   -0.1840 ca        1 8ME     -0.076000
      3 CAD         1.9870    0.7870    0.6070 ca        1 8ME     -0.200300
      4 CAH         1.6630   -0.0600    1.6900 ca        1 8ME      0.420200
      5 NAN         0.4060   -0.4080    2.0030 nb        1 8ME     -0.701000
      6 CAT        -0.5940    0.0860    1.2260 ca        1 8ME      0.316600
      7 CAX        -2.0270   -0.2440    1.5980 c3        1 8ME      0.103200
      8 CAA        -2.5290    0.7420    2.6440 c3        1 8ME     -0.129100
      9 NAP        -2.1380   -1.6750    2.0850 n4        1 8ME     -0.679800
     10 CAR        -3.5750   -2.1470    2.1320 c         1 8ME      0.543100
     11 OAB        -4.1280   -2.2760    1.0510 o         1 8ME     -0.414100
     12 CAL        -4.1200   -2.4020    3.5060 c3        1 8ME     -0.142400
     13 CAM        -5.5550   -2.8890    3.4220 c3        1 8ME     -0.118700
     14 CAS        -6.1540   -3.1490    4.7960 cc        1 8ME      0.478900
     15 NAO        -5.4390   -2.9230    5.8820 nd        1 8ME     -0.645100
     16 CAV        -6.0260   -3.1740    7.1310 ca        1 8ME      0.167400
     17 CAJ        -5.2930   -2.9460    8.3190 ca        1 8ME     -0.120000
     18 CAF        -5.8790   -3.1970    9.5520 ca        1 8ME     -0.087000
     19 CAG        -7.1910   -3.6750    9.6440 ca        1 8ME     -0.133000
     20 CAK        -7.9310   -3.9060    8.4910 ca        1 8ME     -0.055000
     21 CAW        -7.3570   -3.6590    7.2380 ca        1 8ME     -0.177600
     22 CAU        -8.1330   -3.9020    6.0080 c         1 8ME      0.711100
     23 OAC        -9.2990   -4.3210    5.9560 o         1 8ME     -0.588500
     24 NAQ        -7.4680   -3.6240    4.7940 n         1 8ME     -0.498400
     25 H1         -1.2040    1.3000   -0.4880 ha        1 8ME      0.159000
     26 H2          1.1620    1.9400   -1.0420 ha        1 8ME      0.169000
     27 H3          3.0370    1.0440    0.4020 ha        1 8ME      0.174000
     28 H4          2.4540   -0.4780    2.3410 h4        1 8ME      0.048100
     29 H5         -2.6720   -0.1820    0.6670 hx        1 8ME      0.117700
     30 H6         -3.6010    0.5530    2.8980 hc        1 8ME      0.080033
     31 H7         -1.9140    0.7010    3.5770 hc        1 8ME      0.080033
     32 H8         -2.4440    1.7740    2.2180 hc        1 8ME      0.080033
     33 H9         -1.7110   -1.7420    3.0160 hn        1 8ME      0.468800
     34 H10        -3.4820   -3.1710    4.0270 hc        1 8ME      0.121700
     35 H11        -4.0650   -1.4490    4.1060 hc        1 8ME      0.121700
     36 H12        -6.1840   -2.1220    2.8930 hc        1 8ME      0.087700
     37 H13        -5.5960   -3.8390    2.8220 hc        1 8ME      0.087700
     38 H14        -4.2590   -2.5720    8.2640 ha        1 8ME      0.147000
     39 H15        -5.3010   -3.0180   10.4730 ha        1 8ME      0.148000
     40 H16        -7.6370   -3.8680   10.6320 ha        1 8ME      0.154000
     41 H17        -8.9670   -4.2830    8.5420 ha        1 8ME      0.169000
     42 H18        -7.9480   -3.7750    3.9360 hn        1 8ME      0.340500
     43 HAP2       -1.6050   -2.2710    1.4390 hn        1 8ME      0.468800
@<TRIPOS>BOND
     1    1    2 ar  
     2    1    6 ar  
     3    1   25 1   
     4    2    3 ar  
     5    2   26 1   
     6    3    4 ar  
     7    3   27 1   
     8    4    5 ar  
     9    4   28 1   
    10    5    6 ar  
    11    6    7 1   
    12    7    8 1   
    13    7    9 1   
    14    7   29 1   
    15    8   30 1   
    16    8   31 1   
    17    8   32 1   
    18    9   10 1   
    19    9   33 1   
    20    9   43 1   
    21   10   11 2   
    22   10   12 1   
    23   12   13 1   
    24   12   34 1   
    25   12   35 1   
    26   13   14 1   
    27   13   36 1   
    28   13   37 1   
    29   14   15 2   
    30   14   24 1   
    31   15   16 1   
    32   16   17 ar  
    33   16   21 ar  
    34   17   18 ar  
    35   17   38 1   
    36   18   19 ar  
    37   18   39 1   
    38   19   20 ar  
    39   19   40 1   
    40   20   21 ar  
    41   20   41 1   
    42   21   22 1   
    43   22   23 2   
    44   22   24 1   
    45   24   42 1   
@<TRIPOS>SUBSTRUCTURE
     1 8ME         1 TEMP              0 ****  ****    0 ROOT
