@<TRIPOS>MOLECULE
8MG
   38    40     1     0     0
SMALL
bcc


@<TRIPOS>ATOM
      1 P          -0.0250   -4.0640   -2.2170 p5        1 8MG      1.427800
      2 OP3         0.1890   -3.7800   -0.7830 o         1 8MG     -0.838500
      3 OP2         0.2070   -5.3350   -2.9340 o         1 8MG     -0.838500
      4 O5'         0.7250   -2.8570   -3.0620 os        1 8MG     -0.577200
      5 N9          1.9260    2.2960   -1.0420 na        1 8MG     -0.256900
      6 C4          2.5650    3.5580   -1.0680 cc        1 8MG      0.061400
      7 N3          3.8870    3.8170   -1.1380 nd        1 8MG     -0.535300
      8 C2          4.2320    5.1850   -1.0940 cd        1 8MG      0.726900
      9 N2          5.5140    5.5260   -1.1470 n2        1 8MG     -0.941100
     10 N1          3.1980    6.1920   -0.9930 n         1 8MG     -0.573400
     11 C6          1.8200    5.9230   -0.9180 c         1 8MG      0.656000
     12 O6          1.0400    6.9030   -0.8270 o         1 8MG     -0.733500
     13 C5          1.4840    4.5270   -0.9520 cc        1 8MG      0.054800
     14 N7          0.2470    3.8820   -0.8920 nd        1 8MG     -0.604000
     15 C8          0.5160    2.5670   -0.9600 cd        1 8MG      0.369800
     16 C2'         2.4830    0.0310   -0.0850 c3        1 8MG     -0.156400
     17 C5'         0.6650   -1.5780   -2.5140 c3        1 8MG      0.186400
     18 C4'         2.0810   -1.0620   -2.2150 c3        1 8MG      0.082100
     19 O4'         2.1070    0.3590   -2.4340 os        1 8MG     -0.443600
     20 C1'         2.5950    1.0460   -1.2490 c3        1 8MG      0.258800
     21 C3'         2.5450   -1.3360   -0.7690 c3        1 8MG      0.103100
     22 O3'         3.8600   -1.8640   -0.7330 oh        1 8MG     -0.599800
     23 C          -0.4920    1.4770   -0.9330 c3        1 8MG     -0.113400
     24 OP1        -1.5630   -3.6830   -2.6250 oh        1 8MG     -0.783400
     25 H21         5.6640    6.5130   -1.1150 hn        1 8MG      0.330400
     26 H22        -1.8450   -4.1520   -3.4010 ho        1 8MG      0.421000
     27 H1          3.4640    7.1470   -0.9750 hn        1 8MG      0.286500
     28 H2'         1.5160    0.1410    0.4630 hc        1 8MG      0.066700
     29 H2''        3.3230    0.1720    0.6340 hc        1 8MG      0.066700
     30 H5'         0.2010   -0.8870   -3.2760 h1        1 8MG      0.038200
     31 H5''        0.0420   -1.5800   -1.5770 h1        1 8MG      0.038200
     32 H4'         2.8020   -1.5080   -2.9540 h1        1 8MG      0.067700
     33 H1'         3.6870    1.2650   -1.4560 h2        1 8MG      0.083700
     34 H3'         1.9120   -2.1190   -0.2610 h1        1 8MG      0.146700
     35 HO3'        4.4240   -1.2490   -1.2170 ho        1 8MG      0.386000
     36 HC1        -1.5010    1.8760   -1.2010 hc        1 8MG      0.046033
     37 HC2        -0.2160    0.6720   -1.6610 hc        1 8MG      0.046033
     38 HC3        -0.5470    1.0310    0.0920 hc        1 8MG      0.046033
@<TRIPOS>BOND
     1    1    2 1   
     2    1    3 1   
     3    1    4 1   
     4    1   24 1   
     5    4   17 1   
     6    5    6 1   
     7    5   15 2   
     8    5   20 1   
     9    6    7 2   
    10    6   13 1   
    11    7    8 1   
    12    8    9 2   
    13    8   10 1   
    14    9   25 1   
    15   10   11 1   
    16   10   27 1   
    17   11   12 2   
    18   11   13 1   
    19   13   14 2   
    20   14   15 1   
    21   15   23 1   
    22   16   20 1   
    23   16   21 1   
    24   16   28 1   
    25   16   29 1   
    26   17   18 1   
    27   17   30 1   
    28   17   31 1   
    29   18   19 1   
    30   18   21 1   
    31   18   32 1   
    32   19   20 1   
    33   20   33 1   
    34   21   22 1   
    35   21   34 1   
    36   22   35 1   
    37   23   36 1   
    38   23   37 1   
    39   23   38 1   
    40   24   26 1   
@<TRIPOS>SUBSTRUCTURE
     1 8MG         1 TEMP              0 ****  ****    0 ROOT
