@<TRIPOS>MOLECULE
8MG
   38    35     1     0     0
SMALL
bcc


@<TRIPOS>ATOM
      1 P          -0.1660    4.7150    2.2550 p3        1 8MG      2.523000
      2 OP3         0.9100    5.6430    1.7190 os        1 8MG     -1.273000
      3 OP2        -0.3930    4.9980    3.7170 o         1 8MG     -1.237000
      4 O5'         0.2940    3.2310    2.0770 os        1 8MG     -0.717000
      5 N9         -0.1220   -0.6470    0.3170 n2        1 8MG     -0.130000
      6 C4         -0.3720   -1.7340   -0.4710 c1        1 8MG      0.005000
      7 N3          0.3180   -2.2750   -1.6610 n1        1 8MG     -0.193000
      8 C2         -0.1550   -3.4930   -2.2810 c1        1 8MG      0.147000
      9 N2          0.5470   -4.0450   -3.4210 n2        1 8MG     -0.305000
     10 N1         -1.2980   -4.1790   -1.7390 n         1 8MG     -0.337000
     11 C6         -1.9530   -3.6670   -0.6100 c2        1 8MG      0.391000
     12 O6         -2.9030   -4.2540   -0.1440 o         1 8MG     -0.371000
     13 C5         -1.4400   -2.3980    0.0570 c2        1 8MG     -0.216000
     14 N7         -1.8490   -1.7210    1.1670 n2        1 8MG     -0.118000
     15 C8         -1.0340   -0.6400    1.3260 c1        1 8MG      0.023000
     16 C2'         1.5990    0.3940   -1.1280 c3        1 8MG     -0.211000
     17 C5'         0.0990    2.6190    0.8390 c3        1 8MG      0.082000
     18 C4'         1.2810    2.0010    0.4320 c3        1 8MG     -0.052000
     19 O4'         1.4740    0.6270    1.1820 os        1 8MG     -0.294000
     20 C1'         1.2420   -0.2740    0.2870 c2        1 8MG      0.159000
     21 C3'         1.2110    1.6560   -1.0490 c3        1 8MG      0.046000
     22 O3'         2.1360    2.5260   -1.8260 oh        1 8MG     -0.402000
     23 C          -1.5860   -0.5740    2.7970 c2        1 8MG     -0.171000
     24 OP1        -1.4560    4.9420    1.4900 o         1 8MG     -1.237000
     25 H21         1.3470   -3.7020   -3.6700 hn        1 8MG      0.178000
     26 H22         0.1720   -4.7510   -3.9030 hn        1 8MG      0.178000
     27 H1         -1.5970   -4.9470   -2.1290 hn        1 8MG      0.236000
     28 H2'         1.1050   -0.0710   -1.8630 hc        1 8MG      0.091500
     29 H2''        2.5730    0.3480   -1.2900 hc        1 8MG      0.091500
     30 H5'        -0.1650    3.3060    0.1680 h1        1 8MG      0.039000
     31 H5''       -0.6080    1.9510    0.9150 h1        1 8MG      0.039000
     32 H4'         2.0490    2.5930    0.6050 h1        1 8MG      0.109000
     33 H1'         1.8260   -1.0810    0.4460 h4        1 8MG      0.106000
     34 H3'         0.2980    1.7520   -1.3760 h1        1 8MG      0.143000
     35 HO3'        1.7160    2.8300   -2.5600 ho        1 8MG      0.302000
     36 HC1        -2.4590   -0.1040    2.8030 ha        1 8MG      0.124000
     37 HC2        -0.9390   -0.0790    3.3730 ha        1 8MG      0.124000
     38 HC3        -1.7030   -1.4970    3.1490 ha        1 8MG      0.124000
@<TRIPOS>BOND
     1    1    3 1   
     2    1    4 1   
     3    1   24 1   
     4    4   17 1   
     5    5    6 1   
     6    5   15 1   
     7    6   13 1   
     8    7    8 1   
     9    8   10 1   
    10    9   25 1   
    11    9   26 1   
    12   10   11 1   
    13   10   27 1   
    14   11   12 1   
    15   11   13 1   
    16   13   14 1   
    17   14   15 1   
    18   16   20 1   
    19   16   21 1   
    20   16   28 1   
    21   16   29 1   
    22   17   18 1   
    23   17   30 1   
    24   17   31 1   
    25   18   19 1   
    26   18   21 1   
    27   18   32 1   
    28   19   20 1   
    29   20   33 1   
    30   21   22 1   
    31   21   34 1   
    32   22   35 1   
    33   23   36 1   
    34   23   37 1   
    35   23   38 1   
@<TRIPOS>SUBSTRUCTURE
     1 8MG         1 TEMP              0 ****  ****    0 ROOT
