@<TRIPOS>MOLECULE
8MO
   24    26     1     0     0
SMALL
bcc


@<TRIPOS>ATOM
      1 C1         -0.0270   -0.0910   -0.1320 ca        1 8MO     -0.154800
      2 C2         -4.3420    0.0510   -1.6850 cc        1 8MO     -0.006900
      3 C3         -3.1410    0.0610   -2.3460 cd        1 8MO     -0.175200
      4 C4         -2.7310   -1.1170    3.2040 c3        1 8MO      0.109700
      5 C5          1.3130   -0.2370    2.3400 c         1 8MO      0.719800
      6 C6          2.0600   -0.1820    1.0930 cc        1 8MO     -0.252200
      7 C7          1.4170   -0.1150   -0.0890 cd        1 8MO     -0.009200
      8 C8         -0.7180   -0.0250   -1.3510 ca        1 8MO     -0.041000
      9 C9         -2.1020   -0.0020   -1.3310 ca        1 8MO     -0.116800
     10 C10        -2.7970   -0.0490   -0.0760 ca        1 8MO      0.087100
     11 C11        -2.1430   -0.1010    1.1530 ca        1 8MO      0.093100
     12 C12        -0.7300   -0.1270    1.0990 ca        1 8MO      0.135100
     13 O1         -0.0830   -0.2030    2.3140 os        1 8MO     -0.323200
     14 O2         -4.1730   -0.0160   -0.2880 os        1 8MO     -0.181200
     15 O3         -2.8640    0.0010    2.3220 os        1 8MO     -0.307900
     16 O4          1.7240   -0.3190    3.4960 o         1 8MO     -0.561500
     17 H2         -5.3860    0.0840   -1.9870 h4        1 8MO      0.196000
     18 H3         -2.9690    0.1090   -3.4180 ha        1 8MO      0.169000
     19 H41        -3.0690   -2.0530    2.7000 h1        1 8MO      0.051033
     20 H42        -3.4120   -0.8520    4.0520 h1        1 8MO      0.051033
     21 H43        -1.6750   -1.2140    3.5570 h1        1 8MO      0.051033
     22 H6          3.1550   -0.2010    1.1880 ha        1 8MO      0.171000
     23 H7          1.9620   -0.0750   -1.0460 ha        1 8MO      0.149000
     24 H8         -0.1640    0.0100   -2.3000 ha        1 8MO      0.148000
@<TRIPOS>BOND
     1    1    7 1   
     2    1    8 ar  
     3    1   12 ar  
     4    2    3 2   
     5    2   14 1   
     6    2   17 1   
     7    3    9 1   
     8    3   18 1   
     9    4   15 1   
    10    4   19 1   
    11    4   20 1   
    12    4   21 1   
    13    5    6 1   
    14    5   13 1   
    15    5   16 2   
    16    6    7 2   
    17    6   22 1   
    18    7   23 1   
    19    8    9 ar  
    20    8   24 1   
    21    9   10 ar  
    22   10   11 ar  
    23   10   14 1   
    24   11   12 ar  
    25   11   15 1   
    26   12   13 1   
@<TRIPOS>SUBSTRUCTURE
     1 8MO         1 TEMP              0 ****  ****    0 ROOT
