@<TRIPOS>MOLECULE
8MO
   24    26     1     0     0
SMALL
bcc


@<TRIPOS>ATOM
      1 C1         -1.3350    0.0880    0.5460 ca        1 8MO     -0.154800
      2 C2         -0.5210   -0.0940   -3.9660 cc        1 8MO     -0.006900
      3 C3         -1.6940   -0.0210   -3.2600 cd        1 8MO     -0.175200
      4 C4          2.9720    0.8010   -0.1110 c3        1 8MO      0.109700
      5 C5          0.1350    0.1150    2.9470 c         1 8MO      0.719800
      6 C6         -1.3190    0.1670    2.9660 cc        1 8MO     -0.252200
      7 C7         -2.0200    0.1560    1.8160 cd        1 8MO     -0.009200
      8 C8         -2.0440    0.0790   -0.6650 ca        1 8MO     -0.041000
      9 C9         -1.3350    0.0100   -1.8510 ca        1 8MO     -0.116800
     10 C10         0.0990   -0.0490   -1.8220 ca        1 8MO      0.087100
     11 C11         0.8340   -0.0570   -0.6390 ca        1 8MO      0.093100
     12 C12         0.0810    0.0200    0.5570 ca        1 8MO      0.135100
     13 O1          0.8100    0.0370    1.7260 os        1 8MO     -0.323200
     14 O2          0.6030   -0.1130   -3.1180 os        1 8MO     -0.181200
     15 O3          2.1950   -0.2600   -0.6750 os        1 8MO     -0.307900
     16 O4          0.9320    0.1340    3.8830 o         1 8MO     -0.561500
     17 H2         -0.2610   -0.1410   -5.0210 h4        1 8MO      0.196000
     18 H3         -2.7090    0.0080   -3.6490 ha        1 8MO      0.169000
     19 H41         4.0250    0.4600   -0.2760 h1        1 8MO      0.051033
     20 H42         2.7750    1.7580   -0.6510 h1        1 8MO      0.051033
     21 H43         2.7540    0.9090    0.9790 h1        1 8MO      0.051033
     22 H6         -1.7850    0.2150    3.9610 ha        1 8MO      0.171000
     23 H7         -3.1210    0.1980    1.8060 ha        1 8MO      0.149000
     24 H8         -3.1430    0.1260   -0.6620 ha        1 8MO      0.148000
@<TRIPOS>BOND
     1    1    7 1   
     2    1    8 ar  
     3    1   12 ar  
     4    2    3 2   
     5    2   14 1   
     6    2   17 1   
     7    3    9 1   
     8    3   18 1   
     9    4   15 1   
    10    4   19 1   
    11    4   20 1   
    12    4   21 1   
    13    5    6 1   
    14    5   13 1   
    15    5   16 2   
    16    6    7 2   
    17    6   22 1   
    18    7   23 1   
    19    8    9 ar  
    20    8   24 1   
    21    9   10 ar  
    22   10   11 ar  
    23   10   14 1   
    24   11   12 ar  
    25   11   15 1   
    26   12   13 1   
@<TRIPOS>SUBSTRUCTURE
     1 8MO         1 TEMP              0 ****  ****    0 ROOT
