@<TRIPOS>MOLECULE
8MO
   24    26     1     0     0
SMALL
bcc


@<TRIPOS>ATOM
      1 C1         -0.0290   -0.0300   -0.1160 ca        1 8MO     -0.154800
      2 C2         -4.3410    0.0920   -1.6800 cc        1 8MO     -0.006900
      3 C3         -3.1380    0.1630   -2.3340 cd        1 8MO     -0.175200
      4 C4         -2.7200   -1.2840    3.1520 c3        1 8MO      0.109700
      5 C5          1.3050   -0.2690    2.3520 c         1 8MO      0.719800
      6 C6          2.0550   -0.1340    1.1120 cc        1 8MO     -0.252200
      7 C7          1.4140   -0.0220   -0.0680 cd        1 8MO     -0.009200
      8 C8         -0.7180    0.0820   -1.3330 ca        1 8MO     -0.041000
      9 C9         -2.1010    0.0720   -1.3180 ca        1 8MO     -0.116800
     10 C10        -2.8000   -0.0540   -0.0710 ca        1 8MO      0.087100
     11 C11        -2.1500   -0.1530    1.1570 ca        1 8MO      0.093100
     12 C12        -0.7350   -0.1440    1.1080 ca        1 8MO      0.135100
     13 O1         -0.0910   -0.2660    2.3210 os        1 8MO     -0.323200
     14 O2         -4.1760   -0.0420   -0.2870 os        1 8MO     -0.181200
     15 O3         -2.8760   -0.1260    2.3260 os        1 8MO     -0.307900
     16 O4          1.7140   -0.4000    3.5040 o         1 8MO     -0.561500
     17 H2         -5.3850    0.1160   -1.9850 h4        1 8MO      0.196000
     18 H3         -2.9630    0.2680   -3.4020 ha        1 8MO      0.169000
     19 H41        -3.0340   -2.2010    2.5990 h1        1 8MO      0.051033
     20 H42        -3.4110   -1.0780    4.0090 h1        1 8MO      0.051033
     21 H43        -1.6640   -1.3730    3.5040 h1        1 8MO      0.051033
     22 H6          3.1500   -0.1320    1.2110 ha        1 8MO      0.171000
     23 H7          1.9620    0.0780   -1.0190 ha        1 8MO      0.149000
     24 H8         -0.1610    0.1770   -2.2760 ha        1 8MO      0.148000
@<TRIPOS>BOND
     1    1    7 1   
     2    1    8 ar  
     3    1   12 ar  
     4    2    3 2   
     5    2   14 1   
     6    2   17 1   
     7    3    9 1   
     8    3   18 1   
     9    4   15 1   
    10    4   19 1   
    11    4   20 1   
    12    4   21 1   
    13    5    6 1   
    14    5   13 1   
    15    5   16 2   
    16    6    7 2   
    17    6   22 1   
    18    7   23 1   
    19    8    9 ar  
    20    8   24 1   
    21    9   10 ar  
    22   10   11 ar  
    23   10   14 1   
    24   11   12 ar  
    25   11   15 1   
    26   12   13 1   
@<TRIPOS>SUBSTRUCTURE
     1 8MO         1 TEMP              0 ****  ****    0 ROOT
