@<TRIPOS>MOLECULE
8MO
   24    18     1     0     0
SMALL
bcc


@<TRIPOS>ATOM
      1 C1          1.3690    0.1290   -0.5500 c1        1 8MO     -0.143000
      2 C2         -2.9380    0.1290   -2.2300 c1        1 8MO     -0.052000
      3 C3         -1.6750    0.1290   -2.7960 c1        1 8MO     -0.182000
      4 C4         -1.9640   -0.5610    2.5310 c3        1 8MO     -0.080000
      5 C5          2.7520    0.1290    1.8460 c1        1 8MO      0.331000
      6 C6          3.4480    0.1290    0.6400 c1        1 8MO     -0.231000
      7 C7          2.7620    0.1290   -0.5500 c1        1 8MO     -0.034500
      8 C8          0.6630    0.1290   -1.7700 c1        1 8MO     -0.034500
      9 C9         -0.7450    0.1290   -1.7680 c1        1 8MO     -0.103000
     10 C10        -1.4330    0.1290   -0.5750 c1        1 8MO      0.020000
     11 C11        -0.7280    0.1290    0.6430 c1        1 8MO      0.047000
     12 C12         0.6820    0.1290    0.6430 c1        1 8MO      0.107000
     13 O1          1.3790    0.1290    1.8470 o         1 8MO     -0.168000
     14 O2         -2.7920    0.1290   -0.8620 o         1 8MO     -0.109000
     15 O3         -1.4670    0.5190    1.7730 os        1 8MO     -0.183000
     16 O4          3.3590    0.1520    2.8980 o         1 8MO     -0.282000
     17 H2         -3.7850    0.1290   -2.7160 DU        1 8MO      0.183000
     18 H3         -1.4740    0.1290   -3.7510 DU        1 8MO      0.183000
     19 H41        -1.4060   -1.3480    2.3820 h1        1 8MO      0.088333
     20 H42        -1.9500   -0.3280    3.4790 h1        1 8MO      0.088333
     21 H43        -2.8810   -0.7550    2.2580 h1        1 8MO      0.088333
     22 H6          4.4250    0.1290    0.6410 ha        1 8MO      0.171000
     23 H7          3.2500    0.1290   -1.3960 ha        1 8MO      0.148000
     24 H8          1.1500    0.1280   -2.6160 ha        1 8MO      0.148000
@<TRIPOS>BOND
     1    1    7 1   
     2    1    8 1   
     3    2    3 1   
     4    2   14 1   
     5    3    9 1   
     6    4   15 1   
     7    4   19 1   
     8    4   20 1   
     9    4   21 1   
    10    5    6 1   
    11    5   16 1   
    12    6   22 1   
    13    7   23 1   
    14    8   24 1   
    15    9   10 1   
    16   11   12 1   
    17   11   15 1   
    18   12   13 1   
@<TRIPOS>SUBSTRUCTURE
     1 8MO         1 TEMP              0 ****  ****    0 ROOT
