@<TRIPOS>MOLECULE
8MR
   30    27     1     0     0
SMALL
bcc


@<TRIPOS>ATOM
      1 CAI        -0.5230   -0.6490   -5.3710 c3        1 8MR     -0.074000
      2 OAH        -1.4260   -0.3400   -4.2430 os        1 8MR     -0.211000
      3 CAG        -0.7930   -0.3740   -2.9790 c2        1 8MR      0.122000
      4 CAQ        -0.2920    0.8350   -2.3960 c2        1 8MR     -0.184000
      5 CAP         0.2620    0.8140   -1.1160 c1        1 8MR      0.028000
      6 CAF        -0.7270   -1.5630   -2.2720 c1        1 8MR     -0.250000
      7 CAE        -0.1720   -1.5800   -0.9930 c1        1 8MR      0.005000
      8 CAO         0.3290   -0.3610   -0.4120 c1        1 8MR     -0.854000
      9 SAN         1.1050   -0.3790    1.1960 s4        1 8MR      2.044800
     10 OAS         2.3600    0.2910    1.1630 o         1 8MR     -0.556400
     11 OAD         1.5080   -1.7210    1.5760 o         1 8MR     -0.556400
     12 CAM         0.0500    0.3140    2.3990 c2        1 8MR     -0.839000
     13 CAB        -0.6860   -0.7940    3.1030 c3        1 8MR      0.261000
     14 FA          0.2180   -1.7590    3.4990 f         1 8MR     -0.177000
     15 FB         -1.3070   -0.3060    4.1720 f         1 8MR     -0.177000
     16 CAL         0.8860    1.0910    3.4230 c3        1 8MR     -0.213000
     17 CAK         0.2930    2.4940    3.6150 c2        1 8MR      0.335000
     18 OAR         0.6700    3.4680    2.8430 o         1 8MR     -0.573500
     19 OAJ        -0.4390    2.7310    4.6130 o         1 8MR     -0.573500
     20 HAI1       -1.0870   -1.0160   -6.1820 h1        1 8MR      0.079000
     21 HAI2       -0.0360    0.1900   -5.6510 h1        1 8MR      0.079000
     22 HAI3        0.1030   -1.2990   -5.1040 h1        1 8MR      0.079000
     23 HAQ        -0.3360    1.6680   -2.8900 ha        1 8MR      0.158000
     24 HAP         0.5320    1.5870   -0.7290 ha        1 8MR      0.226000
     25 HAF        -1.0610   -2.3740   -2.6620 ha        1 8MR      0.130000
     26 HAE        -0.1230   -2.4210   -0.4910 ha        1 8MR      0.153000
     27 HAM        -0.5850    0.9130    1.9750 ha        1 8MR      0.223000
     28 HAB        -1.3710   -1.2070    2.4700 h2        1 8MR      0.109000
     29 HAL1        0.8690    0.5850    4.3270 hc        1 8MR      0.103000
     30 HAL2        1.7800    1.1620    3.1180 hc        1 8MR      0.103000
@<TRIPOS>BOND
     1    1    2 1   
     2    1   20 1   
     3    1   21 1   
     4    1   22 1   
     5    2    3 1   
     6    3    4 1   
     7    3    6 1   
     8    4    5 1   
     9    4   23 1   
    10    5   24 1   
    11    6   25 1   
    12    7    8 1   
    13    7   26 1   
    14    8    9 1   
    15    9   10 1   
    16    9   11 1   
    17   12   13 1   
    18   12   16 1   
    19   12   27 1   
    20   13   14 1   
    21   13   15 1   
    22   13   28 1   
    23   16   17 1   
    24   16   29 1   
    25   16   30 1   
    26   17   18 1   
    27   17   19 1   
@<TRIPOS>SUBSTRUCTURE
     1 8MR         1 TEMP              0 ****  ****    0 ROOT
