@<TRIPOS>MOLECULE
8MR
   30    30     1     0     0
SMALL
bcc


@<TRIPOS>ATOM
      1 CAI        -0.6820    6.2420    1.3370 c3        1 8MR      0.114700
      2 OAH        -0.8700    5.6490    0.0580 os        1 8MR     -0.326900
      3 CAG        -1.2860    4.3330    0.0510 ca        1 8MR      0.165100
      4 CAQ        -1.5580    3.5850    1.2060 ca        1 8MR     -0.212500
      5 CAP        -1.9800    2.2690    1.0670 ca        1 8MR      0.008000
      6 CAF        -1.4290    3.7570   -1.2230 ca        1 8MR     -0.212500
      7 CAE        -1.8510    2.4370   -1.3320 ca        1 8MR      0.008000
      8 CAO        -2.1460    1.6730   -0.1920 ca        1 8MR     -0.398500
      9 SAN        -2.7310    0.0920   -0.2370 sy        1 8MR      1.359300
     10 OAS        -2.4260   -0.5270    0.9930 o         1 8MR     -0.662300
     11 OAD        -4.1000    0.0990   -0.5560 o         1 8MR     -0.662300
     12 CAM        -1.7780   -0.5630   -1.5180 c3        1 8MR     -0.316900
     13 CAB        -1.2190   -2.0050   -1.4370 c3        1 8MR      0.432900
     14 FA         -2.1510   -2.9420   -1.0470 f         1 8MR     -0.256800
     15 FB         -0.2400   -2.1470   -0.4770 f         1 8MR     -0.256800
     16 CAL        -2.5150   -0.4560   -2.8500 c3        1 8MR     -0.197400
     17 CAK        -1.4950   -0.1090   -3.9560 c         1 8MR      0.910600
     18 OAR        -0.8640   -1.0600   -4.4930 o         1 8MR     -0.834300
     19 OAJ        -1.3310    1.1170   -4.2190 o         1 8MR     -0.834300
     20 HAI1       -0.3370    7.2790    1.0970 h1        1 8MR      0.040367
     21 HAI2        0.0980    5.6910    1.9180 h1        1 8MR      0.040367
     22 HAI3       -1.6440    6.2690    1.9040 h1        1 8MR      0.040367
     23 HAQ        -1.4390    4.0180    2.2070 ha        1 8MR      0.146000
     24 HAP        -2.1830    1.6690    1.9730 ha        1 8MR      0.186000
     25 HAF        -1.1970    4.3470   -2.1220 ha        1 8MR      0.146000
     26 HAE        -1.9240    1.9950   -2.3570 ha        1 8MR      0.186000
     27 HAM        -0.8370    0.0620   -1.6210 h1        1 8MR      0.142700
     28 HAB        -0.8050   -2.2610   -2.4680 h2        1 8MR      0.136700
     29 HAL1       -3.0190   -1.4240   -3.0910 hc        1 8MR      0.055700
     30 HAL2       -3.3000    0.3410   -2.8060 hc        1 8MR      0.055700
@<TRIPOS>BOND
     1    1    2 1   
     2    1   20 1   
     3    1   21 1   
     4    1   22 1   
     5    2    3 1   
     6    3    4 ar  
     7    3    6 ar  
     8    4    5 ar  
     9    4   23 1   
    10    5    8 ar  
    11    5   24 1   
    12    6    7 ar  
    13    6   25 1   
    14    7    8 ar  
    15    7   26 1   
    16    8    9 1   
    17    9   10 2   
    18    9   11 2   
    19    9   12 1   
    20   12   13 1   
    21   12   16 1   
    22   12   27 1   
    23   13   14 1   
    24   13   15 1   
    25   13   28 1   
    26   16   17 1   
    27   16   29 1   
    28   16   30 1   
    29   17   18 1   
    30   17   19 1   
@<TRIPOS>SUBSTRUCTURE
     1 8MR         1 TEMP              0 ****  ****    0 ROOT
