@<TRIPOS>MOLECULE
8MR
   30    30     1     0     0
SMALL
bcc


@<TRIPOS>ATOM
      1 CAI        -0.1690    0.0600    0.1460 c3        1 8MR      0.114700
      2 OAH         1.2510    0.1260    0.0870 os        1 8MR     -0.327900
      3 CAG         1.9140    0.0760    1.2960 ca        1 8MR      0.171100
      4 CAQ         1.2910   -0.1670    2.5280 ca        1 8MR     -0.209000
      5 CAP         2.0700   -0.2050    3.6790 ca        1 8MR      0.020500
      6 CAF         3.3050    0.2730    1.2210 ca        1 8MR     -0.209000
      7 CAE         4.0550    0.2300    2.3880 ca        1 8MR      0.020500
      8 CAO         3.4540   -0.0090    3.6330 ca        1 8MR     -0.390500
      9 SAN         4.3700   -0.0860    5.0470 sy        1 8MR      1.350300
     10 OAS         3.6320   -0.8040    6.0100 o         1 8MR     -0.661300
     11 OAD         5.6400   -0.6110    4.7450 o         1 8MR     -0.661300
     12 CAM         4.4360    1.5940    5.4390 c3        1 8MR     -0.307900
     13 CAB         4.3630    2.0290    6.9270 c3        1 8MR      0.412900
     14 FA          5.1930    1.3020    7.7530 f         1 8MR     -0.262800
     15 FB          3.1220    1.7980    7.4830 f         1 8MR     -0.262800
     16 CAL         5.6770    2.2390    4.8370 c3        1 8MR     -0.185400
     17 CAK         5.4600    3.7410    4.5510 c         1 8MR      0.913600
     18 OAR         5.1480    4.4920    5.5210 o         1 8MR     -0.832300
     19 OAJ         5.6120    4.1330    3.3630 o         1 8MR     -0.832300
     20 HAI1       -0.4810    0.1900   -0.9210 h1        1 8MR      0.042367
     21 HAI2       -0.5790    0.8820    0.7800 h1        1 8MR      0.042367
     22 HAI3       -0.4990   -0.9350    0.5330 h1        1 8MR      0.042367
     23 HAQ         0.2060   -0.3220    2.5960 ha        1 8MR      0.143500
     24 HAP         1.5900   -0.4050    4.6550 ha        1 8MR      0.161000
     25 HAF         3.7760    0.4730    0.2480 ha        1 8MR      0.143500
     26 HAE         5.1480    0.3890    2.3380 ha        1 8MR      0.161000
     27 HAM         3.5510    2.1230    4.9740 h1        1 8MR      0.138700
     28 HAB         4.6220    3.1420    6.9690 h2        1 8MR      0.165700
     29 HAL1        6.5390    2.1310    5.5420 hc        1 8MR      0.049200
     30 HAL2        5.9430    1.7270    3.8760 hc        1 8MR      0.049200
@<TRIPOS>BOND
     1    1    2 1   
     2    1   20 1   
     3    1   21 1   
     4    1   22 1   
     5    2    3 1   
     6    3    4 ar  
     7    3    6 ar  
     8    4    5 ar  
     9    4   23 1   
    10    5    8 ar  
    11    5   24 1   
    12    6    7 ar  
    13    6   25 1   
    14    7    8 ar  
    15    7   26 1   
    16    8    9 1   
    17    9   10 2   
    18    9   11 2   
    19    9   12 1   
    20   12   13 1   
    21   12   16 1   
    22   12   27 1   
    23   13   14 1   
    24   13   15 1   
    25   13   28 1   
    26   16   17 1   
    27   16   29 1   
    28   16   30 1   
    29   17   18 1   
    30   17   19 1   
@<TRIPOS>SUBSTRUCTURE
     1 8MR         1 TEMP              0 ****  ****    0 ROOT
