@<TRIPOS>MOLECULE
8MR
   30    30     1     0     0
SMALL
bcc


@<TRIPOS>ATOM
      1 CAI        -0.1060   -0.3460   -0.0110 c3        1 8MR      0.114700
      2 OAH         1.0860    0.4140    0.1400 os        1 8MR     -0.326900
      3 CAG         1.7320    0.3040    1.3550 ca        1 8MR      0.165100
      4 CAQ         1.3010   -0.5220    2.4040 ca        1 8MR     -0.212500
      5 CAP         2.0430   -0.5540    3.5780 ca        1 8MR      0.008000
      6 CAF         2.8860    1.0930    1.4940 ca        1 8MR     -0.212500
      7 CAE         3.6080    1.0420    2.6810 ca        1 8MR      0.008000
      8 CAO         3.2080    0.2100    3.7390 ca        1 8MR     -0.398500
      9 SAN         4.0630    0.0360    5.1820 sy        1 8MR      1.359300
     10 OAS         3.1700   -0.4210    6.1730 o         1 8MR     -0.662300
     11 OAD         5.1750   -0.7990    4.9790 o         1 8MR     -0.662300
     12 CAM         4.5330    1.6710    5.4720 c3        1 8MR     -0.316900
     13 CAB         4.5180    2.2610    6.9040 c3        1 8MR      0.432900
     14 FA          5.1100    1.4500    7.8470 f         1 8MR     -0.256800
     15 FB          3.2440    2.4140    7.4070 f         1 8MR     -0.256800
     16 CAL         5.9240    1.9430    4.9040 c3        1 8MR     -0.197400
     17 CAK         5.9460    3.3650    4.3040 c         1 8MR      0.910600
     18 OAR         6.1830    4.3280    5.0830 o         1 8MR     -0.834300
     19 OAJ         5.6810    3.4710    3.0720 o         1 8MR     -0.834300
     20 HAI1        0.1100   -1.4390    0.0710 h1        1 8MR      0.040367
     21 HAI2       -0.4520   -0.0890   -1.0440 h1        1 8MR      0.040367
     22 HAI3       -0.8680   -0.0410    0.7470 h1        1 8MR      0.040367
     23 HAQ         0.3950   -1.1340    2.3130 ha        1 8MR      0.146000
     24 HAP         1.7020   -1.1930    4.4140 ha        1 8MR      0.186000
     25 HAF         3.2050    1.7500    0.6720 ha        1 8MR      0.146000
     26 HAE         4.5030    1.7060    2.7770 ha        1 8MR      0.186000
     27 HAM         3.8200    2.3540    4.9150 h1        1 8MR      0.142700
     28 HAB         5.0500    3.2690    6.8550 h2        1 8MR      0.136700
     29 HAL1        6.1780    1.2000    4.1060 hc        1 8MR      0.055700
     30 HAL2        6.6930    1.8610    5.7110 hc        1 8MR      0.055700
@<TRIPOS>BOND
     1    1    2 1   
     2    1   20 1   
     3    1   21 1   
     4    1   22 1   
     5    2    3 1   
     6    3    4 ar  
     7    3    6 ar  
     8    4    5 ar  
     9    4   23 1   
    10    5    8 ar  
    11    5   24 1   
    12    6    7 ar  
    13    6   25 1   
    14    7    8 ar  
    15    7   26 1   
    16    8    9 1   
    17    9   10 2   
    18    9   11 2   
    19    9   12 1   
    20   12   13 1   
    21   12   16 1   
    22   12   27 1   
    23   13   14 1   
    24   13   15 1   
    25   13   28 1   
    26   16   17 1   
    27   16   29 1   
    28   16   30 1   
    29   17   18 1   
    30   17   19 1   
@<TRIPOS>SUBSTRUCTURE
     1 8MR         1 TEMP              0 ****  ****    0 ROOT
