@<TRIPOS>MOLECULE
8NC
   62    62     1     0     0
SMALL
bcc


@<TRIPOS>ATOM
      1 S1         -0.8740    0.4120    0.6090 s6        1 8NC      2.819000
      2 C2          2.3120    0.4940    1.9220 c3        1 8NC     -0.219000
      3 C3          4.2360   -2.8540   -2.6030 c1        1 8NC     -0.199000
      4 N4          0.6210    0.0290    0.1580 n7        1 8NC     -0.896000
      5 C5          3.7020    1.0780    2.0710 c2        1 8NC      0.324000
      6 N6          9.2400    3.6480    4.4410 n         1 8NC     -0.298000
      7 C7          3.9070   -1.7600   -1.7330 c2        1 8NC      0.435000
      8 C8          1.7840    0.7840    0.5090 c3        1 8NC      0.006000
      9 C9          4.4520   -3.7890   -3.3170 c1        1 8NC     -0.118000
     10 C10        10.2070    3.3900    3.4700 c2        1 8NC      0.269000
     11 C11         7.8940    3.3650    4.2430 ca        1 8NC      0.093000
     12 N12         3.9910    1.7110    3.2760 ns        1 8NC     -0.304000
     13 C13         6.8970    3.3020    5.1980 ca        1 8NC     -0.228000
     14 N14         4.9240   -0.9380   -1.2650 ns        1 8NC     -0.321000
     15 C15         5.2350    2.2210    3.6110 ca        1 8NC      0.019000
     16 C16         5.5270    2.8850    4.8140 ca        1 8NC      0.034000
     17 C17         7.9230   -2.1750    0.4570 c2        1 8NC     -0.061000
     18 C18         6.6600   -2.2690   -0.1460 c1        1 8NC     -0.136000
     19 O19        -1.7060   -0.7250    0.5360 o         1 8NC     -0.940000
     20 O20        -0.8500    1.1080    1.8400 o         1 8NC     -0.940000
     21 C21         9.6630    4.2040    5.7210 c3        1 8NC     -0.073000
     22 C22         6.3100   -1.3560   -1.2580 c3        1 8NC     -0.001000
     23 O23         4.5580    0.9710    1.1720 o         1 8NC     -0.370000
     24 O24         2.7210   -1.4760   -1.4540 o         1 8NC     -0.383000
     25 C25        10.3430    1.2360    7.9130 c1        1 8NC      0.404000
     26 C26         8.7910   -1.1050    0.1690 c2        1 8NC      0.161000
     27 O27         9.9930    2.8120    2.3970 o         1 8NC     -0.339000
     28 C28         7.2000    3.1910    2.9450 ca        1 8NC     -0.151000
     29 C29         6.5020    2.0090    2.8870 ca        1 8NC     -0.088000
     30 C30        10.0300    3.3460    6.8370 c1        1 8NC     -0.062000
     31 C31         9.9810    1.9400    6.8420 c2        1 8NC     -0.530000
     32 C32         8.4100   -0.1070   -0.8040 c2        1 8NC     -0.221000
     33 C33        -1.3840    1.5110   -0.5900 c3        1 8NC     -0.939000
     34 F34         4.5690    3.0810    5.7500 f         1 8NC     -0.107000
     35 C36         7.2340   -0.1840   -1.4560 c2        1 8NC     -0.073000
     36 O37         9.9620   -1.0620    0.8520 os        1 8NC     -0.173000
     37 C38        10.8000    0.0850    0.6770 c3        1 8NC     -0.096000
     38 H331       -1.4210    1.0630   -1.6120 h1        1 8NC      0.150667
     39 H332       -0.7440    2.4230   -0.6590 h1        1 8NC      0.150667
     40 H333       -2.4200    1.8710   -0.3680 h1        1 8NC      0.150667
     41 H2          2.4100   -0.6140    2.0840 hc        1 8NC      0.130000
     42 H3          1.5870    0.8920    2.6800 hc        1 8NC      0.130000
     43 H81C        2.6050    0.5580   -0.2360 h1        1 8NC      0.104000
     44 H82C        1.5430    1.8850    0.4430 h1        1 8NC      0.104000
     45 H91C        0.8310   -0.7920   -0.3690 hn        1 8NC      0.278000
     46 H92C        4.6420   -4.6210   -3.9490 ha        1 8NC      0.231000
     47 H12         3.2670    1.8040    3.9540 hn        1 8NC      0.247000
     48 H21         8.8350    4.8750    6.1160 h1        1 8NC      0.150000
     49 H14         4.6730   -0.3150   -0.5200 hn        1 8NC      0.256000
     50 H25        11.2220    3.7570    3.7590 h5        1 8NC      0.129000
     51 H13         7.0500    3.5230    6.2610 ha        1 8NC      0.152000
     52 H28         6.9040    0.9960    2.7940 ha        1 8NC      0.165000
     53 H29         6.7350    4.1290    2.5870 ha        1 8NC      0.137000
     54 H18         6.4880   -2.0300   -2.1760 h1        1 8NC      0.166000
     55 H30        10.5590    4.8780    5.5450 h1        1 8NC      0.150000
     56 H36         6.9290    0.5890   -2.1800 ha        1 8NC      0.153000
     57 H31         9.6220    1.3620    5.9580 ha        1 8NC      0.186000
     58 H32         9.0990    0.7340   -0.9850 ha        1 8NC      0.154000
     59 H381       10.2630    1.0170    0.9820 h1        1 8NC      0.104000
     60 H382       11.1560    0.1460   -0.3800 h1        1 8NC      0.104000
     61 H383       11.6550   -0.1250    1.3690 h1        1 8NC      0.104000
     62 F35         8.2920   -3.0940    1.3860 f         1 8NC     -0.090000
@<TRIPOS>BOND
     1    1    4 1   
     2    1   19 1   
     3    1   20 1   
     4    1   33 1   
     5    2    5 1   
     6    2    8 1   
     7    2   41 1   
     8    2   42 1   
     9    3    7 1   
    10    3    9 1   
    11    4    8 1   
    12    4   45 1   
    13    5   12 1   
    14    5   23 1   
    15    6   10 1   
    16    6   11 1   
    17    6   21 1   
    18    7   14 1   
    19    7   24 1   
    20    8   43 1   
    21    8   44 1   
    22    9   46 1   
    23   10   27 1   
    24   10   50 1   
    25   11   13 1   
    26   11   28 1   
    27   12   15 1   
    28   12   47 1   
    29   13   16 1   
    30   13   51 1   
    31   14   22 1   
    32   14   49 1   
    33   15   16 1   
    34   15   29 1   
    35   16   34 1   
    36   17   18 1   
    37   17   26 1   
    38   17   62 1   
    39   18   22 1   
    40   21   30 1   
    41   21   48 1   
    42   21   55 1   
    43   22   35 1   
    44   22   54 1   
    45   25   31 1   
    46   26   32 1   
    47   26   36 1   
    48   28   29 1   
    49   28   53 1   
    50   29   52 1   
    51   30   31 1   
    52   31   57 1   
    53   32   35 1   
    54   32   58 1   
    55   33   38 1   
    56   33   39 1   
    57   33   40 1   
    58   35   56 1   
    59   36   37 1   
    60   37   59 1   
    61   37   60 1   
    62   37   61 1   
@<TRIPOS>SUBSTRUCTURE
     1 8NC         1 TEMP              0 ****  ****    0 ROOT
