@<TRIPOS>MOLECULE
8NC
   62    65     1     0     0
SMALL
bcc


@<TRIPOS>ATOM
      1 S1          2.4010    4.4350   -0.4390 s6        1 8NC      1.475900
      2 C2          0.5740    0.8990   -0.4280 c3        1 8NC     -0.143700
      3 C3          1.7880    0.5950    0.4600 c3        1 8NC     -0.143700
      4 N4          1.8230    2.9490   -0.1180 n3        1 8NC     -0.833500
      5 C5         -0.7350    0.4490    0.2160 c         1 8NC      0.677100
      6 N6         -7.2490   -0.6830    0.6540 n         1 8NC     -0.259200
      7 C7          2.6820   -0.4860   -0.1460 c         1 8NC      0.674100
      8 C8          0.5810    2.4290   -0.6410 c3        1 8NC      0.232800
      9 C9          2.5510    1.9310    0.6040 c3        1 8NC      0.234800
     10 C10        -8.1710   -1.0900   -0.3520 c         1 8NC      0.690700
     11 C11        -5.8940   -0.3770    0.3370 ca        1 8NC      0.033600
     12 N12        -1.8580    0.5780   -0.5870 n         1 8NC     -0.463100
     13 C13        -5.5790    0.3900   -0.7990 ca        1 8NC     -0.118000
     14 N14         3.7330   -0.8990    0.6570 n         1 8NC     -0.464100
     15 C15        -3.1790    0.2480   -0.2490 ca        1 8NC      0.035600
     16 C16        -4.2450    0.6990   -1.0890 ca        1 8NC      0.082900
     17 C17         6.4560   -3.3520    1.2060 ca        1 8NC      0.129900
     18 C18         5.4910   -2.3650    1.4330 ca        1 8NC     -0.192000
     19 O19         3.8030    4.4370   -0.3040 o         1 8NC     -0.647800
     20 O20         1.8650    4.9040   -1.6530 o         1 8NC     -0.647800
     21 C21        -7.6540   -0.6070    1.9770 cc        1 8NC      0.012600
     22 C22         4.6720   -1.9070    0.3740 ca        1 8NC      0.055600
     23 O23        -0.7770    0.0010    1.3760 o         1 8NC     -0.593100
     24 O24         2.4690   -0.9480   -1.2810 o         1 8NC     -0.588100
     25 C25        -9.5200   -1.4420    0.1020 cc        1 8NC     -0.252200
     26 C26         6.6140   -3.9000   -0.0940 ca        1 8NC      0.072100
     27 O27        -7.8170   -1.1300   -1.5440 o         1 8NC     -0.626500
     28 C28        -4.8460   -0.8370    1.1590 ca        1 8NC     -0.135000
     29 C29        -3.5230   -0.5290    0.8730 ca        1 8NC     -0.125000
     30 C30        -8.9240   -0.9280    2.3780 cd        1 8NC     -0.244000
     31 C31        -9.8770   -1.3640    1.4070 cd        1 8NC     -0.039000
     32 C32         5.8020   -3.4450   -1.1330 ca        1 8NC     -0.158000
     33 C33         1.7520    5.3790    0.8190 c3        1 8NC     -0.363300
     34 F34        -3.9740    1.4390   -2.1960 f         1 8NC     -0.140900
     35 C36         4.8440   -2.4600   -0.9100 ca        1 8NC     -0.128000
     36 O37         7.5900   -4.8670   -0.2090 os        1 8NC     -0.311900
     37 C38         7.7670   -5.4240   -1.5080 c3        1 8NC      0.111700
     38 H331        2.1000    5.0690    1.8340 h1        1 8NC      0.116367
     39 H332        2.0610    6.4490    0.6970 h1        1 8NC      0.116367
     40 H333        0.6360    5.3810    0.8480 h1        1 8NC      0.116367
     41 H2          0.6920    0.3760   -1.4210 hc        1 8NC      0.123700
     42 H3          1.4380    0.2480    1.4740 hc        1 8NC      0.114700
     43 H81C        0.4930    2.6720   -1.7380 h1        1 8NC      0.060700
     44 H82C       -0.2860    2.9090   -0.1020 h1        1 8NC      0.060700
     45 H91C        2.6150    2.2090    1.6950 h1        1 8NC      0.060200
     46 H92C        3.6000    1.8570    0.1990 h1        1 8NC      0.060200
     47 H12        -1.7330    0.9710   -1.4960 hn        1 8NC      0.332500
     48 H21        -6.8900   -0.2580    2.6980 h4        1 8NC      0.158000
     49 H14         3.7910   -0.5030    1.5700 hn        1 8NC      0.319500
     50 H25       -10.2050   -1.7700   -0.6940 ha        1 8NC      0.166000
     51 H13        -6.3680    0.7330   -1.4900 ha        1 8NC      0.182000
     52 H28        -5.0600   -1.4630    2.0400 ha        1 8NC      0.146000
     53 H29        -2.7340   -0.9090    1.5460 ha        1 8NC      0.180000
     54 H18         5.3910   -1.9600    2.4520 ha        1 8NC      0.148000
     55 H30        -9.2100   -0.8490    3.4340 ha        1 8NC      0.153000
     56 H36         4.2200   -2.1260   -1.7560 ha        1 8NC      0.177000
     57 H31       -10.8910   -1.6290    1.7430 ha        1 8NC      0.143000
     58 H32         5.9110   -3.8590   -2.1470 ha        1 8NC      0.148000
     59 H381        6.8340   -5.9360   -1.8470 h1        1 8NC      0.047033
     60 H382        8.0700   -4.6350   -2.2370 h1        1 8NC      0.047033
     61 H383        8.5930   -6.1650   -1.3590 h1        1 8NC      0.047033
     62 F35         7.2340   -3.7790    2.2260 f         1 8NC     -0.124900
@<TRIPOS>BOND
     1    1    4 1   
     2    1   19 2   
     3    1   20 2   
     4    1   33 1   
     5    2    3 1   
     6    2    5 1   
     7    2    8 1   
     8    2   41 1   
     9    3    7 1   
    10    3    9 1   
    11    3   42 1   
    12    4    8 1   
    13    4    9 1   
    14    5   12 1   
    15    5   23 2   
    16    6   10 1   
    17    6   11 1   
    18    6   21 1   
    19    7   14 1   
    20    7   24 2   
    21    8   43 1   
    22    8   44 1   
    23    9   45 1   
    24    9   46 1   
    25   10   25 1   
    26   10   27 2   
    27   11   13 ar  
    28   11   28 ar  
    29   12   15 1   
    30   12   47 1   
    31   13   16 ar  
    32   13   51 1   
    33   14   22 1   
    34   14   49 1   
    35   15   16 ar  
    36   15   29 ar  
    37   16   34 1   
    38   17   18 ar  
    39   17   26 ar  
    40   17   62 1   
    41   18   22 ar  
    42   18   54 1   
    43   21   30 2   
    44   21   48 1   
    45   22   35 ar  
    46   25   31 2   
    47   25   50 1   
    48   26   32 ar  
    49   26   36 1   
    50   28   29 ar  
    51   28   52 1   
    52   29   53 1   
    53   30   31 1   
    54   30   55 1   
    55   31   57 1   
    56   32   35 ar  
    57   32   58 1   
    58   33   38 1   
    59   33   39 1   
    60   33   40 1   
    61   35   56 1   
    62   36   37 1   
    63   37   59 1   
    64   37   60 1   
    65   37   61 1   
@<TRIPOS>SUBSTRUCTURE
     1 8NC         1 TEMP              0 ****  ****    0 ROOT
