@<TRIPOS>MOLECULE
8NC
   62    59     1     0     0
SMALL
bcc


@<TRIPOS>ATOM
      1 S1         -5.0060   -1.0090   -1.3540 ss        1 8NC      2.831000
      2 C2         -1.1770   -0.8690    0.2390 c3        1 8NC     -0.133000
      3 C3         -1.0710   -0.8390   -1.1020 c3        1 8NC     -0.134000
      4 N4         -3.4320   -0.5660   -0.8460 n2        1 8NC     -0.853000
      5 C5         -0.4720    0.3880    0.8390 c2        1 8NC      0.320000
      6 N6          2.6070    4.6330    4.7250 n         1 8NC     -0.197000
      7 C7         -0.8800   -2.2560   -1.6180 c2        1 8NC      0.318000
      8 C8         -2.8020   -0.9060    0.4600 c3        1 8NC     -0.004000
      9 C9         -2.4940   -0.1220   -1.5910 c3        1 8NC     -0.002000
     10 C10         2.6070    6.0620    4.3910 c2        1 8NC      0.330000
     11 C11         1.7370    3.7410    4.0360 c2        1 8NC      0.040000
     12 N12        -0.5540    0.6590    2.2560 n         1 8NC     -0.317000
     13 C13         0.5790    3.2880    4.6560 c2        1 8NC     -0.157000
     14 N14        -0.7370   -2.4900   -3.0540 n         1 8NC     -0.317000
     15 C15         0.1780    1.7890    2.8230 c2        1 8NC      0.046000
     16 C16        -0.1990    2.3100    4.0450 c2        1 8NC      0.044000
     17 C17         0.4890   -4.0570   -5.7920 c1        1 8NC      0.095000
     18 C18        -0.3900   -3.4580   -4.8980 c1        1 8NC     -0.192000
     19 O19        -5.3760   -2.3000   -0.8420 o         1 8NC     -0.928000
     20 O20        -5.0510   -1.2500   -2.7740 o         1 8NC     -0.928000
     21 C21         3.5070    4.1220    5.7620 c2        1 8NC      0.010000
     22 C22        -0.3270   -3.7760   -3.5330 c2        1 8NC      0.063000
     23 O23         0.2080    1.1050    0.1210 o         1 8NC     -0.348000
     24 O24        -0.6490   -3.1650   -0.8270 o         1 8NC     -0.350000
     25 C25         3.4620    7.0250    5.1850 c2        1 8NC     -0.234000
     26 C26         1.4190   -4.9630   -5.3380 c1        1 8NC      0.027000
     27 O27         1.9040    6.4730    3.5020 o         1 8NC     -0.353000
     28 C28         2.1140    3.2200    2.8150 c1        1 8NC     -0.093000
     29 C29         1.3360    2.2430    2.2050 c1        1 8NC     -0.126000
     30 C30         4.3670    5.0830    6.5610 c1        1 8NC     -0.244000
     31 C31         4.3680    6.5140    6.2280 c1        1 8NC     -0.038000
     32 C32         1.4810   -5.2800   -3.9810 c1        1 8NC     -0.159000
     33 C33        -6.1920    0.2520   -0.8660 c2        1 8NC     -0.943000
     34 F34        -1.2690    1.8680    4.7230 f         1 8NC     -0.110000
     35 F35         0.4970   -3.6740   -7.0920 f         1 8NC     -0.090000
     36 C36         0.5990   -4.6780   -3.0830 c2        1 8NC     -0.128000
     37 O37         2.4050   -4.7870   -6.3600 os        1 8NC     -0.195000
     38 C38         2.9700   -6.0220   -6.8460 c3        1 8NC     -0.077000
     39 H331       -5.9850    1.0890   -1.3250 ha        1 8NC      0.156000
     40 H332       -7.1040   -0.0400   -1.1090 ha        1 8NC      0.156000
     41 H333       -6.1420    0.3910    0.0990 ha        1 8NC      0.156000
     42 H2         -0.7260   -1.6050    0.7320 hc        1 8NC      0.160000
     43 H3         -0.3030   -0.3920   -1.4890 hc        1 8NC      0.155000
     44 H81C       -3.0630   -0.2450    1.1390 h1        1 8NC      0.100500
     45 H82C       -3.0820   -1.8060    0.7450 h1        1 8NC      0.100500
     46 H91C       -2.6780   -0.3500   -2.5340 h1        1 8NC      0.100000
     47 H92C       -2.4250    0.8450   -1.4920 h1        1 8NC      0.100000
     48 H12        -1.0210    0.0910    2.8070 hn        1 8NC      0.245000
     49 H21         3.5060    3.1670    5.9830 h4        1 8NC      0.158000
     50 H14        -0.9370   -1.8380   -3.6360 hn        1 8NC      0.234000
     51 H25         3.4610    7.9800    4.9610 ha        1 8NC      0.165000
     52 H13         0.3160    3.6500    5.5040 ha        1 8NC      0.156000
     53 H28         2.9230    3.5380    2.3800 ha        1 8NC      0.172000
     54 H29         1.6000    1.8810    1.3530 ha        1 8NC      0.182000
     55 H18        -1.0590   -2.8080   -5.2230 ha        1 8NC      0.149000
     56 H30         4.9670    4.7410    7.2530 ha        1 8NC      0.154000
     57 H36         0.6410   -4.9010   -2.1300 ha        1 8NC      0.176000
     58 H31         4.9200    7.1330    6.7400 ha        1 8NC      0.143000
     59 H32         2.1400   -5.9220   -3.6600 ha        1 8NC      0.147000
     60 H381        2.2760   -6.5370   -7.3200 h1        1 8NC      0.086333
     61 H382        3.7130   -5.8220   -7.4660 h1        1 8NC      0.086333
     62 H383        3.3090   -6.5480   -6.0870 h1        1 8NC      0.086333
@<TRIPOS>BOND
     1    1   19 1   
     2    1   20 1   
     3    2    3 1   
     4    2    5 1   
     5    2    8 1   
     6    2   42 1   
     7    3    7 1   
     8    3    9 1   
     9    3   43 1   
    10    4    8 1   
    11    4    9 1   
    12    5   12 1   
    13    5   23 1   
    14    6   10 1   
    15    6   11 1   
    16    6   21 1   
    17    7   14 1   
    18    7   24 1   
    19    8   44 1   
    20    8   45 1   
    21    9   46 1   
    22    9   47 1   
    23   10   25 1   
    24   10   27 1   
    25   11   13 1   
    26   11   28 1   
    27   12   15 1   
    28   12   48 1   
    29   13   16 1   
    30   13   52 1   
    31   14   22 1   
    32   14   50 1   
    33   15   16 1   
    34   15   29 1   
    35   16   34 1   
    36   17   26 1   
    37   17   35 1   
    38   18   22 1   
    39   18   55 1   
    40   21   30 1   
    41   21   49 1   
    42   22   36 1   
    43   25   31 1   
    44   25   51 1   
    45   26   37 1   
    46   28   53 1   
    47   29   54 1   
    48   30   56 1   
    49   31   58 1   
    50   32   36 1   
    51   32   59 1   
    52   33   39 1   
    53   33   40 1   
    54   33   41 1   
    55   36   57 1   
    56   37   38 1   
    57   38   60 1   
    58   38   61 1   
    59   38   62 1   
@<TRIPOS>SUBSTRUCTURE
     1 8NC         1 TEMP              0 ****  ****    0 ROOT
