@<TRIPOS>MOLECULE
8NC
   62    64     1     0     0
SMALL
bcc


@<TRIPOS>ATOM
      1 S1          1.1660   -0.3210   -0.2610 s6        1 8NC      2.830000
      2 C2          4.7050    0.4680    1.3700 c3        1 8NC     -0.132000
      3 C3          5.0980    0.3650   -0.1100 c3        1 8NC     -0.132000
      4 N4          2.6920    0.1260    0.0720 n3        1 8NC     -0.854000
      5 C5          5.2600    1.7260    2.0260 c2        1 8NC      0.316000
      6 N6          6.6810    6.4290    6.3460 n         1 8NC     -0.301000
      7 C7          6.0990   -0.7590   -0.3630 c2        1 8NC      0.303000
      8 C8          3.1590    0.4800    1.3930 c3        1 8NC     -0.002000
      9 C9          3.7810    0.1050   -0.8780 c3        1 8NC     -0.004000
     10 C10         6.6520    7.6450    5.6520 c2        1 8NC      0.260000
     11 C11         6.1500    5.2660    5.8130 ca        1 8NC      0.107000
     12 N12         5.0510    1.8210    3.3990 n         1 8NC     -0.308000
     13 C13         6.1780    3.9920    6.3520 ca        1 8NC     -0.252000
     14 N14         6.6900   -0.7610   -1.6170 n         1 8NC     -0.320000
     15 C15         5.4500    2.9010    4.1750 ca        1 8NC      0.006000
     16 C16         5.6670    2.8470    5.5620 ca        1 8NC      0.056000
     17 C17         6.9070   -3.8160   -3.6480 c2        1 8NC     -0.050000
     18 C18         6.7460   -2.4590   -3.3480 c1        1 8NC     -0.161000
     19 O19         1.1500   -1.2540   -1.3130 o         1 8NC     -0.928500
     20 O20         0.5110   -0.6870    0.9330 o         1 8NC     -0.928500
     21 C21         7.2920    6.3940    7.6700 c3        1 8NC     -0.073000
     22 C22         7.4270   -1.8840   -2.1670 c3        1 8NC     -0.005000
     23 O23         5.8460    2.6120    1.3830 o         1 8NC     -0.337000
     24 O24         6.4200   -1.5630    0.5350 o         1 8NC     -0.374000
     25 C25        10.8380    5.3230    7.0740 c1        1 8NC      0.396000
     26 C26         7.5230   -4.6890   -2.7290 c2        1 8NC      0.163000
     27 O27         6.2050    7.7840    4.5100 o         1 8NC     -0.304000
     28 C28         5.3340    5.1400    4.5830 ca        1 8NC     -0.129000
     29 C29         5.8540    4.2330    3.6900 ca        1 8NC     -0.113000
     30 C30         8.6880    6.0240    7.8490 c1        1 8NC     -0.058000
     31 C31         9.5720    5.6430    6.8220 c2        1 8NC     -0.527000
     32 C32         8.0530   -4.1800   -1.4880 c2        1 8NC     -0.241000
     33 C33         0.4580    1.1190   -0.8280 c3        1 8NC     -0.942000
     34 F34         5.4990    1.6900    6.2450 f         1 8NC     -0.108000
     35 C36         7.9780   -2.8670   -1.1800 c2        1 8NC     -0.043000
     36 O37         7.5640   -6.0030   -3.0680 os        1 8NC     -0.168000
     37 C38         8.0700   -6.9300   -2.1040 c3        1 8NC     -0.087000
     38 H331        0.9570    1.5350   -1.7370 h1        1 8NC      0.155000
     39 H332        0.4400    1.9370   -0.0680 h1        1 8NC      0.155000
     40 H333       -0.6090    0.9370   -1.1150 h1        1 8NC      0.155000
     41 H2          5.5480    1.3410   -0.4500 hc        1 8NC      0.159000
     42 H3          5.0860   -0.4370    1.9250 hc        1 8NC      0.156000
     43 H81C        2.7760    1.5030    1.6690 h1        1 8NC      0.100500
     44 H82C        2.7720   -0.2600    2.1490 h1        1 8NC      0.100500
     45 H91C        3.8030   -0.8890   -1.4100 h1        1 8NC      0.101500
     46 H92C        3.6330    0.9130   -1.6490 h1        1 8NC      0.101500
     47 H12         4.7140    1.0200    3.8860 hn        1 8NC      0.241000
     48 H21         6.7010    5.6770    8.3260 h1        1 8NC      0.149500
     49 H14         6.2180   -0.2420   -2.3320 hn        1 8NC      0.240000
     50 H25         7.0810    8.4910    6.2420 h5        1 8NC      0.131000
     51 H13         6.5930    3.7460    7.3360 ha        1 8NC      0.153000
     52 H28         6.7300    4.3340    3.0440 ha        1 8NC      0.174000
     53 H29         4.2490    5.1420    4.8010 ha        1 8NC      0.136000
     54 H18         8.3700   -1.4210   -2.6510 h1        1 8NC      0.165000
     55 H30         7.1850    7.4180    8.1480 h1        1 8NC      0.149500
     56 H36         8.3610   -2.4790   -0.2210 ha        1 8NC      0.173000
     57 H31         9.2390    5.5800    5.7580 ha        1 8NC      0.187000
     58 H32         8.5130   -4.8910   -0.7840 ha        1 8NC      0.151000
     59 H381        7.4680   -6.8880   -1.1650 h1        1 8NC      0.098333
     60 H382        9.1490   -6.7280   -1.9010 h1        1 8NC      0.098333
     61 H383        7.9400   -7.9180   -2.6170 h1        1 8NC      0.098333
     62 F35         6.4030   -4.3180   -4.8030 f         1 8NC     -0.085000
@<TRIPOS>BOND
     1    1    4 1   
     2    1   19 1   
     3    1   20 1   
     4    1   33 1   
     5    2    3 1   
     6    2    5 1   
     7    2    8 1   
     8    2   42 1   
     9    3    7 1   
    10    3    9 1   
    11    3   41 1   
    12    4    8 1   
    13    4    9 1   
    14    5   12 1   
    15    5   23 1   
    16    6   10 1   
    17    6   11 1   
    18    6   21 1   
    19    7   14 1   
    20    7   24 1   
    21    8   43 1   
    22    8   44 1   
    23    9   45 1   
    24    9   46 1   
    25   10   27 1   
    26   10   50 1   
    27   11   13 1   
    28   11   28 1   
    29   12   15 1   
    30   12   47 1   
    31   13   16 1   
    32   13   51 1   
    33   14   22 1   
    34   14   49 1   
    35   15   16 1   
    36   15   29 1   
    37   16   34 1   
    38   17   18 1   
    39   17   26 1   
    40   17   62 1   
    41   18   22 1   
    42   21   30 1   
    43   21   48 1   
    44   21   55 1   
    45   22   35 1   
    46   22   54 1   
    47   25   31 1   
    48   26   32 1   
    49   26   36 1   
    50   28   29 1   
    51   28   53 1   
    52   29   52 1   
    53   30   31 1   
    54   31   57 1   
    55   32   35 1   
    56   32   58 1   
    57   33   38 1   
    58   33   39 1   
    59   33   40 1   
    60   35   56 1   
    61   36   37 1   
    62   37   59 1   
    63   37   60 1   
    64   37   61 1   
@<TRIPOS>SUBSTRUCTURE
     1 8NC         1 TEMP              0 ****  ****    0 ROOT
