@<TRIPOS>MOLECULE
8NC
   64    65     1     0     0
SMALL
bcc


@<TRIPOS>ATOM
      1 S1          1.2330   -0.2760   -0.9840 s6        1 8NC      2.850000
      2 C2          3.7820    1.0870    1.4560 c3        1 8NC     -0.148000
      3 C3          4.3670    0.0940    0.4170 c3        1 8NC     -0.027000
      4 N4          2.3840    1.0920   -0.5600 n4        1 8NC     -0.351000
      5 C5          4.7310    2.2490    1.6270 c2        1 8NC      0.259000
      6 N6          8.1820    5.8230    5.8880 n         1 8NC     -0.105000
      7 C7          4.2420   -1.3210    0.9450 c2        1 8NC      0.326000
      8 C8          2.4360    1.5530    0.8570 c3        1 8NC     -0.109000
      9 C9          3.5620    0.2920   -0.8250 c2        1 8NC     -0.736000
     10 C10         9.2110    6.0630    4.8920 c2        1 8NC      0.221000
     11 C11         7.0210    5.3600    5.6100 c1        1 8NC     -0.140000
     12 N12         5.8420    2.0690    2.6140 n4        1 8NC     -0.067000
     13 C13         4.0080    1.9020    5.8970 c2        1 8NC     -0.163000
     14 N14         4.2540   -2.4080   -0.1080 n4        1 8NC     -0.059000
     15 C15         5.4440    2.5310    3.9880 c2        1 8NC     -0.032000
     16 C16         4.7310    1.5380    4.8200 c2        1 8NC      0.022000
     17 C17         7.8500   -1.9320   -0.4180 c2        1 8NC     -0.029000
     18 C18         6.5850   -1.8990    0.1190 c1        1 8NC     -0.274000
     19 O19         1.7130   -1.5340   -0.6380 o         1 8NC     -0.902500
     20 O20         0.0780    0.1290   -0.3370 o         1 8NC     -0.902500
     21 C21         8.5290    6.1730    7.3020 c3        1 8NC     -0.055000
     22 C22         5.6340   -2.9960   -0.1440 c3        1 8NC     -0.066000
     23 O23         4.6790    3.3160    1.0290 o         1 8NC     -0.182000
     24 O24         4.1080   -1.6830    2.1050 o         1 8NC     -0.220000
     25 C25        11.4780    4.1660    8.4270 c1        1 8NC      0.512000
     26 C26         8.1890   -2.9250   -1.3930 c2        1 8NC      0.227000
     27 O27         9.0990    5.6320    3.7480 o         1 8NC     -0.246000
     28 C28         6.0460    4.9750    4.7390 c2        1 8NC      0.133000
     29 C29         5.7710    3.7350    4.3420 c1        1 8NC     -0.318000
     30 C30         9.6300    5.5490    7.9600 c1        1 8NC     -0.095000
     31 C31        10.5360    4.5780    7.5580 c2        1 8NC     -0.523000
     32 C32         7.1680   -3.8480   -1.8600 c2        1 8NC     -0.187000
     33 C33         1.1640   -0.0440   -2.6240 c3        1 8NC     -1.000000
     34 F34         4.8760    0.2300    4.4660 f         1 8NC     -0.118000
     35 C36         5.9260   -3.8520   -1.3350 c2        1 8NC     -0.096000
     36 O37         9.4350   -2.8990   -1.8670 os        1 8NC     -0.121000
     37 C38         9.8270   -3.8320   -2.8940 c3        1 8NC     -0.099000
     38 H331        2.1550   -0.0270   -3.1510 h1        1 8NC      0.200000
     39 H332        0.5870   -0.8710   -3.1320 h1        1 8NC      0.200000
     40 H333        0.6320    0.8940   -2.9410 h1        1 8NC      0.200000
     41 H2          5.4710    0.2440    0.2390 hc        1 8NC      0.164000
     42 H3          3.6020    0.5910    2.4550 hc        1 8NC      0.184000
     43 H81C        2.3300    2.6720    0.9050 hx        1 8NC      0.158000
     44 H82C        1.5750    1.0930    1.4230 hx        1 8NC      0.158000
     45 H91C        2.3170    1.9040   -1.1700 hn        1 8NC      0.222000
     46 H92C        4.1270    0.5540   -1.7290 hx        1 8NC      0.145000
     47 H12         6.1080    1.0770    2.6630 hn        1 8NC      0.263000
     48 H21         7.6090    5.9580    7.9380 h1        1 8NC      0.183500
     49 H14         4.0010   -1.9730   -1.0090 hn        1 8NC      0.272500
     50 H25        10.0750    6.6480    5.2820 h5        1 8NC      0.187000
     51 H13         3.5150    1.1590    6.5400 ha        1 8NC      0.160000
     52 H28         3.8940    2.9560    6.1800 ha        1 8NC      0.160000
     53 H29         5.3170    5.7830    4.4760 ha        1 8NC      0.207000
     54 H18         5.7290   -3.6830    0.7740 hx        1 8NC      0.209000
     55 H30         8.7030    7.2950    7.3260 h1        1 8NC      0.183500
     56 H36         5.1450   -4.5380   -1.7040 ha        1 8NC      0.175000
     57 H31        10.5200    4.1090    6.5490 ha        1 8NC      0.159000
     58 H32         7.4360   -4.5460   -2.6740 ha        1 8NC      0.185000
     59 H381        9.7160   -4.8780   -2.5230 h1        1 8NC      0.126333
     60 H382       10.9080   -3.5700   -3.0490 h1        1 8NC      0.126333
     61 H383        9.2330   -3.6510   -3.8210 h1        1 8NC      0.126333
     62 H122        6.6520    2.6310    2.3150 hn        1 8NC      0.263000
     63 H142        3.5480   -3.1190    0.1140 hn        1 8NC      0.272500
     64 F35         8.7770   -1.0030   -0.0840 f         1 8NC     -0.070000
@<TRIPOS>BOND
     1    1    4 1   
     2    1   19 1   
     3    1   20 1   
     4    1   33 1   
     5    2    3 1   
     6    2    5 1   
     7    2    8 1   
     8    2   42 1   
     9    3    7 1   
    10    3    9 1   
    11    3   41 1   
    12    4    8 1   
    13    4    9 1   
    14    4   45 1   
    15    5   12 1   
    16    5   23 1   
    17    6   10 1   
    18    6   11 1   
    19    6   21 1   
    20    7   14 1   
    21    7   24 1   
    22    8   43 1   
    23    8   44 1   
    24    9   46 1   
    25   10   27 1   
    26   10   50 1   
    27   11   28 1   
    28   12   15 1   
    29   12   47 1   
    30   12   62 1   
    31   13   16 1   
    32   13   51 1   
    33   13   52 1   
    34   14   22 1   
    35   14   49 1   
    36   14   63 1   
    37   15   16 1   
    38   15   29 1   
    39   16   34 1   
    40   17   18 1   
    41   17   26 1   
    42   17   64 1   
    43   18   22 1   
    44   21   30 1   
    45   21   48 1   
    46   21   55 1   
    47   22   35 1   
    48   22   54 1   
    49   25   31 1   
    50   26   32 1   
    51   26   36 1   
    52   28   29 1   
    53   28   53 1   
    54   30   31 1   
    55   31   57 1   
    56   32   35 1   
    57   32   58 1   
    58   33   38 1   
    59   33   39 1   
    60   33   40 1   
    61   35   56 1   
    62   36   37 1   
    63   37   59 1   
    64   37   60 1   
    65   37   61 1   
@<TRIPOS>SUBSTRUCTURE
     1 8NC         1 TEMP              0 ****  ****    0 ROOT
