@<TRIPOS>MOLECULE
8NH
   33    35     1     0     0
SMALL
bcc


@<TRIPOS>ATOM
      1 CL1         0.1620   -0.8750    0.0330 cl        1 8NH     -0.065400
      2 C2          1.7730   -0.3330    0.1060 ca        1 8NH      0.050400
      3 C3          2.4990   -0.4290    1.3060 ca        1 8NH     -0.056300
      4 C4          3.8550   -0.0110    1.3060 ca        1 8NH      0.086600
      5 C5          4.4220    0.5460    0.1390 ca        1 8NH     -0.126000
      6 C7          3.6740    0.6580   -1.0230 ca        1 8NH     -0.083000
      7 C9          2.3490    0.2080   -1.0550 ca        1 8NH     -0.011000
      8 C10         1.6070    0.3110   -2.2630 cg        1 8NH      0.235800
      9 N11         1.0080    0.4000   -3.2560 n1        1 8NH     -0.350800
     10 N12         4.6610   -0.1250    2.4600 n         1 8NH     -0.432600
     11 C13         5.4680    0.9500    2.9640 c         1 8NH      0.770500
     12 N14         6.2300    0.5010    4.1140 n         1 8NH     -0.358800
     13 C15         5.7120   -0.8470    4.4650 c3        1 8NH     -0.043300
     14 C17         4.9770   -0.7420    5.8260 c3        1 8NH      0.138100
     15 C19         5.3870    0.6240    6.4030 c3        1 8NH     -0.140400
     16 C22         6.1780    1.3500    5.3020 c3        1 8NH      0.045000
     17 O25         3.5850   -0.7890    5.5660 oh        1 8NH     -0.596800
     18 C27         4.7950   -1.2640    3.2930 c         1 8NH      0.730500
     19 O28         4.3290   -2.3830    3.0960 o         1 8NH     -0.549500
     20 O29         5.5550    2.0720    2.4500 o         1 8NH     -0.575500
     21 C30         1.8570   -0.9730    2.5260 c3        1 8NH     -0.073800
     22 H5          5.4610    0.9170    0.1530 ha        1 8NH      0.161000
     23 H7          4.1260    1.0960   -1.9270 ha        1 8NH      0.154000
     24 H15         6.5750   -1.5620    4.5380 h1        1 8NH      0.119700
     25 H17         5.2790   -1.5880    6.4970 h1        1 8NH      0.064700
     26 H191        6.0210    0.4910    7.3120 hc        1 8NH      0.068700
     27 H192        4.4790    1.2120    6.6870 hc        1 8NH      0.068700
     28 H221        7.2440    1.5120    5.6250 h1        1 8NH      0.078200
     29 H222        5.7290    2.3520    5.0650 h1        1 8NH      0.078200
     30 HO25        3.1410   -0.8920    6.4160 ho        1 8NH      0.417000
     31 H301        2.2910   -0.5350    3.4610 hc        1 8NH      0.065700
     32 H302        0.7590   -0.7650    2.5350 hc        1 8NH      0.065700
     33 H303        2.0120   -2.0840    2.5670 hc        1 8NH      0.065700
@<TRIPOS>BOND
     1    1    2 1   
     2    2    3 ar  
     3    2    7 ar  
     4    3    4 ar  
     5    3   21 1   
     6    4    5 ar  
     7    4   10 1   
     8    5    6 ar  
     9    5   22 1   
    10    6    7 ar  
    11    6   23 1   
    12    7    8 1   
    13    8    9 3   
    14   10   11 1   
    15   10   18 1   
    16   11   12 1   
    17   11   20 2   
    18   12   13 1   
    19   12   16 1   
    20   13   14 1   
    21   13   18 1   
    22   13   24 1   
    23   14   15 1   
    24   14   17 1   
    25   14   25 1   
    26   15   16 1   
    27   15   26 1   
    28   15   27 1   
    29   16   28 1   
    30   16   29 1   
    31   17   30 1   
    32   18   19 2   
    33   21   31 1   
    34   21   32 1   
    35   21   33 1   
@<TRIPOS>SUBSTRUCTURE
     1 8NH         1 TEMP              0 ****  ****    0 ROOT
