@<TRIPOS>MOLECULE
8NH
   33    35     1     0     0
SMALL
bcc


@<TRIPOS>ATOM
      1 Cl1         0.1690   -0.9210    0.0370 cl        1 8NH     -0.065400
      2 C2          1.7690   -0.3460    0.1110 ca        1 8NH      0.050400
      3 C3          2.5020   -0.4420    1.3060 ca        1 8NH     -0.056300
      4 C4          3.8490    0.0040    1.3070 ca        1 8NH      0.086600
      5 C5          4.3990    0.5890    0.1450 ca        1 8NH     -0.126000
      6 C7          3.6440    0.7000   -1.0130 ca        1 8NH     -0.083000
      7 C9          2.3280    0.2230   -1.0450 ca        1 8NH     -0.011000
      8 C10         1.5790    0.3260   -2.2490 cg        1 8NH      0.235800
      9 N11         0.9750    0.4150   -3.2380 n1        1 8NH     -0.350800
     10 N12         4.6620   -0.1080    2.4560 n         1 8NH     -0.432600
     11 C13         5.4490    0.9770    2.9710 c         1 8NH      0.770500
     12 N14         6.2240    0.5290    4.1120 n         1 8NH     -0.358800
     13 C15         5.7370   -0.8340    4.4470 c3        1 8NH     -0.043300
     14 C17         5.0050   -0.7630    5.8120 c3        1 8NH      0.138100
     15 C19         5.3880    0.6050    6.4050 c3        1 8NH     -0.140400
     16 C22         6.1600    1.3610    5.3110 c3        1 8NH      0.045000
     17 O25         3.6140   -0.8360    5.5560 oh        1 8NH     -0.596800
     18 C27         4.8240   -1.2540    3.2740 c         1 8NH      0.730500
     19 O28         4.3810   -2.3810    3.0630 o         1 8NH     -0.549500
     20 O29         5.5090    2.1070    2.4720 o         1 8NH     -0.575500
     21 C30         1.8780   -1.0160    2.5220 c3        1 8NH     -0.073800
     22 H5          5.4300    0.9820    0.1600 ha        1 8NH      0.161000
     23 H7          4.0820    1.1600   -1.9130 ha        1 8NH      0.154000
     24 H15         6.6150   -1.5310    4.5080 h1        1 8NH      0.119700
     25 H17         5.3280   -1.6110    6.4710 h1        1 8NH      0.064700
     26 H191        4.4700    1.1690    6.7010 hc        1 8NH      0.068700
     27 H192        6.0290    0.4730    7.3100 hc        1 8NH      0.068700
     28 H221        5.6880    2.3570    5.0890 h1        1 8NH      0.078200
     29 H222        7.2230    1.5420    5.6320 h1        1 8NH      0.078200
     30 HO25        3.1750   -0.9600    6.4070 ho        1 8NH      0.417000
     31 H301        0.7750   -0.8320    2.5380 hc        1 8NH      0.065700
     32 H302        2.3060   -0.5810    3.4600 hc        1 8NH      0.065700
     33 H303        2.0560   -2.1240    2.5470 hc        1 8NH      0.065700
@<TRIPOS>BOND
     1    1    2 1   
     2    2    3 ar  
     3    2    7 ar  
     4    3    4 ar  
     5    3   21 1   
     6    4    5 ar  
     7    4   10 1   
     8    5    6 ar  
     9    5   22 1   
    10    6    7 ar  
    11    6   23 1   
    12    7    8 1   
    13    8    9 3   
    14   10   11 1   
    15   10   18 1   
    16   11   12 1   
    17   11   20 2   
    18   12   13 1   
    19   12   16 1   
    20   13   14 1   
    21   13   18 1   
    22   13   24 1   
    23   14   15 1   
    24   14   17 1   
    25   14   25 1   
    26   15   16 1   
    27   15   26 1   
    28   15   27 1   
    29   16   28 1   
    30   16   29 1   
    31   17   30 1   
    32   18   19 2   
    33   21   31 1   
    34   21   32 1   
    35   21   33 1   
@<TRIPOS>SUBSTRUCTURE
     1 8NH         1 TEMP              0 ****  ****    0 ROOT
