@<TRIPOS>MOLECULE
8NH
   33    35     1     0     0
SMALL
bcc


@<TRIPOS>ATOM
      1 CL1         7.2030    2.5830    5.8820 cl        1 8NH     -0.061400
      2 C2          6.1920    3.3170    4.7280 ca        1 8NH      0.051400
      3 C3          5.1910    2.5690    4.0830 ca        1 8NH     -0.059300
      4 C4          4.3400    3.2330    3.1620 ca        1 8NH      0.081600
      5 C5          4.5490    4.5990    2.8700 ca        1 8NH     -0.128000
      6 C7          5.5620    5.3080    3.4980 ca        1 8NH     -0.081000
      7 C9          6.3840    4.6780    4.4400 ca        1 8NH     -0.009000
      8 C10         7.4030    5.4290    5.0880 cg        1 8NH      0.233800
      9 N11         8.2330    6.0510    5.6120 n1        1 8NH     -0.345800
     10 N12         3.2900    2.5490    2.5110 n         1 8NH     -0.441600
     11 C13         2.9980    2.7070    1.1130 c         1 8NH      0.760500
     12 N14         1.7330    2.0770    0.7950 n         1 8NH     -0.359800
     13 C15         1.3080    1.3350    2.0100 c3        1 8NH     -0.083300
     14 C17         1.3550   -0.1860    1.6980 c3        1 8NH      0.143100
     15 C19         1.5310   -0.2740    0.1720 c3        1 8NH     -0.145400
     16 C22         1.7260    1.1610   -0.3430 c3        1 8NH      0.037000
     17 O25         2.3730   -0.8620    2.3980 oh        1 8NH     -0.572800
     18 C27         2.2680    1.7840    3.1320 c         1 8NH      0.706500
     19 O28         2.1490    1.5580    4.3330 o         1 8NH     -0.535500
     20 O29         3.7020    3.3340    0.3110 o         1 8NH     -0.570500
     21 C30         5.0260    1.1260    4.3830 c3        1 8NH     -0.064800
     22 H5          3.9180    5.1060    2.1200 ha        1 8NH      0.162000
     23 H7          5.7170    6.3720    3.2600 ha        1 8NH      0.156000
     24 H15         0.2620    1.6490    2.2770 h1        1 8NH      0.123700
     25 H17         0.4080   -0.6820    2.0460 h1        1 8NH      0.106700
     26 H191        0.6250   -0.7320   -0.2940 hc        1 8NH      0.073200
     27 H192        2.4110   -0.9140   -0.0820 hc        1 8NH      0.073200
     28 H221        2.6670    1.2590   -0.9490 h1        1 8NH      0.079700
     29 H222        0.8600    1.4680   -0.9930 h1        1 8NH      0.079700
     30 HO25        3.2250   -0.5220    2.0950 ho        1 8NH      0.403000
     31 H301        5.9920    0.6600    4.6990 hc        1 8NH      0.061033
     32 H302        4.2790    0.9970    5.2100 hc        1 8NH      0.061033
     33 H303        4.6560    0.5580    3.4940 hc        1 8NH      0.061033
@<TRIPOS>BOND
     1    1    2 1   
     2    2    3 ar  
     3    2    7 ar  
     4    3    4 ar  
     5    3   21 1   
     6    4    5 ar  
     7    4   10 1   
     8    5    6 ar  
     9    5   22 1   
    10    6    7 ar  
    11    6   23 1   
    12    7    8 1   
    13    8    9 3   
    14   10   11 1   
    15   10   18 1   
    16   11   12 1   
    17   11   20 2   
    18   12   13 1   
    19   12   16 1   
    20   13   14 1   
    21   13   18 1   
    22   13   24 1   
    23   14   15 1   
    24   14   17 1   
    25   14   25 1   
    26   15   16 1   
    27   15   26 1   
    28   15   27 1   
    29   16   28 1   
    30   16   29 1   
    31   17   30 1   
    32   18   19 2   
    33   21   31 1   
    34   21   32 1   
    35   21   33 1   
@<TRIPOS>SUBSTRUCTURE
     1 8NH         1 TEMP              0 ****  ****    0 ROOT
