@<TRIPOS>MOLECULE
8NH
   33    35     1     0     0
SMALL
bcc


@<TRIPOS>ATOM
      1 CL1         0.1680   -0.9050    0.0310 cl        1 8NH     -0.065400
      2 C2          1.7730   -0.3450    0.1050 ca        1 8NH      0.050400
      3 C3          2.5020   -0.4400    1.3030 ca        1 8NH     -0.056300
      4 C4          3.8540   -0.0070    1.3040 ca        1 8NH      0.086600
      5 C5          4.4120    0.5630    0.1390 ca        1 8NH     -0.126000
      6 C7          3.6620    0.6720   -1.0220 ca        1 8NH     -0.083000
      7 C9          2.3410    0.2090   -1.0540 ca        1 8NH     -0.011000
      8 C10         1.5970    0.3100   -2.2600 cg        1 8NH      0.235800
      9 N11         0.9960    0.3980   -3.2530 n1        1 8NH     -0.350800
     10 N12         4.6620   -0.1190    2.4560 n         1 8NH     -0.432600
     11 C13         5.4580    0.9620    2.9650 c         1 8NH      0.770500
     12 N14         6.2260    0.5150    4.1110 n         1 8NH     -0.358800
     13 C15         5.7240   -0.8400    4.4550 c3        1 8NH     -0.043300
     14 C17         4.9890   -0.7510    5.8180 c3        1 8NH      0.138100
     15 C19         5.3850    0.6170    6.4020 c3        1 8NH     -0.140400
     16 C22         6.1670    1.3570    5.3040 c3        1 8NH      0.045000
     17 O25         3.5980   -0.8120    5.5590 oh        1 8NH     -0.596800
     18 C27         4.8090   -1.2610    3.2830 c         1 8NH      0.730500
     19 O28         4.3560   -2.3840    3.0800 o         1 8NH     -0.549500
     20 O29         5.5320    2.0870    2.4570 o         1 8NH     -0.575500
     21 C30         1.8680   -0.9980    2.5210 c3        1 8NH     -0.073800
     22 H5          5.4470    0.9450    0.1540 ha        1 8NH      0.161000
     23 H7          4.1070    1.1210   -1.9240 ha        1 8NH      0.154000
     24 H15         6.5950   -1.5460    4.5240 h1        1 8NH      0.119700
     25 H17         5.3010   -1.5970    6.4840 h1        1 8NH      0.064700
     26 H191        4.4710    1.1920    6.6900 hc        1 8NH      0.068700
     27 H192        6.0220    0.4850    7.3090 hc        1 8NH      0.068700
     28 H221        7.2310    1.5290    5.6260 h1        1 8NH      0.078200
     29 H222        5.7060    2.3560    5.0730 h1        1 8NH      0.078200
     30 HO25        3.1560   -0.9240    6.4090 ho        1 8NH      0.417000
     31 H301        2.2990   -0.5600    3.4570 hc        1 8NH      0.065700
     32 H302        0.7670   -0.8020    2.5330 hc        1 8NH      0.065700
     33 H303        2.0350   -2.1070    2.5550 hc        1 8NH      0.065700
@<TRIPOS>BOND
     1    1    2 1   
     2    2    3 ar  
     3    2    7 ar  
     4    3    4 ar  
     5    3   21 1   
     6    4    5 ar  
     7    4   10 1   
     8    5    6 ar  
     9    5   22 1   
    10    6    7 ar  
    11    6   23 1   
    12    7    8 1   
    13    8    9 3   
    14   10   11 1   
    15   10   18 1   
    16   11   12 1   
    17   11   20 2   
    18   12   13 1   
    19   12   16 1   
    20   13   14 1   
    21   13   18 1   
    22   13   24 1   
    23   14   15 1   
    24   14   17 1   
    25   14   25 1   
    26   15   16 1   
    27   15   26 1   
    28   15   27 1   
    29   16   28 1   
    30   16   29 1   
    31   17   30 1   
    32   18   19 2   
    33   21   31 1   
    34   21   32 1   
    35   21   33 1   
@<TRIPOS>SUBSTRUCTURE
     1 8NH         1 TEMP              0 ****  ****    0 ROOT
