@<TRIPOS>MOLECULE
8NH
   33    33     1     0     0
SMALL
bcc


@<TRIPOS>ATOM
      1 CL1         0.1470    0.2010   -5.2140 cl        1 8NH      0.015000
      2 C2         -0.7240    0.2610   -3.6360 c2        1 8NH     -0.028000
      3 C3         -0.0470    0.1630   -2.4960 c2        1 8NH     -0.046000
      4 C4         -0.7330    0.1530   -1.2760 c1        1 8NH      0.093000
      5 C5         -2.0370    0.2410   -1.2540 c1        1 8NH     -0.105500
      6 C7         -2.7470    0.3430   -2.4330 c1        1 8NH     -0.105500
      7 C9         -2.1000    0.3530   -3.6130 c1        1 8NH     -0.006000
      8 C10        -2.9130    0.4650   -4.9480 c1        1 8NH     -0.094000
      9 N11        -3.5060    0.5450   -5.9130 n1        1 8NH     -0.024000
     10 N12         0.0000    0.0480   -0.0320 n         1 8NH     -0.307000
     11 C13         0.6750    1.1160    0.6270 c2        1 8NH      0.364000
     12 N14         1.4250    0.5500    1.7710 n         1 8NH     -0.221000
     13 C15         1.2880   -0.7330    1.7420 c3        1 8NH     -0.068000
     14 C17         0.6730   -1.1230    3.1550 c3        1 8NH      0.028000
     15 C19         0.7940    0.1250    4.0100 c3        1 8NH     -0.219000
     16 C22         1.6050    0.9480    3.2990 c3        1 8NH     -0.070000
     17 O25        -0.6720   -1.4960    3.0240 oh        1 8NH     -0.321000
     18 C27         0.3150   -1.0900    0.6060 c2        1 8NH      0.333000
     19 O28        -0.1290   -2.1150    0.4060 o         1 8NH     -0.272000
     20 O29         0.6260    2.2970    0.3100 o         1 8NH     -0.302000
     21 C30         1.4910   -0.0000   -2.5180 c3        1 8NH     -0.196000
     22 H5         -2.4810    0.2360   -0.4540 ha        1 8NH      0.157500
     23 H7         -3.7710    0.4090   -2.4060 ha        1 8NH      0.157500
     24 H15         2.1410   -1.1660    1.6050 h1        1 8NH      0.157000
     25 H17         1.1570   -1.8170    3.5350 h1        1 8NH      0.103000
     26 H191        1.2950   -0.1320    4.8880 hc        1 8NH      0.107500
     27 H192       -0.1220    0.5560    4.0770 hc        1 8NH      0.107500
     28 H221        1.3150    1.9650    3.4440 h1        1 8NH      0.117500
     29 H222        2.5330    0.8220    3.5760 h1        1 8NH      0.117500
     30 HO25       -0.8940   -1.9610    3.6730 ho        1 8NH      0.215000
     31 H301        1.8760    0.7750   -2.3050 hc        1 8NH      0.103333
     32 H302        1.7510   -0.6780   -1.8730 hc        1 8NH      0.103333
     33 H303        1.7680   -0.2620   -3.3770 hc        1 8NH      0.103333
@<TRIPOS>BOND
     1    1    2 1   
     2    2    3 1   
     3    2    7 1   
     4    3    4 1   
     5    3   21 1   
     6    4   10 1   
     7    5    6 1   
     8    5   22 1   
     9    6   23 1   
    10    7    8 1   
    11    8    9 1   
    12   10   11 1   
    13   10   18 1   
    14   11   12 1   
    15   11   20 1   
    16   12   13 1   
    17   12   16 1   
    18   13   14 1   
    19   13   18 1   
    20   13   24 1   
    21   14   15 1   
    22   14   17 1   
    23   14   25 1   
    24   15   16 1   
    25   15   26 1   
    26   15   27 1   
    27   16   28 1   
    28   16   29 1   
    29   17   30 1   
    30   18   19 1   
    31   21   31 1   
    32   21   32 1   
    33   21   33 1   
@<TRIPOS>SUBSTRUCTURE
     1 8NH         1 TEMP              0 ****  ****    0 ROOT
