@<TRIPOS>MOLECULE
8NX
   17    15     1     0     0
SMALL
bcc


@<TRIPOS>ATOM
      1 N1         -0.6620   -0.1290   -2.5650 n         1 8NX     -0.512500
      2 C2          0.7410    0.1010   -2.5460 c         1 8NX      0.782100
      3 O2          1.3580    0.1770   -3.5890 o         1 8NX     -0.578100
      4 N3          1.4270    0.2760   -1.2890 n         1 8NX     -0.437100
      5 C4          0.6920    0.1630   -0.0340 ce        1 8NX      0.151100
      6 C5         -0.6420   -0.1090   -0.0480 c1        1 8NX     -0.134900
      7 C6         -1.3650   -0.2630   -1.3620 c1        1 8NX      0.628500
      8 O6         -2.5640   -0.4400   -1.3780 o         1 8NX     -0.550500
      9 N7         -1.0720   -0.1590    1.2340 n1        1 8NX     -0.094000
     10 C8         -0.0080    0.0800    2.0430 c1        1 8NX      0.140400
     11 N9          1.0810    0.2790    1.2580 ne        1 8NX     -0.432000
     12 N10         0.4090    0.0400    3.4000 n2        1 8NX      0.500400
     13 O11        -0.2320   -0.6030    4.2180 o         1 8NX     -0.255700
     14 O12         1.5350    0.7090    3.7890 o         1 8NX     -0.255700
     15 HN1        -1.0980   -0.2210   -3.3590 hn        1 8NX      0.365500
     16 HN3         2.3280    0.4240   -1.2780 hn        1 8NX      0.375500
     17 HN7        -1.9270   -0.3250    1.5070 DU        1 8NX      0.304000
@<TRIPOS>BOND
     1    1    2 1   
     2    1    7 2   
     3    1   15 1   
     4    2    3 2   
     5    2    4 1   
     6    4    5 1   
     7    4   16 1   
     8    5    6 2   
     9    5   11 1   
    10    6    9 2   
    11    7    8 2   
    12    9   10 2   
    13   10   11 2   
    14   12   13 2   
    15   12   14 2   
@<TRIPOS>SUBSTRUCTURE
     1 8NX         1 TEMP              0 ****  ****    0 ROOT
