@<TRIPOS>MOLECULE
8NX
   17    18     1     0     0
SMALL
bcc


@<TRIPOS>ATOM
      1 N1         -0.0400    0.0000   -0.0010 n         1 8NX     -0.579500
      2 C2          1.3700    0.0000   -0.0410 c         1 8NX      0.818500
      3 O2          1.9700    0.0020   -1.1340 o         1 8NX     -0.614500
      4 N3          2.1130   -0.0010    1.1590 n         1 8NX     -0.514400
      5 C4          1.4380   -0.0020    2.3650 cc        1 8NX      0.479200
      6 C5         -0.0020   -0.0020    2.3930 cd        1 8NX     -0.308200
      7 C6         -0.8050   -0.0010    1.1740 c         1 8NX      0.758100
      8 O6         -2.0440   -0.0010    1.1350 o         1 8NX     -0.592500
      9 N7         -0.3780   -0.0030    3.7230 na        1 8NX     -0.207900
     10 C8          0.8180   -0.0040    4.4590 cd        1 8NX      0.335000
     11 N9          1.9480   -0.0030    3.6670 nc        1 8NX     -0.597000
     12 N10         0.8270   -0.0050    5.9580 no        1 8NX      0.245500
     13 O11        -0.2410   -0.0060    6.5080 o         1 8NX     -0.160000
     14 O12         1.8710   -0.0050    6.5290 o         1 8NX     -0.160000
     15 HN1        -0.5100    0.0010   -0.8830 hn        1 8NX      0.365500
     16 HN3         3.1080   -0.0000    1.1110 hn        1 8NX      0.375500
     17 HN7        -1.3040   -0.0040    4.0830 hn        1 8NX      0.353700
@<TRIPOS>BOND
     1    1    2 1   
     2    1    7 1   
     3    1   15 1   
     4    2    3 2   
     5    2    4 1   
     6    4    5 1   
     7    4   16 1   
     8    5    6 2   
     9    5   11 1   
    10    6    7 1   
    11    6    9 1   
    12    7    8 2   
    13    9   10 1   
    14    9   17 1   
    15   10   11 2   
    16   10   12 1   
    17   12   13 1   
    18   12   14 1   
@<TRIPOS>SUBSTRUCTURE
     1 8NX         1 TEMP              0 ****  ****    0 ROOT
