@<TRIPOS>MOLECULE
8NX
   17    18     1     0     0
SMALL
bcc


@<TRIPOS>ATOM
      1 N1         -2.7530    0.6200   -0.0010 n         1 8NX     -0.579500
      2 C2         -2.7700   -0.7910   -0.0010 c         1 8NX      0.818500
      3 O2         -3.8530   -1.4090   -0.0010 o         1 8NX     -0.614500
      4 N3         -1.5570   -1.5130   -0.0010 n         1 8NX     -0.514400
      5 C4         -0.3630   -0.8190   -0.0000 cc        1 8NX      0.479200
      6 C5         -0.3590    0.6220   -0.0000 cd        1 8NX     -0.308200
      7 C6         -1.5920    1.4040   -0.0010 c         1 8NX      0.758100
      8 O6         -1.6510    2.6430   -0.0010 o         1 8NX     -0.592500
      9 N7          0.9650    1.0200   -0.0000 na        1 8NX     -0.207900
     10 C8          1.7200   -0.1630   -0.0000 cd        1 8NX      0.335000
     11 N9          0.9470   -1.3060   -0.0000 nc        1 8NX     -0.597000
     12 N10         3.2190   -0.1470    0.0000 no        1 8NX      0.245500
     13 O11         3.7510    0.9300    0.0000 o         1 8NX     -0.160000
     14 O12         3.8080   -1.1820    0.0000 o         1 8NX     -0.160000
     15 HN1        -3.6430    1.0750   -0.0010 hn        1 8NX      0.365500
     16 HN3        -1.5890   -2.5090   -0.0010 hn        1 8NX      0.375500
     17 HN7         1.3090    1.9520   -0.0000 hn        1 8NX      0.353700
@<TRIPOS>BOND
     1    1    2 1   
     2    1    7 1   
     3    1   15 1   
     4    2    3 2   
     5    2    4 1   
     6    4    5 1   
     7    4   16 1   
     8    5    6 2   
     9    5   11 1   
    10    6    7 1   
    11    6    9 1   
    12    7    8 2   
    13    9   10 1   
    14    9   17 1   
    15   10   11 2   
    16   10   12 1   
    17   12   13 1   
    18   12   14 1   
@<TRIPOS>SUBSTRUCTURE
     1 8NX         1 TEMP              0 ****  ****    0 ROOT
