@<TRIPOS>MOLECULE
8OD
   40    42     1     0     0
SMALL
bcc


@<TRIPOS>ATOM
      1 N1          0.0000    0.0000    0.0000 nb        1 8OD     -0.726000
      2 C2          1.3190    0.0000    0.0000 ca        1 8OD      0.497900
      3 N3          2.0220    0.0000    1.1140 nb        1 8OD     -0.640000
      4 C4          1.4170    0.0010    2.2970 ca        1 8OD      0.352200
      5 C5          0.0210    0.0010    2.3430 ca        1 8OD     -0.581000
      6 C6         -0.6850   -0.0000    1.1420 ca        1 8OD      0.526200
      7 N6         -2.0730    0.0010    1.1360 nv        1 8OD     -0.567500
      8 N7         -0.3390    0.0010    3.6880 ns        1 8OD      0.030900
      9 C8          0.7900    0.0020    4.4240 c         1 8OD      0.564500
     10 O8          0.8360    0.0010    5.6400 o         1 8OD     -0.695500
     11 N9          1.8610    0.0010    3.6080 n         1 8OD     -0.014300
     12 PA          4.4370   -3.3000    8.6890 p5        1 8OD      0.932800
     13 PB          3.8120   -6.1430    9.2440 p5        1 8OD      0.817900
     14 C1'         3.2620    0.0000    4.0350 c3        1 8OD      0.228500
     15 O1A         3.2260   -2.8540    9.4150 o         1 8OD     -0.703000
     16 O1B         4.4360   -7.4960    8.6350 o         1 8OD     -0.669500
     17 C2'         3.6060    1.3150    4.7800 c3        1 8OD      0.106100
     18 O2'         3.9920    2.3370    3.8590 oh        1 8OD     -0.567800
     19 O2A         5.7390   -3.0030    9.5870 o         1 8OD     -0.703000
     20 O2B         4.2310   -5.9980   10.6570 o         1 8OD     -0.669500
     21 C3'         4.8050    0.8850    5.6600 c3        1 8OD      0.123100
     22 O3'         6.0390    1.2470    5.0370 oh        1 8OD     -0.574800
     23 O3A         4.3340   -4.8790    8.3960 os        1 8OD     -0.471800
     24 O3B         2.2050   -6.2120    9.1660 o         1 8OD     -0.669500
     25 C4'         4.6770   -0.6480    5.7500 c3        1 8OD      0.138100
     26 O4'         3.4900   -1.0200    5.0310 os        1 8OD     -0.338600
     27 C5'         4.5540   -1.0750    7.2140 c3        1 8OD      0.302400
     28 O5'         4.5530   -2.5010    7.2950 os        1 8OD     -0.487200
     29 H2          1.8420    0.0000   -0.9490 h5        1 8OD     -0.026900
     30 HN6        -2.5770   -0.0090    2.0010 hn        1 8OD      0.251300
     31 HN6A       -2.5700    0.0070    0.2680 hn        1 8OD      0.251300
     32 HN7        -1.2730   -0.0010    4.0460 hn        1 8OD      0.160500
     33 H1'         3.9250   -0.1410    3.1900 h2        1 8OD      0.050700
     34 H2'         2.7740    1.6350    5.3950 h1        1 8OD      0.038700
     35 HO2'        3.7510    3.1800    4.2060 ho        1 8OD      0.363000
     36 H3'         4.7270    1.3280    6.6450 h1        1 8OD      0.013700
     37 HO3'        6.5520    1.7680    5.6330 ho        1 8OD      0.368000
     38 H4'         5.5420   -1.1160    5.2960 h1        1 8OD      0.030700
     39 H5'         5.3920   -0.6820    7.7770 h1        1 8OD     -0.019300
     40 H5'A        3.6300   -0.6890    7.6270 h1        1 8OD     -0.019300
@<TRIPOS>BOND
     1    1    2 ar  
     2    1    6 ar  
     3    2    3 ar  
     4    2   29 1   
     5    3    4 ar  
     6    4    5 ar  
     7    4   11 1   
     8    5    6 ar  
     9    5    8 1   
    10    6    7 1   
    11    7   30 1   
    12    7   31 1   
    13    8    9 1   
    14    8   32 1   
    15    9   10 2   
    16    9   11 1   
    17   11   14 1   
    18   12   15 1   
    19   12   19 1   
    20   12   23 1   
    21   12   28 1   
    22   13   16 1   
    23   13   20 1   
    24   13   23 1   
    25   13   24 1   
    26   14   17 1   
    27   14   26 1   
    28   14   33 1   
    29   17   18 1   
    30   17   21 1   
    31   17   34 1   
    32   18   35 1   
    33   21   22 1   
    34   21   25 1   
    35   21   36 1   
    36   22   37 1   
    37   25   26 1   
    38   25   27 1   
    39   25   38 1   
    40   27   28 1   
    41   27   39 1   
    42   27   40 1   
@<TRIPOS>SUBSTRUCTURE
     1 8OD         1 TEMP              0 ****  ****    0 ROOT
