@<TRIPOS>MOLECULE
8OG
   36    38     1     0     0
SMALL
bcc


@<TRIPOS>ATOM
      1 OP3         0.8920   -4.6860    3.8390 o         1 8OG     -0.849000
      2 P           0.3130   -3.5140    3.1600 p5        1 8OG      1.442800
      3 OP1        -1.2160   -3.8320    2.6790 oh        1 8OG     -0.787400
      4 OP2         0.1850   -2.1430    3.7160 o         1 8OG     -0.849000
      5 O5'         1.0470   -3.3300    1.6960 os        1 8OG     -0.579200
      6 C5'         0.5870   -2.3110    0.8620 c3        1 8OG      0.201400
      7 C4'         1.5270   -1.0950    0.8910 c3        1 8OG      0.086100
      8 O4'         1.8880   -0.7710   -0.4600 os        1 8OG     -0.433600
      9 C3'         0.9030    0.1700    1.5200 c3        1 8OG      0.139100
     10 O3'         1.4160    0.4160    2.8140 oh        1 8OG     -0.646800
     11 C2'         1.3250    1.3230    0.6060 c3        1 8OG     -0.109400
     12 C1'         2.0450    0.6620   -0.5890 c3        1 8OG      0.320500
     13 N9          1.6450    1.1190   -1.8950 n         1 8OG     -0.378300
     14 C8          2.5850    1.1590   -2.9850 c         1 8OG      0.752500
     15 N7          1.8970    1.1410   -4.2460 n         1 8OG     -0.322500
     16 C5          0.5140    1.2630   -3.9030 cc        1 8OG     -0.367700
     17 C6         -0.6150    1.3960   -4.7550 c         1 8OG      0.666200
     18 O6         -0.6180    1.5390   -6.0080 o         1 8OG     -0.766500
     19 N1         -1.8500    1.4030   -4.0810 n         1 8OG     -0.566400
     20 C2         -1.9910    1.2900   -2.6500 cd        1 8OG      0.717900
     21 N2         -3.1780    1.3300   -2.0680 n2        1 8OG     -0.910100
     22 N3         -0.8360    1.1460   -1.8290 nd        1 8OG     -0.772000
     23 C4          0.3340    1.1460   -2.4730 cc        1 8OG      0.504600
     24 O8          3.8270    1.1850   -2.8440 o         1 8OG     -0.687500
     25 H5'        -0.4500   -2.0050    1.1710 h1        1 8OG      0.035700
     26 H5''        0.5590   -2.7180   -0.1880 h1        1 8OG      0.035700
     27 H4'         2.4770   -1.3600    1.4330 h1        1 8OG      0.061700
     28 H3'        -0.2160    0.0830    1.5640 h1        1 8OG      0.062700
     29 HO3'        1.0700   -0.2900    3.3880 ho        1 8OG      0.464000
     30 H2'         2.0380    2.0020    1.1360 hc        1 8OG      0.069200
     31 H2''        0.4340    1.9200    0.2980 hc        1 8OG      0.069200
     32 H1'         3.1620    0.8560   -0.5290 h2        1 8OG      0.067700
     33 H7          2.2260    1.8090   -4.9110 hn        1 8OG      0.275500
     34 H1         -2.6650    1.4670   -4.6420 hn        1 8OG      0.290500
     35 H21        -1.7710   -3.0610    2.7190 ho        1 8OG      0.427000
     36 H22        -3.9370    1.4190   -2.7110 hn        1 8OG      0.337400
@<TRIPOS>BOND
     1    1    2 1   
     2    2    3 1   
     3    2    4 1   
     4    2    5 1   
     5    3   35 1   
     6    5    6 1   
     7    6    7 1   
     8    6   25 1   
     9    6   26 1   
    10    7    8 1   
    11    7    9 1   
    12    7   27 1   
    13    8   12 1   
    14    9   10 1   
    15    9   11 1   
    16    9   28 1   
    17   10   29 1   
    18   11   12 1   
    19   11   30 1   
    20   11   31 1   
    21   12   13 1   
    22   12   32 1   
    23   13   14 1   
    24   13   23 1   
    25   14   15 1   
    26   14   24 2   
    27   15   16 2   
    28   15   33 1   
    29   16   17 1   
    30   16   23 1   
    31   17   18 2   
    32   17   19 1   
    33   19   20 1   
    34   19   34 1   
    35   20   21 2   
    36   20   22 1   
    37   21   36 1   
    38   22   23 2   
@<TRIPOS>SUBSTRUCTURE
     1 8OG         1 TEMP              0 ****  ****    0 ROOT
