@<TRIPOS>MOLECULE
8OP
   36    35     1     0     0
SMALL
bcc


@<TRIPOS>ATOM
      1 P          -0.9190    4.6830    3.2560 p3        1 8OP      2.552000
      2 O1P         0.5270    4.9220    3.6570 os        1 8OP     -1.286000
      3 O2P        -1.7590    4.3180    4.5260 o         1 8OP     -1.231500
      4 O3P        -1.4850    5.9480    2.6130 o         1 8OP     -1.231500
      5 O50        -0.9880    3.5250    2.2460 os        1 8OP     -0.728000
      6 C50        -0.5120    2.2570    2.6380 c3        1 8OP      0.062000
      7 C40        -1.1790    1.1620    1.7660 c3        1 8OP     -0.056000
      8 O40        -0.5980    1.0980    0.5880 os        1 8OP     -0.298000
      9 C30        -0.9690   -0.2160    2.3890 c3        1 8OP     -0.026000
     10 O30        -2.1210   -0.6920    2.8690 oh        1 8OP     -0.375000
     11 C20        -0.4470   -1.1330    1.2170 c3        1 8OP     -0.017000
     12 O20        -1.2210   -2.3910    1.1720 oh        1 8OP     -0.340000
     13 C10        -0.6430   -0.4510    0.1490 c3        1 8OP      0.094000
     14 N9          0.4100   -0.7280   -0.8290 n         1 8OP     -0.223000
     15 C8          1.7000   -0.2200   -0.7960 c2        1 8OP      0.328000
     16 O8          2.1430    0.5120    0.0420 o         1 8OP     -0.340000
     17 N7          2.3450   -0.5800   -2.0170 n         1 8OP     -0.226000
     18 C5          1.4080   -1.3330   -2.8140 c2        1 8OP     -0.130000
     19 C6          1.5030   -1.8810   -4.1000 c2        1 8OP      0.163000
     20 N6          2.5920   -2.0780   -5.0620 n3        1 8OP     -0.315000
     21 N1          0.4380   -2.5060   -4.6470 n1        1 8OP     -0.260000
     22 C2         -0.7470   -2.6050   -3.9400 c1        1 8OP     -0.039000
     23 N3         -0.8440   -2.0650   -2.6700 n1        1 8OP     -0.183000
     24 C4          0.2340   -1.4310   -2.1110 c1        1 8OP      0.060000
     25 H50         0.5040    2.2210    2.5130 h1        1 8OP      0.041000
     26 H50A       -0.7390    2.0980    3.6070 h1        1 8OP      0.041000
     27 H40        -2.0910    1.3370    1.6680 h1        1 8OP      0.087000
     28 H30        -0.3250   -0.1660    3.0760 h1        1 8OP      0.185000
     29 HO30       -2.0350   -0.8580    3.7380 ho        1 8OP      0.283000
     30 H20         0.5330   -1.3280    1.3350 h1        1 8OP      0.148000
     31 HO20       -0.7150   -3.0620    1.4680 ho        1 8OP      0.213000
     32 H10        -1.5400   -0.6710   -0.2400 h2        1 8OP      0.124000
     33 HN7         3.1880   -0.3740   -2.2490 hn        1 8OP      0.314000
     34 HN6         3.4410   -1.7430   -4.8790 hn        1 8OP      0.228500
     35 HN6A        2.4350   -2.5060   -5.8380 hn        1 8OP      0.228500
     36 H2         -1.5220   -3.0620   -4.3410 ha        1 8OP      0.153000
@<TRIPOS>BOND
     1    1    3 1   
     2    1    4 1   
     3    1    5 1   
     4    5    6 1   
     5    6    7 1   
     6    6   25 1   
     7    6   26 1   
     8    7    8 1   
     9    7    9 1   
    10    7   27 1   
    11    8   13 1   
    12    9   10 1   
    13    9   11 1   
    14    9   28 1   
    15   10   29 1   
    16   11   12 1   
    17   11   13 1   
    18   11   30 1   
    19   12   31 1   
    20   13   14 1   
    21   13   32 1   
    22   14   15 1   
    23   14   24 1   
    24   15   16 1   
    25   15   17 1   
    26   17   18 1   
    27   17   33 1   
    28   18   19 1   
    29   18   24 1   
    30   19   20 1   
    31   19   21 1   
    32   20   34 1   
    33   20   35 1   
    34   22   23 1   
    35   22   36 1   
@<TRIPOS>SUBSTRUCTURE
     1 8OP         1 TEMP              0 ****  ****    0 ROOT
