@<TRIPOS>MOLECULE
8OP
   36    38     1     0     0
SMALL
bcc


@<TRIPOS>ATOM
      1 P           1.8260   -1.6140    0.3990 p5        1 8OP      1.359900
      2 O1P         0.4180   -1.9150    0.8970 o         1 8OP     -0.930167
      3 O2P         2.4730   -0.4800    1.1550 o         1 8OP     -0.930167
      4 O3P         2.6350   -2.8050    0.0090 o         1 8OP     -0.930167
      5 O50         1.5530   -0.7830   -1.0860 os        1 8OP     -0.566200
      6 C50         0.3570   -0.1360   -1.2360 c3        1 8OP      0.212400
      7 C40         0.4570    1.3880   -1.0130 c3        1 8OP      0.055100
      8 O40        -0.8700    1.9590   -1.1280 os        1 8OP     -0.441600
      9 C30         0.9980    1.7920    0.3750 c3        1 8OP      0.085100
     10 O30         2.3230    2.2580    0.2950 oh        1 8OP     -0.647800
     11 C20         0.0560    2.9270    0.8340 c3        1 8OP      0.094100
     12 O20         0.4430    4.2110    0.3840 oh        1 8OP     -0.612800
     13 C10        -1.2810    2.5400    0.1180 c3        1 8OP      0.242500
     14 N9         -2.1640    1.6580    0.9020 n         1 8OP     -0.407300
     15 C8         -1.5610    0.9430    2.0540 c         1 8OP      0.737500
     16 O8         -1.1550    1.5220    3.0740 o         1 8OP     -0.615500
     17 N7         -1.7420   -0.4840    1.9500 n         1 8OP     -0.372100
     18 C5         -2.4430   -0.6700    0.7390 ca        1 8OP     -0.268000
     19 C6         -2.7570   -1.8630    0.0210 ca        1 8OP      0.684200
     20 N6         -2.2290   -3.0820    0.4480 nh        1 8OP     -0.917500
     21 N1         -3.6110   -1.7600   -1.0600 nb        1 8OP     -0.786000
     22 C2         -3.9970   -0.5150   -1.4200 ca        1 8OP      0.623900
     23 N3         -3.6240    0.6980   -0.9250 nb        1 8OP     -0.709000
     24 C4         -2.8010    0.6020    0.1510 ca        1 8OP      0.468200
     25 H50        -0.0070   -0.2770   -2.2970 h1        1 8OP      0.001700
     26 H50A       -0.4210   -0.5500   -0.5350 h1        1 8OP      0.001700
     27 H40         1.0640    1.8650   -1.8270 h1        1 8OP      0.047700
     28 H30         0.9510    0.8940    1.0720 h1        1 8OP      0.145700
     29 HO30        2.8730    1.4840    0.5380 ho        1 8OP      0.484000
     30 H20        -0.0280    3.0130    1.9460 h1        1 8OP      0.108700
     31 HO20        1.0300    4.0780   -0.3710 ho        1 8OP      0.414000
     32 H10        -1.8980    3.4390   -0.1620 h2        1 8OP      0.084700
     33 HN7        -0.8940   -1.0540    2.0600 hn        1 8OP      0.400500
     34 HN6        -1.2950   -2.9690    0.8440 hn        1 8OP      0.433300
     35 HN6A       -2.2590   -3.7990   -0.2460 hn        1 8OP      0.433300
     36 H2         -4.6950   -0.4710   -2.2800 h5        1 8OP      0.016100
@<TRIPOS>BOND
     1    1    2 1   
     2    1    3 1   
     3    1    4 1   
     4    1    5 1   
     5    5    6 1   
     6    6    7 1   
     7    6   25 1   
     8    6   26 1   
     9    7    8 1   
    10    7    9 1   
    11    7   27 1   
    12    8   13 1   
    13    9   10 1   
    14    9   11 1   
    15    9   28 1   
    16   10   29 1   
    17   11   12 1   
    18   11   13 1   
    19   11   30 1   
    20   12   31 1   
    21   13   14 1   
    22   13   32 1   
    23   14   15 1   
    24   14   24 1   
    25   15   16 2   
    26   15   17 1   
    27   17   18 1   
    28   17   33 1   
    29   18   19 ar  
    30   18   24 ar  
    31   19   20 1   
    32   19   21 ar  
    33   20   34 1   
    34   20   35 1   
    35   21   22 ar  
    36   22   23 ar  
    37   22   36 1   
    38   23   24 ar  
@<TRIPOS>SUBSTRUCTURE
     1 8OP         1 TEMP              0 ****  ****    0 ROOT
