@<TRIPOS>MOLECULE
8OP
   36    38     1     0     0
SMALL
bcc


@<TRIPOS>ATOM
      1 P           1.4480   -1.8210   -1.8960 p5        1 8OP      1.359900
      2 O1P         2.2230   -2.6790   -2.8880 o         1 8OP     -0.930167
      3 O2P         1.3020   -2.4880   -0.5510 o         1 8OP     -0.930167
      4 O3P         1.7140   -0.3550   -1.9750 o         1 8OP     -0.930167
      5 O50        -0.1860   -1.9840   -2.4210 os        1 8OP     -0.566200
      6 C50        -0.5120   -3.1080   -3.1280 c3        1 8OP      0.212400
      7 C40        -1.2340   -4.1750   -2.2770 c3        1 8OP      0.055100
      8 O40        -1.4690   -5.3420   -3.1030 os        1 8OP     -0.441600
      9 C30        -0.4350   -4.6520   -1.0460 c3        1 8OP      0.085100
     10 O30        -0.9590   -4.1200    0.1460 oh        1 8OP     -0.647800
     11 C20        -0.5940   -6.1890   -1.0630 c3        1 8OP      0.094100
     12 O20        -1.7560   -6.6530   -0.4050 oh        1 8OP     -0.612800
     13 C10        -0.7510   -6.4750   -2.5940 c3        1 8OP      0.242500
     14 N9          0.5160   -6.7220   -3.3060 n         1 8OP     -0.407300
     15 C8          1.7680   -6.3050   -2.6280 c         1 8OP      0.737500
     16 O8          2.1900   -6.8450   -1.5930 o         1 8OP     -0.615500
     17 N7          2.5420   -5.4020   -3.4440 n         1 8OP     -0.372100
     18 C5          1.7800   -5.2400   -4.6220 ca        1 8OP     -0.268000
     19 C6          1.9440   -4.3410   -5.7180 ca        1 8OP      0.684200
     20 N6          2.9200   -3.3470   -5.6520 nh        1 8OP     -0.917500
     21 N1          1.1400   -4.5230   -6.8270 nb        1 8OP     -0.786000
     22 C2          0.1820   -5.4740   -6.7420 ca        1 8OP      0.623900
     23 N3         -0.1800   -6.2630   -5.6930 nb        1 8OP     -0.709000
     24 C4          0.6200   -6.1040   -4.6070 ca        1 8OP      0.468200
     25 H50         0.4020   -3.5780   -3.5900 h1        1 8OP      0.001700
     26 H50A       -1.2270   -2.8270   -3.9570 h1        1 8OP      0.001700
     27 H40        -2.2490   -3.8100   -1.9710 h1        1 8OP      0.047700
     28 H30         0.6520   -4.3370   -1.1590 h1        1 8OP      0.145700
     29 HO30       -0.3920   -3.3440    0.3410 ho        1 8OP      0.484000
     30 H20         0.2590   -6.7300   -0.5820 h1        1 8OP      0.108700
     31 HO20       -2.3680   -5.9070   -0.3560 ho        1 8OP      0.414000
     32 H10        -1.4100   -7.3640   -2.8030 h2        1 8OP      0.084700
     33 HN7         2.8400   -4.5300   -2.9900 hn        1 8OP      0.400500
     34 HN6         3.0380   -2.9990   -4.6990 hn        1 8OP      0.433300
     35 HN6A        2.7860   -2.6070   -6.3090 hn        1 8OP      0.433300
     36 H2         -0.4330   -5.6030   -7.6550 h5        1 8OP      0.016100
@<TRIPOS>BOND
     1    1    2 1   
     2    1    3 1   
     3    1    4 1   
     4    1    5 1   
     5    5    6 1   
     6    6    7 1   
     7    6   25 1   
     8    6   26 1   
     9    7    8 1   
    10    7    9 1   
    11    7   27 1   
    12    8   13 1   
    13    9   10 1   
    14    9   11 1   
    15    9   28 1   
    16   10   29 1   
    17   11   12 1   
    18   11   13 1   
    19   11   30 1   
    20   12   31 1   
    21   13   14 1   
    22   13   32 1   
    23   14   15 1   
    24   14   24 1   
    25   15   16 2   
    26   15   17 1   
    27   17   18 1   
    28   17   33 1   
    29   18   19 ar  
    30   18   24 ar  
    31   19   20 1   
    32   19   21 ar  
    33   20   34 1   
    34   20   35 1   
    35   21   22 ar  
    36   22   23 ar  
    37   22   36 1   
    38   23   24 ar  
@<TRIPOS>SUBSTRUCTURE
     1 8OP         1 TEMP              0 ****  ****    0 ROOT
