@<TRIPOS>MOLECULE
8OP
   36    38     1     0     0
SMALL
bcc


@<TRIPOS>ATOM
      1 P           1.4810   -1.8550   -1.8450 p5        1 8OP      1.359900
      2 O1P         2.2630   -2.7250   -2.8210 o         1 8OP     -0.930167
      3 O2P         1.2780   -2.5280   -0.5100 o         1 8OP     -0.930167
      4 O3P         1.7850   -0.3960   -1.9040 o         1 8OP     -0.930167
      5 O50        -0.1400   -1.9730   -2.4180 os        1 8OP     -0.566200
      6 C50        -0.4730   -3.0840   -3.1440 c3        1 8OP      0.212400
      7 C40        -1.2460   -4.1390   -2.3230 c3        1 8OP      0.055100
      8 O40        -1.4860   -5.2930   -3.1650 os        1 8OP     -0.441600
      9 C30        -0.4960   -4.6450   -1.0730 c3        1 8OP      0.085100
     10 O30        -1.0420   -4.1090    0.1070 oh        1 8OP     -0.647800
     11 C20        -0.6920   -6.1770   -1.1080 c3        1 8OP      0.094100
     12 O20        -1.8840   -6.6170   -0.4870 oh        1 8OP     -0.612800
     13 C10        -0.8110   -6.4480   -2.6450 c3        1 8OP      0.242500
     14 N9          0.4700   -6.7210   -3.3210 n         1 8OP     -0.407300
     15 C8          1.7120   -6.3410   -2.6030 c         1 8OP      0.737500
     16 O8          2.0890   -6.8980   -1.5610 o         1 8OP     -0.615500
     17 N7          2.5310   -5.4510   -3.3890 n         1 8OP     -0.372100
     18 C5          1.8080   -5.2610   -4.5870 ca        1 8OP     -0.268000
     19 C6          2.0260   -4.3590   -5.6710 ca        1 8OP      0.684200
     20 N6          3.0250   -3.3900   -5.5690 nh        1 8OP     -0.917500
     21 N1          1.2520   -4.5120   -6.8050 nb        1 8OP     -0.786000
     22 C2          0.2680   -5.4400   -6.7550 ca        1 8OP      0.623900
     23 N3         -0.1440   -6.2280   -5.7230 nb        1 8OP     -0.709000
     24 C4          0.6280   -6.0970   -4.6130 ca        1 8OP      0.468200
     25 H50        -1.1560   -2.7800   -3.9910 h1        1 8OP      0.001700
     26 H50A        0.4420   -3.5730   -3.5830 h1        1 8OP      0.001700
     27 H40        -2.2610   -3.7510   -2.0440 h1        1 8OP      0.047700
     28 H30         0.6020   -4.3560   -1.1520 h1        1 8OP      0.145700
     29 HO30       -0.4610   -3.3480    0.3250 ho        1 8OP      0.484000
     30 H20         0.1330   -6.7420   -0.6050 h1        1 8OP      0.108700
     31 HO20       -2.4780   -5.8560   -0.4500 ho        1 8OP      0.414000
     32 H10        -1.4850   -7.3180   -2.8800 h2        1 8OP      0.084700
     33 HN7         2.8370   -4.5900   -2.9190 hn        1 8OP      0.400500
     34 HN6         2.9280   -2.6420   -6.2230 hn        1 8OP      0.433300
     35 HN6A        3.1230   -3.0520   -4.6100 hn        1 8OP      0.433300
     36 H2         -0.3220   -5.5470   -7.6860 h5        1 8OP      0.016100
@<TRIPOS>BOND
     1    1    2 1   
     2    1    3 1   
     3    1    4 1   
     4    1    5 1   
     5    5    6 1   
     6    6    7 1   
     7    6   25 1   
     8    6   26 1   
     9    7    8 1   
    10    7    9 1   
    11    7   27 1   
    12    8   13 1   
    13    9   10 1   
    14    9   11 1   
    15    9   28 1   
    16   10   29 1   
    17   11   12 1   
    18   11   13 1   
    19   11   30 1   
    20   12   31 1   
    21   13   14 1   
    22   13   32 1   
    23   14   15 1   
    24   14   24 1   
    25   15   16 2   
    26   15   17 1   
    27   17   18 1   
    28   17   33 1   
    29   18   19 ar  
    30   18   24 ar  
    31   19   20 1   
    32   19   21 ar  
    33   20   34 1   
    34   20   35 1   
    35   21   22 ar  
    36   22   23 ar  
    37   22   36 1   
    38   23   24 ar  
@<TRIPOS>SUBSTRUCTURE
     1 8OP         1 TEMP              0 ****  ****    0 ROOT
