@<TRIPOS>MOLECULE
8OP
   36    38     1     0     0
SMALL
bcc


@<TRIPOS>ATOM
      1 P           1.4970   -1.8570   -1.8510 p5        1 8OP      1.359900
      2 O1P         2.2650   -2.7220   -2.8430 o         1 8OP     -0.930167
      3 O2P         1.3170   -2.5350   -0.5170 o         1 8OP     -0.930167
      4 O3P         1.7990   -0.3970   -1.9090 o         1 8OP     -0.930167
      5 O50        -0.1320   -1.9740   -2.4000 os        1 8OP     -0.566200
      6 C50        -0.4750   -3.0830   -3.1250 c3        1 8OP      0.212400
      7 C40        -1.2350   -4.1410   -2.2960 c3        1 8OP      0.055100
      8 O40        -1.4860   -5.2930   -3.1390 os        1 8OP     -0.441600
      9 C30        -0.4640   -4.6520   -1.0600 c3        1 8OP      0.085100
     10 O30        -0.9920   -4.1210    0.1310 oh        1 8OP     -0.647800
     11 C20        -0.6590   -6.1840   -1.0980 c3        1 8OP      0.094100
     12 O20        -1.8410   -6.6280   -0.4610 oh        1 8OP     -0.612800
     13 C10        -0.8020   -6.4490   -2.6340 c3        1 8OP      0.242500
     14 N9          0.4690   -6.7180   -3.3310 n         1 8OP     -0.407300
     15 C8          1.7210   -6.3390   -2.6320 c         1 8OP      0.737500
     16 O8          2.1150   -6.9000   -1.5970 o         1 8OP     -0.615500
     17 N7          2.5270   -5.4450   -3.4260 ns        1 8OP     -0.372100
     18 C5          1.7850   -5.2510   -4.6120 ca        1 8OP     -0.268000
     19 C6          1.9860   -4.3440   -5.6960 ca        1 8OP      0.684200
     20 N6          2.9840   -3.3740   -5.6050 nv        1 8OP     -0.917500
     21 N1          1.1940   -4.4940   -6.8180 nb        1 8OP     -0.786000
     22 C2          0.2120   -5.4230   -6.7560 ca        1 8OP      0.623900
     23 N3         -0.1830   -6.2150   -5.7220 nb        1 8OP     -0.709000
     24 C4          0.6060   -6.0880   -4.6230 ca        1 8OP      0.468200
     25 H50        -1.1720   -2.7750   -3.9600 h1        1 8OP      0.001700
     26 H50A        0.4330   -3.5680   -3.5800 h1        1 8OP      0.001700
     27 H40        -2.2450   -3.7560   -2.0000 h1        1 8OP      0.047700
     28 H30         0.6320   -4.3610   -1.1550 h1        1 8OP      0.145700
     29 HO30       -0.4090   -3.3610    0.3430 ho        1 8OP      0.484000
     30 H20         0.1740   -6.7500   -0.6110 h1        1 8OP      0.108700
     31 HO20       -2.4350   -5.8680   -0.4110 ho        1 8OP      0.414000
     32 H10        -1.4790   -7.3190   -2.8620 h2        1 8OP      0.084700
     33 HN7         2.8400   -4.5850   -2.9580 hn        1 8OP      0.400500
     34 HN6         2.8770   -2.6240   -6.2540 hn        1 8OP      0.433300
     35 HN6A        3.0970   -3.0400   -4.6470 hn        1 8OP      0.433300
     36 H2         -0.3930   -5.5270   -7.6790 h5        1 8OP      0.016100
@<TRIPOS>BOND
     1    1    2 1   
     2    1    3 1   
     3    1    4 1   
     4    1    5 1   
     5    5    6 1   
     6    6    7 1   
     7    6   25 1   
     8    6   26 1   
     9    7    8 1   
    10    7    9 1   
    11    7   27 1   
    12    8   13 1   
    13    9   10 1   
    14    9   11 1   
    15    9   28 1   
    16   10   29 1   
    17   11   12 1   
    18   11   13 1   
    19   11   30 1   
    20   12   31 1   
    21   13   14 1   
    22   13   32 1   
    23   14   15 1   
    24   14   24 1   
    25   15   16 2   
    26   15   17 1   
    27   17   18 1   
    28   17   33 1   
    29   18   19 ar  
    30   18   24 ar  
    31   19   20 1   
    32   19   21 ar  
    33   20   34 1   
    34   20   35 1   
    35   21   22 ar  
    36   22   23 ar  
    37   22   36 1   
    38   23   24 ar  
@<TRIPOS>SUBSTRUCTURE
     1 8OP         1 TEMP              0 ****  ****    0 ROOT
