@<TRIPOS>MOLECULE
8OX
   33    35     1     0     0
SMALL
bcc


@<TRIPOS>ATOM
      1 O50         2.7160    2.0020    1.7740 oh        1 8OX     -0.594800
      2 C50         2.8980    1.4590    0.4840 c3        1 8OX      0.112400
      3 C40         2.9010   -0.0680    0.5220 c3        1 8OX      0.056100
      4 O40         1.6270   -0.5300    0.9890 os        1 8OX     -0.427600
      5 C30         3.1660   -0.6910   -0.8600 c3        1 8OX      0.085100
      6 O30         4.2330   -1.6190   -0.8040 oh        1 8OX     -0.593800
      7 C20         1.8880   -1.4760   -1.2280 c3        1 8OX      0.137100
      8 O20         2.0770   -2.8600   -1.3620 oh        1 8OX     -0.568800
      9 C10         0.8920   -1.1900   -0.0540 c3        1 8OX      0.272500
     10 N9         -0.2690   -0.4250   -0.4490 n         1 8OX     -0.440300
     11 C8         -0.2660    0.7740   -1.2490 c         1 8OX      0.771500
     12 O8          0.6720    1.1610   -1.9650 o         1 8OX     -0.617500
     13 N7         -1.5680    1.3900   -1.1940 n         1 8OX     -0.376100
     14 C5         -2.2880    0.6840   -0.2010 ca        1 8OX     -0.340000
     15 C6         -3.5970    0.8460    0.3230 ca        1 8OX      0.684200
     16 N6         -4.3650    1.9540   -0.0310 nh        1 8OX     -0.923500
     17 N1         -4.0540   -0.0700    1.2500 nb        1 8OX     -0.749000
     18 C2         -3.2160   -1.0660    1.6070 ca        1 8OX      0.674900
     19 N3         -1.9500   -1.3370    1.1730 nb        1 8OX     -0.711000
     20 C4         -1.4970   -0.4490    0.2560 ca        1 8OX      0.540200
     21 HO50        1.9220    1.5950    2.1450 ho        1 8OX      0.413000
     22 H50         2.0950    1.8270   -0.2120 h1        1 8OX      0.058200
     23 H50A        3.8980    1.8400    0.1450 h1        1 8OX      0.058200
     24 H40         3.6400   -0.4350    1.2880 h1        1 8OX      0.090700
     25 H30         3.3670    0.1020   -1.6290 h1        1 8OX      0.078700
     26 HO30        5.0460   -1.1070   -0.7150 ho        1 8OX      0.417000
     27 H20         1.4840   -1.1380   -2.2230 h1        1 8OX      0.119700
     28 HO20        2.6790   -3.1570   -0.6660 ho        1 8OX      0.424000
     29 H10         0.5200   -2.1560    0.4060 h2        1 8OX      0.128700
     30 HN7        -1.6010    2.3860   -1.1980 hn        1 8OX      0.325500
     31 HN6        -4.2520    2.2510   -0.9750 hn        1 8OX      0.417300
     32 HN6A       -5.3090    1.9550    0.2910 hn        1 8OX      0.417300
     33 H2         -3.6160   -1.7800    2.3600 h5        1 8OX      0.062100
@<TRIPOS>BOND
     1    1    2 1   
     2    1   21 1   
     3    2    3 1   
     4    2   22 1   
     5    2   23 1   
     6    3    4 1   
     7    3    5 1   
     8    3   24 1   
     9    4    9 1   
    10    5    6 1   
    11    5    7 1   
    12    5   25 1   
    13    6   26 1   
    14    7    8 1   
    15    7    9 1   
    16    7   27 1   
    17    8   28 1   
    18    9   10 1   
    19    9   29 1   
    20   10   11 1   
    21   10   20 1   
    22   11   12 2   
    23   11   13 1   
    24   13   14 1   
    25   13   30 1   
    26   14   15 ar  
    27   14   20 ar  
    28   15   16 1   
    29   15   17 ar  
    30   16   31 1   
    31   16   32 1   
    32   17   18 ar  
    33   18   19 ar  
    34   18   33 1   
    35   19   20 ar  
@<TRIPOS>SUBSTRUCTURE
     1 8OX         1 TEMP              0 ****  ****    0 ROOT
