@<TRIPOS>MOLECULE
8OX
   33    33     1     0     0
SMALL
bcc


@<TRIPOS>ATOM
      1 O50        -2.4710    2.6200   -3.1880 oh        1 8OX     -0.321000
      2 C50        -1.1280    2.2730   -3.1410 c3        1 8OX     -0.041000
      3 C40        -0.6360    2.2930   -1.6670 c3        1 8OX     -0.019000
      4 O40        -1.0190    1.2270   -1.0510 os        1 8OX     -0.283000
      5 C30         0.9050    2.2540   -1.6200 c3        1 8OX      0.026000
      6 O30         1.3850    3.4420   -1.2020 oh        1 8OX     -0.314000
      7 C20         1.2620    1.1360   -0.5970 c3        1 8OX     -0.032000
      8 O20         2.2900    1.6430    0.4020 oh        1 8OX     -0.319000
      9 C10         0.1530    0.8650   -0.0060 c3        1 8OX      0.130000
     10 N9          0.0970   -0.5260    0.3260 n         1 8OX     -0.260000
     11 C8         -0.0480   -1.5870   -0.5940 c2        1 8OX      0.361000
     12 O8         -0.0250   -1.4880   -1.8470 o         1 8OX     -0.337000
     13 N7         -0.2210   -2.7730    0.1370 n         1 8OX     -0.243000
     14 C5         -0.1890   -2.4390    1.5510 c2        1 8OX     -0.193000
     15 C6         -0.3740   -3.2080    2.6960 c2        1 8OX      0.159000
     16 N6         -0.5230   -4.6350    3.0210 n3        1 8OX     -0.319000
     17 N1         -0.3540   -2.6160    3.9240 n1        1 8OX     -0.218000
     18 C2         -0.1510   -1.2520    4.0330 c1        1 8OX      0.010000
     19 N3          0.0330   -0.4870    2.8980 n1        1 8OX     -0.183000
     20 C4          0.0140   -1.0780    1.6630 c1        1 8OX      0.126000
     21 HO50       -2.7340    2.7020   -4.0510 ho        1 8OX      0.209000
     22 H50        -0.6320    2.8860   -3.6430 h1        1 8OX      0.101500
     23 H50A       -1.0140    1.4050   -3.5000 h1        1 8OX      0.101500
     24 H40        -0.9670    3.0800   -1.2110 h1        1 8OX      0.149000
     25 H30         1.2660    2.0320   -2.5080 h1        1 8OX      0.105000
     26 HO30        1.9500    3.7640   -1.8070 ho        1 8OX      0.226000
     27 H20         1.6150    0.3150   -1.0800 h1        1 8OX      0.126000
     28 HO20        3.0780    1.2690    0.2300 ho        1 8OX      0.221000
     29 H10         0.0600    1.4180    0.8120 h2        1 8OX      0.162000
     30 HN7        -0.3310   -3.5870   -0.2060 hn        1 8OX      0.245000
     31 HN6        -1.2860   -5.0610    2.8250 hn        1 8OX      0.212000
     32 HN6A        0.1330   -5.0680    3.4630 hn        1 8OX      0.212000
     33 H2         -0.1370   -0.8200    4.9350 ha        1 8OX      0.200000
@<TRIPOS>BOND
     1    1    2 1   
     2    1   21 1   
     3    2    3 1   
     4    2   22 1   
     5    2   23 1   
     6    3    4 1   
     7    3    5 1   
     8    3   24 1   
     9    4    9 1   
    10    5    6 1   
    11    5    7 1   
    12    5   25 1   
    13    6   26 1   
    14    7    8 1   
    15    7    9 1   
    16    7   27 1   
    17    8   28 1   
    18    9   10 1   
    19    9   29 1   
    20   10   11 1   
    21   10   20 1   
    22   11   12 1   
    23   11   13 1   
    24   13   14 1   
    25   13   30 1   
    26   14   15 1   
    27   14   20 1   
    28   15   16 1   
    29   15   17 1   
    30   16   31 1   
    31   16   32 1   
    32   18   19 1   
    33   18   33 1   
@<TRIPOS>SUBSTRUCTURE
     1 8OX         1 TEMP              0 ****  ****    0 ROOT
