@<TRIPOS>MOLECULE
8OX
   33    35     1     0     0
SMALL
bcc


@<TRIPOS>ATOM
      1 O50        -0.0640   -1.1280    0.7410 oh        1 8OX     -0.593800
      2 C50         1.2970   -0.8920    0.4490 c3        1 8OX      0.109400
      3 C40         1.9720   -0.0950    1.5640 c3        1 8OX      0.093100
      4 O40         1.9430   -0.8680    2.7740 os        1 8OX     -0.431600
      5 C30         3.4370    0.2360    1.2320 c3        1 8OX      0.137100
      6 O30         3.6240    1.6110    1.4910 oh        1 8OX     -0.586800
      7 C20         4.2740   -0.6930    2.1380 c3        1 8OX      0.080100
      8 O20         5.2480    0.0850    2.7990 oh        1 8OX     -0.592800
      9 C10         3.2600   -1.2810    3.1700 c3        1 8OX      0.272500
     10 N9          3.3420   -2.7200    3.3060 n         1 8OX     -0.434300
     11 C8          3.1980   -3.6550    2.2090 c         1 8OX      0.765500
     12 O8          3.4540   -3.4100    1.0210 o         1 8OX     -0.606500
     13 N7          2.8610   -4.9590    2.7240 ns        1 8OX     -0.377100
     14 C5          2.5870   -4.7700    4.1000 ca        1 8OX     -0.338000
     15 C6          2.1730   -5.6680    5.1190 ca        1 8OX      0.686200
     16 N6          1.8070   -6.9740    4.8010 nv        1 8OX     -0.924500
     17 N1          2.0630   -5.1930    6.4110 nb        1 8OX     -0.747000
     18 C2          2.3510   -3.8920    6.6230 ca        1 8OX      0.674900
     19 N3          2.7660   -2.9380    5.7390 nb        1 8OX     -0.710000
     20 C4          2.8850   -3.3970    4.4700 ca        1 8OX      0.530200
     21 HO50       -0.1030   -1.5160    1.6250 ho        1 8OX      0.409000
     22 H50         1.8340   -1.8670    0.2910 h1        1 8OX      0.062200
     23 H50A        1.2920   -0.2960   -0.5020 h1        1 8OX      0.062200
     24 H40         1.3860    0.8380    1.7970 h1        1 8OX      0.109700
     25 H30         3.6730    0.0290    0.1520 h1        1 8OX      0.065700
     26 HO30        4.5700    1.7630    1.6250 ho        1 8OX      0.428000
     27 H20         4.7610   -1.4980    1.5220 h1        1 8OX      0.087700
     28 HO20        5.8300   -0.5280    3.2660 ho        1 8OX      0.423000
     29 H10         3.4310   -0.8320    4.1960 h2        1 8OX      0.123700
     30 HN7         2.2350   -5.5130    2.1820 hn        1 8OX      0.324500
     31 HN6         2.3330   -7.3860    4.0640 hn        1 8OX      0.418800
     32 HN6A        1.6230   -7.5810    5.5710 hn        1 8OX      0.418800
     33 H2          2.2440   -3.5430    7.6730 h5        1 8OX      0.063100
@<TRIPOS>BOND
     1    1    2 1   
     2    1   21 1   
     3    2    3 1   
     4    2   22 1   
     5    2   23 1   
     6    3    4 1   
     7    3    5 1   
     8    3   24 1   
     9    4    9 1   
    10    5    6 1   
    11    5    7 1   
    12    5   25 1   
    13    6   26 1   
    14    7    8 1   
    15    7    9 1   
    16    7   27 1   
    17    8   28 1   
    18    9   10 1   
    19    9   29 1   
    20   10   11 1   
    21   10   20 1   
    22   11   12 2   
    23   11   13 1   
    24   13   14 1   
    25   13   30 1   
    26   14   15 ar  
    27   14   20 ar  
    28   15   16 1   
    29   15   17 ar  
    30   16   31 1   
    31   16   32 1   
    32   17   18 ar  
    33   18   19 ar  
    34   18   33 1   
    35   19   20 ar  
@<TRIPOS>SUBSTRUCTURE
     1 8OX         1 TEMP              0 ****  ****    0 ROOT
