@<TRIPOS>MOLECULE
8OX
   34    36     1     0     0
SMALL
bcc


@<TRIPOS>ATOM
      1 O50         0.9910   -2.4600    1.7760 oh        1 8OX     -0.636800
      2 C50         1.3850   -1.4220    0.8930 c3        1 8OX      0.106400
      3 C40         2.1210   -0.3090    1.6470 c3        1 8OX      0.087100
      4 O40         2.2310   -0.6750    3.0340 os        1 8OX     -0.419600
      5 C30         3.5490   -0.0630    1.1250 c3        1 8OX      0.089100
      6 O30         3.6990    1.3340    0.9720 oh        1 8OX     -0.586800
      7 C20         4.4980   -0.5860    2.2320 c3        1 8OX      0.098100
      8 O20         5.2970    0.4290    2.7770 oh        1 8OX     -0.567800
      9 C10         3.5430   -1.1560    3.3310 c3        1 8OX      0.256500
     10 N9          3.5550   -2.6150    3.4240 n         1 8OX     -0.405300
     11 C8          3.4400   -3.4870    2.2720 c         1 8OX      0.796500
     12 O8          3.8620   -3.2670    1.1370 o         1 8OX     -0.534500
     13 N7          2.8580   -4.7640    2.6780 n         1 8OX     -0.403100
     14 C5          2.5140   -4.6270    4.0240 ca        1 8OX     -0.199000
     15 C6          1.9890   -5.4830    4.9890 ca        1 8OX      0.448200
     16 N6          1.5880   -6.8560    4.6390 n4        1 8OX     -0.812300
     17 N1          1.8300   -5.0900    6.3000 nb        1 8OX     -0.689000
     18 C2          2.2250   -3.8430    6.6070 ca        1 8OX      0.690900
     19 N3          2.7850   -2.8950    5.7820 nb        1 8OX     -0.635000
     20 C4          2.9440   -3.2810    4.5080 ca        1 8OX      0.552200
     21 HO50        0.4370   -2.0540    2.4570 ho        1 8OX      0.419000
     22 H50         2.0480   -1.9320    0.1410 h1        1 8OX      0.073700
     23 H50A        0.4850   -0.9990    0.3720 h1        1 8OX      0.073700
     24 H40         1.5240    0.6460    1.6490 h1        1 8OX      0.119700
     25 H30         3.7400   -0.5960    0.1560 h1        1 8OX      0.083700
     26 HO30        4.5630    1.4850    0.5630 ho        1 8OX      0.431000
     27 H20         5.2210   -1.3530    1.8410 h1        1 8OX      0.123700
     28 HO20        4.7340    1.2010    2.9500 ho        1 8OX      0.429000
     29 H10         3.7990   -0.7540    4.3580 h2        1 8OX      0.142700
     30 HN7         2.2310   -5.1900    2.0290 hn        1 8OX      0.341500
     31 HN6         0.7410   -6.8270    4.0610 hn        1 8OX      0.475133
     32 HN6A        2.3510   -7.3020    4.1170 hn        1 8OX      0.475133
     33 H2          2.0910   -3.5300    7.6710 h5        1 8OX      0.103100
     34 H63         1.3930   -7.4020    5.4920 hn        1 8OX      0.475133
@<TRIPOS>BOND
     1    1    2 1   
     2    1   21 1   
     3    2    3 1   
     4    2   22 1   
     5    2   23 1   
     6    3    4 1   
     7    3    5 1   
     8    3   24 1   
     9    4    9 1   
    10    5    6 1   
    11    5    7 1   
    12    5   25 1   
    13    6   26 1   
    14    7    8 1   
    15    7    9 1   
    16    7   27 1   
    17    8   28 1   
    18    9   10 1   
    19    9   29 1   
    20   10   11 1   
    21   10   20 1   
    22   11   12 2   
    23   11   13 1   
    24   13   14 1   
    25   13   30 1   
    26   14   15 ar  
    27   14   20 ar  
    28   15   16 1   
    29   15   17 ar  
    30   16   31 1   
    31   16   32 1   
    32   16   34 1   
    33   17   18 ar  
    34   18   19 ar  
    35   18   33 1   
    36   19   20 ar  
@<TRIPOS>SUBSTRUCTURE
     1 8OX         1 TEMP              0 ****  ****    0 ROOT
