@<TRIPOS>MOLECULE
8OX
   33    35     1     0     0
SMALL
bcc


@<TRIPOS>ATOM
      1 O50        -0.0580   -1.1300    0.7350 oh        1 8OX     -0.593800
      2 C50         1.3040   -0.8930    0.4460 c3        1 8OX      0.109400
      3 C40         1.9750   -0.0950    1.5630 c3        1 8OX      0.093100
      4 O40         1.9440   -0.8680    2.7740 os        1 8OX     -0.431600
      5 C30         3.4420    0.2360    1.2350 c3        1 8OX      0.137100
      6 O30         3.6270    1.6120    1.4930 oh        1 8OX     -0.586800
      7 C20         4.2770   -0.6920    2.1450 c3        1 8OX      0.080100
      8 O20         5.2470    0.0880    2.8100 oh        1 8OX     -0.592800
      9 C10         3.2590   -1.2800    3.1730 c3        1 8OX      0.272500
     10 N9          3.3410   -2.7200    3.3090 n         1 8OX     -0.434300
     11 C8          3.2030   -3.6540    2.2110 c         1 8OX      0.765500
     12 O8          3.4640   -3.4080    1.0240 o         1 8OX     -0.606500
     13 N7          2.8640   -4.9590    2.7240 n         1 8OX     -0.377100
     14 C5          2.5840   -4.7700    4.0990 ca        1 8OX     -0.338000
     15 C6          2.1660   -5.6690    5.1150 ca        1 8OX      0.686200
     16 N6          1.8020   -6.9750    4.7960 nh        1 8OX     -0.924500
     17 N1          2.0500   -5.1940    6.4080 nb        1 8OX     -0.747000
     18 C2          2.3370   -3.8930    6.6210 ca        1 8OX      0.674900
     19 N3          2.7550   -2.9380    5.7390 nb        1 8OX     -0.710000
     20 C4          2.8800   -3.3970    4.4710 ca        1 8OX      0.530200
     21 HO50       -0.0990   -1.5170    1.6190 ho        1 8OX      0.409000
     22 H50         1.8420   -1.8680    0.2900 h1        1 8OX      0.061700
     23 H50A        1.3020   -0.2980   -0.5050 h1        1 8OX      0.061700
     24 H40         1.3890    0.8380    1.7940 h1        1 8OX      0.109700
     25 H30         3.6800    0.0290    0.1570 h1        1 8OX      0.065700
     26 HO30        4.5720    1.7640    1.6310 ho        1 8OX      0.428000
     27 H20         4.7660   -1.4960    1.5310 h1        1 8OX      0.087700
     28 HO20        5.8280   -0.5240    3.2780 ho        1 8OX      0.423000
     29 H10         3.4260   -0.8310    4.2000 h2        1 8OX      0.123700
     30 HN7         2.2400   -5.5130    2.1790 hn        1 8OX      0.324500
     31 HN6         2.3310   -7.3860    4.0610 hn        1 8OX      0.418800
     32 HN6A        1.6150   -7.5820    5.5640 hn        1 8OX      0.418800
     33 H2          2.2250   -3.5450    7.6710 h5        1 8OX      0.063100
@<TRIPOS>BOND
     1    1    2 1   
     2    1   21 1   
     3    2    3 1   
     4    2   22 1   
     5    2   23 1   
     6    3    4 1   
     7    3    5 1   
     8    3   24 1   
     9    4    9 1   
    10    5    6 1   
    11    5    7 1   
    12    5   25 1   
    13    6   26 1   
    14    7    8 1   
    15    7    9 1   
    16    7   27 1   
    17    8   28 1   
    18    9   10 1   
    19    9   29 1   
    20   10   11 1   
    21   10   20 1   
    22   11   12 2   
    23   11   13 1   
    24   13   14 1   
    25   13   30 1   
    26   14   15 ar  
    27   14   20 ar  
    28   15   16 1   
    29   15   17 ar  
    30   16   31 1   
    31   16   32 1   
    32   17   18 ar  
    33   18   19 ar  
    34   18   33 1   
    35   19   20 ar  
@<TRIPOS>SUBSTRUCTURE
     1 8OX         1 TEMP              0 ****  ****    0 ROOT
