@<TRIPOS>MOLECULE
8P3
   32    34     1     0     0
SMALL
bcc


@<TRIPOS>ATOM
      1 C1          0.7500   -0.4370   -0.1330 ca        1 8P3     -0.181000
      2 C2          2.0990   -0.4340    0.2140 ca        1 8P3     -0.096000
      3 C3          2.5210   -0.2530    1.5360 ca        1 8P3     -0.131000
      4 C4          1.5380   -0.0790    2.5120 ca        1 8P3      0.062600
      5 C5          0.1490   -0.0660    2.1530 ca        1 8P3     -0.164300
      6 C6         -0.2380   -0.2470    0.8410 ca        1 8P3     -0.100000
      7 C7         -0.6610    0.1710    3.3860 c3        1 8P3     -0.105100
      8 C8          0.4140    0.2970    4.4830 c         1 8P3      0.692500
      9 O9          0.1950    0.5140    5.6840 o         1 8P3     -0.639500
     10 N10         1.6800    0.0910    3.9080 n         1 8P3     -0.357000
     11 C11         2.9380    0.2140    4.6010 c3        1 8P3      0.132300
     12 C12         3.5970    1.5620    4.5010 ca        1 8P3     -0.106300
     13 C13         4.8130    1.7180    3.8230 ca        1 8P3     -0.088600
     14 C14         5.4130    2.9830    3.7880 ca        1 8P3     -0.119000
     15 C15         4.8190    4.0720    4.4210 ca        1 8P3     -0.145000
     16 C16         3.6070    3.9110    5.0950 ca        1 8P3     -0.166000
     17 C17         2.9990    2.6600    5.1320 ca        1 8P3     -0.130000
     18 C18         5.5020    0.5630    3.1130 c         1 8P3      0.899200
     19 O19         5.8250   -0.4540    3.7900 o         1 8P3     -0.825800
     20 O20         5.6980    0.6700    1.8690 o         1 8P3     -0.825800
     21 H1          0.4540   -0.5820   -1.1810 ha        1 8P3      0.116000
     22 H2          2.8650   -0.5690   -0.5650 ha        1 8P3      0.136000
     23 H3          3.6020   -0.2230    1.7810 ha        1 8P3      0.212000
     24 H6         -1.3010   -0.2390    0.5630 ha        1 8P3      0.116000
     25 H7         -1.3420   -0.6820    3.6250 hc        1 8P3      0.076700
     26 H7A        -1.2560    1.1140    3.3330 hc        1 8P3      0.076700
     27 H11         3.6420   -0.5790    4.2000 h1        1 8P3      0.091700
     28 H11A        2.7310   -0.0020    5.6900 h1        1 8P3      0.091700
     29 H14         6.3580    3.1020    3.2370 ha        1 8P3      0.136000
     30 H15         5.3010    5.0590    4.3880 ha        1 8P3      0.106000
     31 H16         3.1350    4.7680    5.5940 ha        1 8P3      0.106000
     32 H17         2.0420    2.5220    5.6600 ha        1 8P3      0.126000
@<TRIPOS>BOND
     1    1    2 ar  
     2    1    6 ar  
     3    1   21 1   
     4    2    3 ar  
     5    2   22 1   
     6    3    4 ar  
     7    3   23 1   
     8    4    5 ar  
     9    4   10 1   
    10    5    6 ar  
    11    5    7 1   
    12    6   24 1   
    13    7    8 1   
    14    7   25 1   
    15    7   26 1   
    16    8    9 2   
    17    8   10 1   
    18   10   11 1   
    19   11   12 1   
    20   11   27 1   
    21   11   28 1   
    22   12   13 ar  
    23   12   17 ar  
    24   13   14 ar  
    25   13   18 1   
    26   14   15 ar  
    27   14   29 1   
    28   15   16 ar  
    29   15   30 1   
    30   16   17 ar  
    31   16   31 1   
    32   17   32 1   
    33   18   19 1   
    34   18   20 1   
@<TRIPOS>SUBSTRUCTURE
     1 8P3         1 TEMP              0 ****  ****    0 ROOT
