@<TRIPOS>MOLECULE
8P3
   32    34     1     0     0
SMALL
bcc


@<TRIPOS>ATOM
      1 C1          0.7850   -0.6450   -0.1460 ca        1 8P3     -0.180000
      2 C2          2.1160   -0.7660    0.2480 ca        1 8P3     -0.099000
      3 C3          2.5210   -0.5230    1.5640 ca        1 8P3     -0.135000
      4 C4          1.5400   -0.1500    2.4860 ca        1 8P3      0.064600
      5 C5          0.1700   -0.0200    2.0800 ca        1 8P3     -0.164300
      6 C6         -0.2010   -0.2670    0.7740 ca        1 8P3     -0.100000
      7 C7         -0.6400    0.3990    3.2650 c3        1 8P3     -0.105100
      8 C8          0.4150    0.4910    4.3850 c         1 8P3      0.692500
      9 O9          0.1840    0.8050    5.5630 o         1 8P3     -0.641500
     10 N10         1.6680    0.1190    3.8670 n         1 8P3     -0.352000
     11 C11         2.9240    0.2040    4.5690 c3        1 8P3      0.122300
     12 C12         3.5960    1.5490    4.5330 ca        1 8P3     -0.097300
     13 C13         4.7580    1.7940    3.7910 ca        1 8P3     -0.099600
     14 C14         5.3480    3.0670    3.8680 ca        1 8P3     -0.113000
     15 C15         4.8000    4.0720    4.6570 ca        1 8P3     -0.153000
     16 C16         3.6340    3.8230    5.3850 ca        1 8P3     -0.160000
     17 C17         3.0370    2.5700    5.3180 ca        1 8P3     -0.141000
     18 C18         5.4440    0.7890    2.8760 c         1 8P3      0.903200
     19 O19         5.3720   -0.4510    3.1300 o         1 8P3     -0.830300
     20 O20         6.0750    1.2470    1.8830 o         1 8P3     -0.830300
     21 H1          0.5030   -0.8420   -1.1890 ha        1 8P3      0.115000
     22 H2          2.8810   -1.0520   -0.4910 ha        1 8P3      0.133000
     23 H3          3.5880   -0.6040    1.8600 ha        1 8P3      0.216000
     24 H6         -1.2480   -0.1670    0.4590 ha        1 8P3      0.116000
     25 H7         -1.4170   -0.3530    3.5420 hc        1 8P3      0.076700
     26 H7A        -1.1230    1.3950    3.1220 hc        1 8P3      0.076700
     27 H11         2.7050   -0.0500    5.6480 h1        1 8P3      0.095700
     28 H11A        3.6200   -0.5810    4.1400 h1        1 8P3      0.095700
     29 H14         6.2510    3.2520    3.2640 ha        1 8P3      0.150000
     30 H15         5.2770    5.0600    4.7040 ha        1 8P3      0.106000
     31 H16         3.1910    4.6130    6.0060 ha        1 8P3      0.106000
     32 H17         2.1140    2.3650    5.8840 ha        1 8P3      0.132000
@<TRIPOS>BOND
     1    1    2 ar  
     2    1    6 ar  
     3    1   21 1   
     4    2    3 ar  
     5    2   22 1   
     6    3    4 ar  
     7    3   23 1   
     8    4    5 ar  
     9    4   10 1   
    10    5    6 ar  
    11    5    7 1   
    12    6   24 1   
    13    7    8 1   
    14    7   25 1   
    15    7   26 1   
    16    8    9 2   
    17    8   10 1   
    18   10   11 1   
    19   11   12 1   
    20   11   27 1   
    21   11   28 1   
    22   12   13 ar  
    23   12   17 ar  
    24   13   14 ar  
    25   13   18 1   
    26   14   15 ar  
    27   14   29 1   
    28   15   16 ar  
    29   15   30 1   
    30   16   17 ar  
    31   16   31 1   
    32   17   32 1   
    33   18   19 1   
    34   18   20 1   
@<TRIPOS>SUBSTRUCTURE
     1 8P3         1 TEMP              0 ****  ****    0 ROOT
