@<TRIPOS>MOLECULE
8P3
   32    34     1     0     0
SMALL
bcc


@<TRIPOS>ATOM
      1 C1          0.7540   -0.5400   -0.0890 ca        1 8P3     -0.181000
      2 C2          2.1010   -0.5340    0.2660 ca        1 8P3     -0.096000
      3 C3          2.5170   -0.3090    1.5830 ca        1 8P3     -0.131000
      4 C4          1.5300   -0.0940    2.5470 ca        1 8P3      0.062600
      5 C5          0.1430   -0.0850    2.1790 ca        1 8P3     -0.164300
      6 C6         -0.2380   -0.3090    0.8720 ca        1 8P3     -0.100000
      7 C7         -0.6730    0.2010    3.3980 c3        1 8P3     -0.105100
      8 C8          0.3970    0.3590    4.4970 c         1 8P3      0.692500
      9 O9          0.1720    0.6210    5.6880 o         1 8P3     -0.639500
     10 N10         1.6650    0.1240    3.9370 n         1 8P3     -0.357000
     11 C11         2.9190    0.2650    4.6320 c3        1 8P3      0.133300
     12 C12         3.5890    1.6020    4.4860 ca        1 8P3     -0.106300
     13 C13         4.8120    1.7230    3.8130 ca        1 8P3     -0.088600
     14 C14         5.4220    2.9820    3.7340 ca        1 8P3     -0.119000
     15 C15         4.8320    4.0980    4.3190 ca        1 8P3     -0.145000
     16 C16         3.6130    3.9720    4.9890 ca        1 8P3     -0.166000
     17 C17         2.9940    2.7280    5.0690 ca        1 8P3     -0.130000
     18 C18         5.4970    0.5350    3.1540 c         1 8P3      0.899200
     19 O19         5.8120   -0.4530    3.8740 o         1 8P3     -0.826300
     20 O20         5.6980    0.5900    1.9070 o         1 8P3     -0.826300
     21 H1          0.4630   -0.7210   -1.1330 ha        1 8P3      0.116000
     22 H2          2.8720   -0.7020   -0.5030 ha        1 8P3      0.136000
     23 H3          3.5970   -0.2770    1.8340 ha        1 8P3      0.212000
     24 H6         -1.2990   -0.3040    0.5870 ha        1 8P3      0.116000
     25 H7         -1.2620    1.1460    3.3080 hc        1 8P3      0.076700
     26 H7A        -1.3610   -0.6380    3.6630 hc        1 8P3      0.076700
     27 H11         2.7050    0.0910    5.7270 h1        1 8P3      0.092200
     28 H11A        3.6200   -0.5480    4.2660 h1        1 8P3      0.092200
     29 H14         6.3720    3.0720    3.1870 ha        1 8P3      0.136000
     30 H15         5.3210    5.0800    4.2520 ha        1 8P3      0.106000
     31 H16         3.1440    4.8510    5.4510 ha        1 8P3      0.106000
     32 H17         2.0330    2.6180    5.5950 ha        1 8P3      0.126000
@<TRIPOS>BOND
     1    1    2 ar  
     2    1    6 ar  
     3    1   21 1   
     4    2    3 ar  
     5    2   22 1   
     6    3    4 ar  
     7    3   23 1   
     8    4    5 ar  
     9    4   10 1   
    10    5    6 ar  
    11    5    7 1   
    12    6   24 1   
    13    7    8 1   
    14    7   25 1   
    15    7   26 1   
    16    8    9 2   
    17    8   10 1   
    18   10   11 1   
    19   11   12 1   
    20   11   27 1   
    21   11   28 1   
    22   12   13 ar  
    23   12   17 ar  
    24   13   14 ar  
    25   13   18 1   
    26   14   15 ar  
    27   14   29 1   
    28   15   16 ar  
    29   15   30 1   
    30   16   17 ar  
    31   16   31 1   
    32   17   32 1   
    33   18   19 1   
    34   18   20 1   
@<TRIPOS>SUBSTRUCTURE
     1 8P3         1 TEMP              0 ****  ****    0 ROOT
