@<TRIPOS>MOLECULE
8P3
   32    34     1     0     0
SMALL
bcc


@<TRIPOS>ATOM
      1 C1          3.6860   -1.8090   -1.3980 ca        1 8P3     -0.181000
      2 C2          2.3700   -1.8960   -1.8460 ca        1 8P3     -0.096000
      3 C3          1.3850   -0.9980   -1.4210 ca        1 8P3     -0.131000
      4 C4          1.7630    0.0060   -0.5280 ca        1 8P3      0.062600
      5 C5          3.1150    0.0870   -0.0540 ca        1 8P3     -0.164300
      6 C6          4.0660   -0.8130   -0.4900 ca        1 8P3     -0.100000
      7 C7          3.2170    1.2270    0.9070 c3        1 8P3     -0.105100
      8 C8          1.7800    1.7820    0.9330 c         1 8P3      0.692500
      9 O9          1.3910    2.7400    1.6180 o         1 8P3     -0.639500
     10 N10         0.9900    1.0480    0.0300 n         1 8P3     -0.357000
     11 C11        -0.4290    1.2170   -0.1600 c3        1 8P3      0.133300
     12 C12        -1.3000    0.3050    0.6580 ca        1 8P3     -0.106300
     13 C13        -2.0960   -0.6700    0.0440 ca        1 8P3     -0.088600
     14 C14        -2.9230   -1.4720    0.8400 ca        1 8P3     -0.119000
     15 C15        -2.9630   -1.3050    2.2210 ca        1 8P3     -0.145000
     16 C16        -2.1680   -0.3320    2.8290 ca        1 8P3     -0.166000
     17 C17        -1.3380    0.4670    2.0490 ca        1 8P3     -0.130000
     18 C18        -2.0870   -0.8950   -1.4610 c         1 8P3      0.899200
     19 O19        -2.4060    0.0670   -2.2160 o         1 8P3     -0.826300
     20 O20        -1.7370   -2.0340   -1.8830 o         1 8P3     -0.826300
     21 H1          4.4340   -2.5300   -1.7520 ha        1 8P3      0.116000
     22 H2          2.0820   -2.6940   -2.5480 ha        1 8P3      0.136000
     23 H3          0.3370   -1.1080   -1.7680 ha        1 8P3      0.212000
     24 H6          5.1030   -0.7530   -0.1300 ha        1 8P3      0.116000
     25 H7          3.5120    0.8980    1.9320 hc        1 8P3      0.076700
     26 H7A         3.9200    2.0220    0.5580 hc        1 8P3      0.076700
     27 H11        -0.6690    2.2850    0.1200 h1        1 8P3      0.092200
     28 H11A       -0.6590    1.0690   -1.2590 h1        1 8P3      0.092200
     29 H14        -3.5310   -2.2480    0.3500 ha        1 8P3      0.136000
     30 H15        -3.6180   -1.9400    2.8340 ha        1 8P3      0.106000
     31 H16        -2.1960   -0.1990    3.9190 ha        1 8P3      0.106000
     32 H17        -0.7060    1.2380    2.5190 ha        1 8P3      0.126000
@<TRIPOS>BOND
     1    1    2 ar  
     2    1    6 ar  
     3    1   21 1   
     4    2    3 ar  
     5    2   22 1   
     6    3    4 ar  
     7    3   23 1   
     8    4    5 ar  
     9    4   10 1   
    10    5    6 ar  
    11    5    7 1   
    12    6   24 1   
    13    7    8 1   
    14    7   25 1   
    15    7   26 1   
    16    8    9 2   
    17    8   10 1   
    18   10   11 1   
    19   11   12 1   
    20   11   27 1   
    21   11   28 1   
    22   12   13 ar  
    23   12   17 ar  
    24   13   14 ar  
    25   13   18 1   
    26   14   15 ar  
    27   14   29 1   
    28   15   16 ar  
    29   15   30 1   
    30   16   17 ar  
    31   16   31 1   
    32   17   32 1   
    33   18   19 1   
    34   18   20 1   
@<TRIPOS>SUBSTRUCTURE
     1 8P3         1 TEMP              0 ****  ****    0 ROOT
