@<TRIPOS>MOLECULE
8P3
   32    29     1     0     0
SMALL
bcc


@<TRIPOS>ATOM
      1 C1         -2.7030    0.8750   -3.1110 c1        1 8P3     -0.181000
      2 C2         -1.3390    0.6000   -3.1440 c1        1 8P3     -0.134500
      3 C3         -0.6310    0.4420   -1.9580 c1        1 8P3     -0.134500
      4 C4         -1.2850    0.5590   -0.7360 c1        1 8P3      0.070000
      5 C5         -2.6510    0.8340   -0.7030 c1        1 8P3     -0.157000
      6 C6         -3.3590    0.9920   -1.8920 c2        1 8P3     -0.100000
      7 C7         -3.1410    0.6290    0.7330 c2        1 8P3     -0.141000
      8 C8         -1.8570    0.4440    1.5060 c2        1 8P3      0.300000
      9 O9         -1.7670    0.1790    2.6790 o         1 8P3     -0.364000
     10 N10        -0.7770    0.6560    0.6170 n         1 8P3     -0.260000
     11 C11         0.5860    0.9580    0.9950 c3        1 8P3      0.010000
     12 C12         1.4030   -0.3200    1.0020 c2        1 8P3     -0.099000
     13 C13         2.7910   -0.2560    1.1200 c2        1 8P3     -0.068000
     14 C14         3.5540   -1.4080    0.9810 c1        1 8P3     -0.119000
     15 C15         2.9370   -2.6240    0.7240 c1        1 8P3     -0.134500
     16 C16         1.5500   -2.6900    0.6050 c1        1 8P3     -0.134500
     17 C17         0.7850   -1.5370    0.7450 c1        1 8P3     -0.130000
     18 C18         3.4510    1.0360    1.4820 c2        1 8P3      0.348000
     19 O19         3.4080    1.4530    2.6630 o         1 8P3     -0.561000
     20 O20         4.0130    1.7210    0.5960 o         1 8P3     -0.561000
     21 H1         -3.1980    0.9850   -3.9410 ha        1 8P3      0.116000
     22 H2         -0.8790    0.5170   -4.0000 ha        1 8P3      0.140000
     23 H3          0.3440    0.2600   -1.9830 ha        1 8P3      0.140000
     24 H6         -4.3310    1.1810   -1.8690 ha        1 8P3      0.116000
     25 H7         -3.8600    0.0010    0.9310 ha        1 8P3      0.116000
     26 H7A        -3.5570    1.4630    1.0040 ha        1 8P3      0.116000
     27 H11         0.9720    1.5900    0.3490 h1        1 8P3      0.131500
     28 H11A        0.5960    1.3630    1.9020 h1        1 8P3      0.131500
     29 H14         4.5470   -1.3610    1.0670 ha        1 8P3      0.136000
     30 H15         3.4670   -3.4260    0.6390 ha        1 8P3      0.140000
     31 H16         1.1170   -3.5420    0.3660 ha        1 8P3      0.140000
     32 H17        -0.1870   -1.5770    0.6290 ha        1 8P3      0.126000
@<TRIPOS>BOND
     1    1    6 1   
     2    1   21 1   
     3    2    3 1   
     4    2   22 1   
     5    3   23 1   
     6    4    5 1   
     7    4   10 1   
     8    5    6 1   
     9    6   24 1   
    10    7    8 1   
    11    7   25 1   
    12    7   26 1   
    13    8    9 1   
    14    8   10 1   
    15   10   11 1   
    16   11   12 1   
    17   11   27 1   
    18   11   28 1   
    19   12   13 1   
    20   12   17 1   
    21   13   14 1   
    22   13   18 1   
    23   14   29 1   
    24   15   16 1   
    25   15   30 1   
    26   16   31 1   
    27   17   32 1   
    28   18   19 1   
    29   18   20 1   
@<TRIPOS>SUBSTRUCTURE
     1 8P3         1 TEMP              0 ****  ****    0 ROOT
