@<TRIPOS>MOLECULE
8PA
   59    63     1     0     0
SMALL
bcc


@<TRIPOS>ATOM
      1 C1I         0.0000    0.0000    0.0000 c2        1 8PA     -0.222000
      2 C1G         1.3840    0.0000    0.0000 c2        1 8PA     -0.120000
      3 C1H         2.0600    0.0000    1.2070 c2        1 8PA     -0.212000
      4 N1K         1.4080    0.0010    2.3530 n2        1 8PA     -0.028000
      5 C1J         0.0920    0.0020    2.4040 c2        1 8PA     -0.193000
      6 C1N        -0.6640    0.0010    1.2310 c3        1 8PA      0.108000
      7 C1F        -2.1410    0.0080    1.2890 c2        1 8PA     -0.374000
      8 C1E        -2.7580    0.0090    2.4620 c2        1 8PA     -0.271000
      9 C1M        -4.2590    0.1390    2.5240 DU        1 8PA      0.251000
     10 O1D        -4.6040    1.3690    3.1630 oh        1 8PA     -0.365000
     11 C1Q        -4.8310   -1.0130    3.3080 c2        1 8PA     -0.596000
     12 S1         -4.7740   -1.1620    5.0110 ss        1 8PA      0.343000
     13 C5         -5.6310   -2.6990    4.9140 c2        1 8PA     -0.326000
     14 C6         -6.0200   -3.5720    6.0780 c3        1 8PA     -0.023000
     15 C7         -4.8920   -4.5640    6.3710 c3        1 8PA      0.160000
     16 O7         -5.2610   -5.3920    7.4760 os        1 8PA     -0.673000
     17 P1A        -4.3080   -6.5520    8.0580 p5        1 8PA      1.448000
     18 O2A        -4.1170   -7.6990    6.9430 o         1 8PA     -0.626500
     19 O1A        -2.9890   -5.9790    8.4070 o         1 8PA     -0.626500
     20 O3A        -4.9820   -7.1900    9.3740 os        1 8PA     -0.937000
     21 P1B        -4.4180   -8.0450   10.6160 p5        1 8PA      1.121500
     22 O2B        -3.1610   -7.4350   11.1050 o         1 8PA     -0.363167
     23 O1B        -5.5090   -8.0520   11.8010 o         1 8PA     -0.363167
     24 O3B        -4.1310   -9.5570   10.1410 o         1 8PA     -0.363167
     25 C4         -5.8760   -2.9520    3.6250 c2        1 8PA     -0.244000
     26 C4M        -6.5990   -4.1910    3.1610 c3        1 8PA     -0.052000
     27 N3         -5.4390   -2.0280    2.7940 na        1 8PA      0.459000
     28 C7S        -5.6320   -2.1490    1.3460 c3        1 8PA     -0.098000
     29 C5S        -6.8760   -1.4020    0.9410 c2        1 8PA     -0.245000
     30 C6S        -8.1130   -1.7660    1.4370 c2        1 8PA     -0.004000
     31 N1S        -9.1870   -1.0870    1.0580 n2        1 8PA     -0.131000
     32 C2S        -9.0890   -0.0750    0.2200 c2        1 8PA     -0.011000
     33 C2M       -10.3380    0.6670   -0.1820 c3        1 8PA     -0.053000
     34 N3S        -7.9300    0.3070   -0.2770 n2        1 8PA     -0.147000
     35 C4S        -6.8080   -0.3220    0.0590 c2        1 8PA      0.030000
     36 N4S        -5.5910    0.0820   -0.4660 nv        1 8PA      0.014000
     37 H1I        -0.5550   -0.0010   -0.9300 ha        1 8PA      0.104000
     38 H1G         1.9310   -0.0010   -0.9350 ha        1 8PA      0.078000
     39 H1H         3.1430   -0.0000    1.2100 h4        1 8PA      0.094000
     40 H1J        -0.4080    0.0030    3.3650 h4        1 8PA      0.146000
     41 H1F        -1.5680   -0.9060    1.3840 DU        1 8PA      0.049000
     42 H1E        -3.4130   -0.8430    2.3260 DU        1 8PA      0.050000
     43 H6         -6.9250   -4.1160    5.8360 hc        1 8PA      0.052500
     44 H6A        -6.1930   -2.9540    6.9510 hc        1 8PA      0.052500
     45 H7         -4.7190   -5.1820    5.4980 h1        1 8PA      0.027000
     46 H7A        -3.9860   -4.0200    6.6130 h1        1 8PA      0.027000
     47 H4M        -5.9570   -5.0540    3.2920 hc        1 8PA      0.054667
     48 H4MA       -7.5030   -4.3210    3.7430 hc        1 8PA      0.054667
     49 H4MB       -6.8560   -4.0880    2.1130 hc        1 8PA      0.054667
     50 H7S        -5.7350   -3.1940    1.0810 h1        1 8PA      0.095500
     51 H7SA       -4.7750   -1.7300    0.8320 h1        1 8PA      0.095500
     52 H6S        -8.2040   -2.5960    2.1270 h4        1 8PA      0.139000
     53 H2M       -11.2030    0.0400   -0.0060 hc        1 8PA      0.050333
     54 H2MA      -10.4240    1.5740    0.4050 hc        1 8PA      0.050333
     55 H2MB      -10.2840    0.9220   -1.2330 hc        1 8PA      0.050333
     56 HN4S       -5.0490   -0.5550   -1.0160 hn        1 8PA      0.082500
     57 HN4A       -5.2920    1.0310   -0.3610 hn        1 8PA      0.082500
     58 H25        -4.6640    0.1280    1.5190 ha        1 8PA      0.056000
     59 H26        -4.1270    2.0770    2.7620 ho        1 8PA      0.185000
@<TRIPOS>BOND
     1    1    2 1   
     2    1    6 1   
     3    1   37 1   
     4    2    3 1   
     5    2   38 1   
     6    3    4 1   
     7    3   39 1   
     8    4    5 1   
     9    5    6 1   
    10    5   40 1   
    11    6    7 1   
    12    6   41 1   
    13    7    8 1   
    14    7   41 1   
    15    8    9 1   
    16    8   42 1   
    17    9   10 1   
    18    9   11 1   
    19    9   42 1   
    20    9   58 1   
    21   10   59 1   
    22   11   12 1   
    23   11   27 1   
    24   12   13 1   
    25   13   14 1   
    26   13   25 1   
    27   14   15 1   
    28   14   43 1   
    29   14   44 1   
    30   15   16 1   
    31   15   45 1   
    32   15   46 1   
    33   16   17 1   
    34   17   18 1   
    35   17   19 1   
    36   17   20 1   
    37   20   21 1   
    38   21   22 1   
    39   21   23 1   
    40   21   24 1   
    41   25   26 1   
    42   25   27 1   
    43   26   47 1   
    44   26   48 1   
    45   26   49 1   
    46   27   28 1   
    47   28   29 1   
    48   28   50 1   
    49   28   51 1   
    50   29   30 1   
    51   29   35 1   
    52   30   31 1   
    53   30   52 1   
    54   31   32 1   
    55   32   33 1   
    56   32   34 1   
    57   33   53 1   
    58   33   54 1   
    59   33   55 1   
    60   34   35 1   
    61   35   36 1   
    62   36   56 1   
    63   36   57 1   
@<TRIPOS>SUBSTRUCTURE
     1 8PA         1 TEMP              0 ****  ****    0 ROOT
