@<TRIPOS>MOLECULE
8PC
   36    32     1     0     0
SMALL
bcc


@<TRIPOS>ATOM
      1 CL1         2.0450   -0.2510    5.7350 cl        1 8PC     -0.008000
      2 C17         0.6500   -0.1310    4.6940 c2        1 8PC     -0.063000
      3 C16        -0.1950   -1.2190    4.5400 c2        1 8PC     -0.117000
      4 C15        -1.2750   -1.1410    3.6740 c1        1 8PC     -0.064000
      5 CL2        -2.3420   -2.5060    3.4870 cl        1 8PC      0.007000
      6 C14        -1.5090    0.0250    2.9610 c1        1 8PC      0.057000
      7 C19        -0.6630    1.1120    3.1150 c1        1 8PC     -0.123000
      8 C22         0.4160    1.0350    3.9810 c1        1 8PC     -0.116000
      9 O13        -2.6150    0.1100    2.0970 os        1 8PC     -0.147000
     10 C2         -2.1720    0.0700    0.7620 c2        1 8PC      0.011000
     11 C3         -1.8130   -1.1390    0.1880 c2        1 8PC     -0.099000
     12 C4         -1.3240   -1.1730   -1.1090 c1        1 8PC     -0.153000
     13 C5         -1.1950    0.0030   -1.8320 c1        1 8PC     -0.031000
     14 C6         -1.5540    1.2120   -1.2580 c1        1 8PC     -0.190000
     15 C1         -2.0420    1.2460    0.0400 c1        1 8PC      0.075000
     16 O22        -2.4540    2.4680    0.6050 oh        1 8PC     -0.245000
     17 C7         -0.5860   -0.0250   -3.2160 c3        1 8PC     -0.081000
     18 C23         0.9190   -0.0430   -3.1040 c2        1 8PC     -0.011000
     19 N24         1.5440    0.7530   -2.1920 n2        1 8PC     -0.145000
     20 C25         2.9000    0.7210   -2.0740 c1        1 8PC     -0.066000
     21 C26         3.6470   -0.1220   -2.8820 c1        1 8PC     -0.135500
     22 C27         3.0220   -0.9200   -3.7950 c1        1 8PC     -0.135500
     23 C28         1.6630   -0.8870   -3.9130 c1        1 8PC     -0.174000
     24 H16        -0.0470   -2.0300    5.0640 ha        1 8PC      0.162000
     25 H19        -0.8280    1.9330    2.6130 ha        1 8PC      0.171000
     26 H22         1.0110    1.8010    4.0890 ha        1 8PC      0.153000
     27 H3         -1.9040   -1.9670    0.6970 ha        1 8PC      0.154000
     28 H4         -1.0710   -2.0250   -1.5130 ha        1 8PC      0.137000
     29 H6         -1.4630    2.0400   -1.7670 ha        1 8PC      0.155000
     30 HO22       -1.7400    2.9290    0.8640 ho        1 8PC      0.222000
     31 H71        -0.8660    0.7710   -3.7120 hc        1 8PC      0.106000
     32 H72        -0.8880   -0.8260   -3.6890 hc        1 8PC      0.106000
     33 H25         3.3460    1.2920   -1.4210 ha        1 8PC      0.158000
     34 H26         4.6180   -0.1450   -2.7970 ha        1 8PC      0.142000
     35 H27         3.5470   -1.5140   -4.3640 ha        1 8PC      0.142000
     36 H28         1.2160   -1.4580   -4.5660 ha        1 8PC      0.143000
@<TRIPOS>BOND
     1    1    2 1   
     2    2    3 1   
     3    2    8 1   
     4    3    4 1   
     5    3   24 1   
     6    4    5 1   
     7    6    7 1   
     8    6    9 1   
     9    7   25 1   
    10    8   26 1   
    11    9   10 1   
    12   10   11 1   
    13   10   15 1   
    14   11   12 1   
    15   11   27 1   
    16   12   28 1   
    17   13   14 1   
    18   13   17 1   
    19   14   29 1   
    20   15   16 1   
    21   16   30 1   
    22   17   18 1   
    23   17   31 1   
    24   17   32 1   
    25   18   19 1   
    26   18   23 1   
    27   19   20 1   
    28   20   33 1   
    29   21   22 1   
    30   21   34 1   
    31   22   35 1   
    32   23   36 1   
@<TRIPOS>SUBSTRUCTURE
     1 8PC         1 TEMP              0 ****  ****    0 ROOT
