@<TRIPOS>MOLECULE
8PC
   36    38     1     0     0
SMALL
bcc


@<TRIPOS>ATOM
      1 CL1        -0.0360    0.2210    0.6060 cl        1 8PC     -0.091400
      2 C17         1.6490    0.1280    0.4010 ca        1 8PC     -0.009600
      3 C16         2.4720   -0.0020    1.5230 ca        1 8PC     -0.097000
      4 C15         3.8580   -0.0790    1.3670 ca        1 8PC     -0.001600
      5 CL2         4.8240   -0.2370    2.7530 cl        1 8PC     -0.063400
      6 C14         4.4110   -0.0250    0.0700 ca        1 8PC      0.138100
      7 C19         3.5760    0.1050   -1.0480 ca        1 8PC     -0.175000
      8 C22         2.1970    0.1820   -0.8830 ca        1 8PC     -0.092000
      9 O13         5.7930   -0.1320   -0.0190 os        1 8PC     -0.219200
     10 C2          6.3460    0.0510   -1.2850 ca        1 8PC      0.044100
     11 C3          6.6290   -1.0690   -2.0750 ca        1 8PC     -0.097000
     12 C4          7.3290   -0.9150   -3.2690 ca        1 8PC     -0.140000
     13 C5          7.7490    0.3530   -3.6880 ca        1 8PC     -0.033300
     14 C6          7.4680    1.4760   -2.9060 ca        1 8PC     -0.208000
     15 C1          6.7630    1.3310   -1.7010 ca        1 8PC      0.127100
     16 O22         6.4500    2.3950   -0.8930 oh        1 8PC     -0.476100
     17 C7          8.5160    0.5050   -4.9580 c3        1 8PC     -0.089400
     18 C23         7.6250    0.4160   -6.1680 ca        1 8PC      0.410600
     19 N24         7.1200   -0.7930   -6.5230 nb        1 8PC     -0.666000
     20 C25         6.3320   -0.8440   -7.6110 ca        1 8PC      0.400200
     21 C26         6.0070    0.2770   -8.3970 ca        1 8PC     -0.246300
     22 C27         6.5320    1.5140   -8.0270 ca        1 8PC     -0.090000
     23 C28         7.3520    1.5920   -6.9000 ca        1 8PC     -0.242300
     24 H16         2.0320   -0.0430    2.5330 ha        1 8PC      0.162000
     25 H19         4.0150    0.1490   -2.0560 ha        1 8PC      0.155000
     26 H22         1.5450    0.2850   -1.7640 ha        1 8PC      0.150000
     27 H3          6.3040   -2.0640   -1.7360 ha        1 8PC      0.154000
     28 H4          7.5490   -1.7950   -3.8930 ha        1 8PC      0.158000
     29 H6          7.7970    2.4750   -3.2250 ha        1 8PC      0.136000
     30 HO22        6.8320    3.1930   -1.2890 ho        1 8PC      0.421000
     31 H71         9.0470    1.4950   -4.9720 hc        1 8PC      0.067200
     32 H72         9.3030   -0.2980   -5.0110 hc        1 8PC      0.067200
     33 H25         5.9410   -1.8450   -7.8660 h4        1 8PC      0.023100
     34 H26         5.3580    0.1720   -9.2750 ha        1 8PC      0.145000
     35 H27         6.3050    2.4170   -8.6120 ha        1 8PC      0.139000
     36 H28         7.7800    2.5530   -6.5840 ha        1 8PC      0.141000
@<TRIPOS>BOND
     1    1    2 1   
     2    2    3 ar  
     3    2    8 ar  
     4    3    4 ar  
     5    3   24 1   
     6    4    5 1   
     7    4    6 ar  
     8    6    7 ar  
     9    6    9 1   
    10    7    8 ar  
    11    7   25 1   
    12    8   26 1   
    13    9   10 1   
    14   10   11 ar  
    15   10   15 ar  
    16   11   12 ar  
    17   11   27 1   
    18   12   13 ar  
    19   12   28 1   
    20   13   14 ar  
    21   13   17 1   
    22   14   15 ar  
    23   14   29 1   
    24   15   16 1   
    25   16   30 1   
    26   17   18 1   
    27   17   31 1   
    28   17   32 1   
    29   18   19 ar  
    30   18   23 ar  
    31   19   20 ar  
    32   20   21 ar  
    33   20   33 1   
    34   21   22 ar  
    35   21   34 1   
    36   22   23 ar  
    37   22   35 1   
    38   23   36 1   
@<TRIPOS>SUBSTRUCTURE
     1 8PC         1 TEMP              0 ****  ****    0 ROOT
