@<TRIPOS>MOLECULE
8PC
   36    38     1     0     0
SMALL
bcc


@<TRIPOS>ATOM
      1 CL1        -4.9540   -3.0030    0.3500 cl        1 8PC     -0.083400
      2 C17        -3.9150   -1.6670    0.2030 ca        1 8PC     -0.003600
      3 C16        -4.4400   -0.3750    0.2780 ca        1 8PC     -0.099000
      4 C15        -3.5930    0.7300    0.1610 ca        1 8PC     -0.000600
      5 CL2        -4.2660    2.2840    0.2590 cl        1 8PC     -0.061400
      6 C14        -2.2130    0.5230   -0.0380 ca        1 8PC      0.118100
      7 C19        -1.6960   -0.7770   -0.1120 ca        1 8PC     -0.168000
      8 C22        -2.5450   -1.8720    0.0090 ca        1 8PC     -0.094000
      9 O13        -1.4290    1.6600   -0.1980 os        1 8PC     -0.244200
     10 C2         -0.0510    1.4840   -0.0610 ca        1 8PC     -0.007900
     11 C3          0.5370    1.0970    1.1470 ca        1 8PC     -0.107000
     12 C4          1.9230    1.0680    1.2530 ca        1 8PC     -0.136000
     13 C5          2.7290    1.4250    0.1620 ca        1 8PC     -0.044300
     14 C6          2.1470    1.8200   -1.0430 ca        1 8PC     -0.151000
     15 C1          0.7480    1.8500   -1.1610 ca        1 8PC      0.134100
     16 O22         0.2260    2.2550   -2.3630 oh        1 8PC     -0.491100
     17 C7          4.2150    1.4080    0.2970 c3        1 8PC     -0.088400
     18 C23         4.7660    0.0080    0.2510 ca        1 8PC      0.410600
     19 N24         4.6270   -0.7890    1.3410 nb        1 8PC     -0.668000
     20 C25         5.1350   -2.0310    1.2720 ca        1 8PC      0.399200
     21 C26         5.7970   -2.5470    0.1420 ca        1 8PC     -0.247300
     22 C27         5.9350   -1.7220   -0.9730 ca        1 8PC     -0.090000
     23 C28         5.4160   -0.4270   -0.9250 ca        1 8PC     -0.240300
     24 H16        -5.5210   -0.2230    0.4320 ha        1 8PC      0.164000
     25 H19        -0.6150   -0.9280   -0.2620 ha        1 8PC      0.161000
     26 H22        -2.1360   -2.8920   -0.0500 ha        1 8PC      0.154000
     27 H3         -0.1020    0.8190    1.9990 ha        1 8PC      0.151000
     28 H4          2.3960    0.7570    2.1980 ha        1 8PC      0.157000
     29 H6          2.7600    2.1110   -1.9080 ha        1 8PC      0.153000
     30 HO22       -0.7420    2.2600   -2.2820 ho        1 8PC      0.438000
     31 H71         4.6830    2.0080   -0.5290 hc        1 8PC      0.067700
     32 H72         4.5010    1.8960    1.2700 hc        1 8PC      0.067700
     33 H25         5.0020   -2.6480    2.1790 h4        1 8PC      0.022100
     34 H26         6.1900   -3.5720    0.1470 ha        1 8PC      0.145000
     35 H27         6.4460   -2.0830   -1.8770 ha        1 8PC      0.139000
     36 H28         5.5080    0.2460   -1.7880 ha        1 8PC      0.144000
@<TRIPOS>BOND
     1    1    2 1   
     2    2    3 ar  
     3    2    8 ar  
     4    3    4 ar  
     5    3   24 1   
     6    4    5 1   
     7    4    6 ar  
     8    6    7 ar  
     9    6    9 1   
    10    7    8 ar  
    11    7   25 1   
    12    8   26 1   
    13    9   10 1   
    14   10   11 ar  
    15   10   15 ar  
    16   11   12 ar  
    17   11   27 1   
    18   12   13 ar  
    19   12   28 1   
    20   13   14 ar  
    21   13   17 1   
    22   14   15 ar  
    23   14   29 1   
    24   15   16 1   
    25   16   30 1   
    26   17   18 1   
    27   17   31 1   
    28   17   32 1   
    29   18   19 ar  
    30   18   23 ar  
    31   19   20 ar  
    32   20   21 ar  
    33   20   33 1   
    34   21   22 ar  
    35   21   34 1   
    36   22   23 ar  
    37   22   35 1   
    38   23   36 1   
@<TRIPOS>SUBSTRUCTURE
     1 8PC         1 TEMP              0 ****  ****    0 ROOT
