@<TRIPOS>MOLECULE
8PC
   36    38     1     0     0
SMALL
bcc


@<TRIPOS>ATOM
      1 Cl1        -0.0380    0.2290    0.6020 cl        1 8PC     -0.091400
      2 C17         1.6470    0.1360    0.3990 ca        1 8PC     -0.009600
      3 C16         2.4690    0.0120    1.5220 ca        1 8PC     -0.097000
      4 C15         3.8560   -0.0630    1.3670 ca        1 8PC     -0.001600
      5 Cl2         4.8200   -0.2130    2.7550 cl        1 8PC     -0.063400
      6 C14         4.4090   -0.0150    0.0700 ca        1 8PC      0.138100
      7 C19         3.5750    0.1100   -1.0480 ca        1 8PC     -0.175000
      8 C22         2.1960    0.1860   -0.8850 ca        1 8PC     -0.092000
      9 O13         5.7910   -0.1190   -0.0170 os        1 8PC     -0.219200
     10 C2          6.3450    0.0580   -1.2840 ca        1 8PC      0.044100
     11 C3          6.6310   -1.0640   -2.0690 ca        1 8PC     -0.097000
     12 C4          7.3310   -0.9140   -3.2620 ca        1 8PC     -0.140000
     13 C5          7.7490    0.3530   -3.6870 ca        1 8PC     -0.033300
     14 C6          7.4660    1.4780   -2.9090 ca        1 8PC     -0.208000
     15 C1          6.7610    1.3380   -1.7040 ca        1 8PC      0.127100
     16 O22         6.4450    2.4050   -0.9010 oh        1 8PC     -0.476100
     17 C7          8.5180    0.5010   -4.9560 c3        1 8PC     -0.089400
     18 C23         7.6270    0.4070   -6.1670 ca        1 8PC      0.410600
     19 N24         7.1220   -0.8040   -6.5160 nb        1 8PC     -0.666000
     20 C25         6.3360   -0.8600   -7.6050 ca        1 8PC      0.400200
     21 C26         6.0110    0.2580   -8.3960 ca        1 8PC     -0.246300
     22 C27         6.5350    1.4970   -8.0310 ca        1 8PC     -0.090000
     23 C28         7.3540    1.5790   -6.9040 ca        1 8PC     -0.242300
     24 H16         2.0280   -0.0250    2.5320 ha        1 8PC      0.162000
     25 H19         4.0150    0.1500   -2.0560 ha        1 8PC      0.155000
     26 H22         1.5440    0.2840   -1.7670 ha        1 8PC      0.150000
     27 H3          6.3070   -2.0580   -1.7260 ha        1 8PC      0.154000
     28 H4          7.5530   -1.7960   -3.8830 ha        1 8PC      0.158000
     29 H6          7.7940    2.4770   -3.2320 ha        1 8PC      0.136000
     30 HO22        6.8260    3.2010   -1.3000 ho        1 8PC      0.421000
     31 H71         9.0470    1.4920   -4.9740 hc        1 8PC      0.067200
     32 H72         9.3050   -0.3010   -5.0060 hc        1 8PC      0.067200
     33 H25         5.9450   -1.8630   -7.8560 h4        1 8PC      0.023100
     34 H26         5.3630    0.1480   -9.2750 ha        1 8PC      0.145000
     35 H27         6.3090    2.3970   -8.6210 ha        1 8PC      0.139000
     36 H28         7.7810    2.5420   -6.5920 ha        1 8PC      0.141000
@<TRIPOS>BOND
     1    1    2 1   
     2    2    3 ar  
     3    2    8 ar  
     4    3    4 ar  
     5    3   24 1   
     6    4    5 1   
     7    4    6 ar  
     8    6    7 ar  
     9    6    9 1   
    10    7    8 ar  
    11    7   25 1   
    12    8   26 1   
    13    9   10 1   
    14   10   11 ar  
    15   10   15 ar  
    16   11   12 ar  
    17   11   27 1   
    18   12   13 ar  
    19   12   28 1   
    20   13   14 ar  
    21   13   17 1   
    22   14   15 ar  
    23   14   29 1   
    24   15   16 1   
    25   16   30 1   
    26   17   18 1   
    27   17   31 1   
    28   17   32 1   
    29   18   19 ar  
    30   18   23 ar  
    31   19   20 ar  
    32   20   21 ar  
    33   20   33 1   
    34   21   22 ar  
    35   21   34 1   
    36   22   23 ar  
    37   22   35 1   
    38   23   36 1   
@<TRIPOS>SUBSTRUCTURE
     1 8PC         1 TEMP              0 ****  ****    0 ROOT
