@<TRIPOS>MOLECULE
8PE
  120   119     1     0     0
SMALL
bcc


@<TRIPOS>ATOM
      1 P          -1.9660    4.0180    0.7270 p5        1 8PE      1.443800
      2 N           1.2660    4.0260    2.5340 n3        1 8PE     -0.908800
      3 O11        -1.7040    4.9060   -0.6420 os        1 8PE     -0.559200
      4 O12        -1.5100    4.7930    1.8970 o         1 8PE     -0.840500
      5 O13        -0.7590    2.9090    0.4780 os        1 8PE     -0.575200
      6 O14        -3.2830    3.3640    0.6020 o         1 8PE     -0.840500
      7 C11        -0.3160    2.2490    1.6230 c3        1 8PE      0.158400
      8 C12         1.1050    2.6870    2.0240 c3        1 8PE      0.134800
      9 C1         -2.8230    5.4280   -1.2780 c3        1 8PE      0.174400
     10 C2         -3.0530    4.8420   -2.6820 c3        1 8PE      0.114100
     11 C3         -1.7960    4.8010   -3.5490 c3        1 8PE      0.154400
     12 O31        -1.0160    3.6570   -3.2000 os        1 8PE     -0.407900
     13 O32         0.8580    4.8680   -3.4230 o         1 8PE     -0.579000
     14 C31         0.3270    3.8320   -3.0090 c         1 8PE      0.658100
     15 C32         0.9520    2.6590   -2.3250 c3        1 8PE     -0.146400
     16 C33         2.4490    2.6230   -2.5420 c3        1 8PE     -0.073400
     17 C34         3.0830    1.5190   -1.7240 c3        1 8PE     -0.080400
     18 C35         4.5800    1.4650   -1.9460 c3        1 8PE     -0.077400
     19 C36         5.2180    0.3670   -1.1230 c3        1 8PE     -0.079400
     20 C37         6.7140    0.3110   -1.3450 c3        1 8PE     -0.078400
     21 C38         7.3520   -0.7860   -0.5210 c3        1 8PE     -0.079400
     22 C39         8.8480   -0.8430   -0.7440 c3        1 8PE     -0.078400
     23 C3A         9.4850   -1.9410    0.0810 c3        1 8PE     -0.079400
     24 C3B        10.9810   -1.9980   -0.1420 c3        1 8PE     -0.078400
     25 C3C        11.6190   -3.0950    0.6830 c3        1 8PE     -0.079400
     26 C3D        13.1150   -3.1530    0.4600 c3        1 8PE     -0.078400
     27 C3E        13.7520   -4.2500    1.2850 c3        1 8PE     -0.079400
     28 C3F        15.2480   -4.3080    1.0610 c3        1 8PE     -0.079400
     29 C3G        15.8860   -5.4050    1.8860 c3        1 8PE     -0.079400
     30 C3H        17.3820   -5.4640    1.6640 c3        1 8PE     -0.080400
     31 C3I        18.0210   -6.5550    2.4830 c3        1 8PE     -0.092100
     32 O21        -3.5400    3.4960   -2.5930 os        1 8PE     -0.419900
     33 O22        -5.6250    4.2610   -2.2960 o         1 8PE     -0.587000
     34 C21        -4.8280    3.3290   -2.1510 c         1 8PE      0.669100
     35 C22        -5.0480    1.9810   -1.5490 c3        1 8PE     -0.153400
     36 C23        -6.5040    1.5760   -1.5910 c3        1 8PE     -0.070400
     37 C24        -6.7260    0.2990   -0.8080 c3        1 8PE     -0.079400
     38 C25        -8.1790   -0.1210   -0.8470 c3        1 8PE     -0.078400
     39 C26        -8.4040   -1.3960   -0.0620 c3        1 8PE     -0.079400
     40 C27        -9.8570   -1.8170   -0.0990 c3        1 8PE     -0.078400
     41 C28       -10.0820   -3.0910    0.6860 c3        1 8PE     -0.079400
     42 C29       -11.5350   -3.5130    0.6480 c3        1 8PE     -0.078400
     43 C2A       -11.7590   -4.7870    1.4340 c3        1 8PE     -0.079400
     44 C2B       -13.2120   -5.2090    1.3960 c3        1 8PE     -0.079400
     45 C2C       -13.4360   -6.4830    2.1810 c3        1 8PE     -0.079400
     46 C2D       -14.8890   -6.9060    2.1440 c3        1 8PE     -0.080400
     47 C2E       -15.1170   -8.1750    2.9250 c3        1 8PE     -0.092100
     48 HN          1.2060    4.6880    1.7820 hn        1 8PE      0.360800
     49 HNA         0.5170    4.2450    3.1700 hn        1 8PE      0.360800
     50 H11        -1.0290    2.4240    2.4770 h1        1 8PE      0.017700
     51 H11A       -0.2880    1.1450    1.3910 h1        1 8PE      0.017700
     52 H12         1.7740    2.5590    1.1270 h1        1 8PE      0.026700
     53 H12A        1.4560    1.9760    2.8260 h1        1 8PE      0.026700
     54 H1         -3.7530    5.2440   -0.6680 h1        1 8PE      0.038700
     55 H1A        -2.6590    6.5380   -1.4070 h1        1 8PE      0.038700
     56 H2         -3.8230    5.4800   -3.2030 h1        1 8PE      0.054700
     57 H3         -2.0720    4.6690   -4.6290 h1        1 8PE      0.054200
     58 H3A        -1.2180    5.7510   -3.4030 h1        1 8PE      0.054200
     59 H32         0.7030    2.7490   -1.2260 hc        1 8PE      0.104200
     60 H32A        0.4720    1.7150   -2.6940 hc        1 8PE      0.104200
     61 H33         2.6710    2.4680   -3.6300 hc        1 8PE      0.046700
     62 H33A        2.8890    3.6150   -2.2550 hc        1 8PE      0.046700
     63 H34         2.8680    1.6890   -0.6350 hc        1 8PE      0.044200
     64 H34A        2.6250    0.5330   -2.0020 hc        1 8PE      0.044200
     65 H35         4.7940    1.2930   -3.0340 hc        1 8PE      0.037700
     66 H35A        5.0350    2.4540   -1.6720 hc        1 8PE      0.037700
     67 H36         5.0050    0.5430   -0.0350 hc        1 8PE      0.040700
     68 H36A        4.7590   -0.6200   -1.3930 hc        1 8PE      0.040700
     69 H37         6.9260    0.1360   -2.4330 hc        1 8PE      0.037200
     70 H37A        7.1710    1.2990   -1.0750 hc        1 8PE      0.037200
     71 H38         7.1400   -0.6100    0.5670 hc        1 8PE      0.039700
     72 H38A        6.8930   -1.7740   -0.7900 hc        1 8PE      0.039700
     73 H39         9.0590   -1.0190   -1.8310 hc        1 8PE      0.038200
     74 H39A        9.3060    0.1450   -0.4730 hc        1 8PE      0.038200
     75 H3AA        9.2740   -1.7640    1.1690 hc        1 8PE      0.039700
     76 H3AB        9.0270   -2.9280   -0.1880 hc        1 8PE      0.039700
     77 H3B        11.1930   -2.1740   -1.2300 hc        1 8PE      0.038700
     78 H3BA       11.4400   -1.0100    0.1280 hc        1 8PE      0.038700
     79 H3C        11.4070   -2.9190    1.7710 hc        1 8PE      0.039200
     80 H3CA       11.1600   -4.0830    0.4130 hc        1 8PE      0.039200
     81 H3D        13.3260   -3.3290   -0.6280 hc        1 8PE      0.039200
     82 H3DA       13.5730   -2.1650    0.7300 hc        1 8PE      0.039200
     83 H3E        13.5410   -4.0740    2.3720 hc        1 8PE      0.039200
     84 H3EA       13.2930   -5.2380    1.0150 hc        1 8PE      0.039200
     85 H3F        15.4600   -4.4840   -0.0260 hc        1 8PE      0.038700
     86 H3FA       15.7070   -3.3200    1.3310 hc        1 8PE      0.038700
     87 H3G        15.6750   -5.2290    2.9740 hc        1 8PE      0.039200
     88 H3GA       15.4270   -6.3930    1.6170 hc        1 8PE      0.039200
     89 H3H        17.5910   -5.6380    0.5750 hc        1 8PE      0.037700
     90 H3HA       17.8380   -4.4750    1.9320 hc        1 8PE      0.037700
     91 H3I        17.8440   -6.3850    3.5730 hc        1 8PE      0.031367
     92 H3IA       17.5960   -7.5520    2.2120 hc        1 8PE      0.031367
     93 H3IB       19.1230   -6.5810    2.3040 hc        1 8PE      0.031367
     94 H22        -4.4050    1.2250   -2.0690 hc        1 8PE      0.114700
     95 H22A       -4.6730    2.0700   -0.4820 hc        1 8PE      0.114700
     96 H23        -7.1310    2.4020   -1.1610 hc        1 8PE      0.043700
     97 H23A       -6.8310    1.4310   -2.6540 hc        1 8PE      0.043700
     98 H24        -6.0850   -0.5190   -1.2320 hc        1 8PE      0.044200
     99 H24A       -6.4040    0.4530    0.2560 hc        1 8PE      0.044200
    100 H25        -8.8180    0.6990   -0.4240 hc        1 8PE      0.036700
    101 H25A       -8.5000   -0.2740   -1.9110 hc        1 8PE      0.036700
    102 H26        -7.7640   -2.2150   -0.4830 hc        1 8PE      0.039700
    103 H26A       -8.0840   -1.2420    1.0020 hc        1 8PE      0.039700
    104 H27       -10.4970   -0.9980    0.3230 hc        1 8PE      0.037200
    105 H27A      -10.1770   -1.9700   -1.1640 hc        1 8PE      0.037200
    106 H28        -9.4410   -3.9100    0.2640 hc        1 8PE      0.039200
    107 H28A       -9.7620   -2.9380    1.7500 hc        1 8PE      0.039200
    108 H29       -12.1750   -2.6930    1.0710 hc        1 8PE      0.038200
    109 H29A      -11.8550   -3.6660   -0.4160 hc        1 8PE      0.038200
    110 H2A       -11.1180   -5.6060    1.0120 hc        1 8PE      0.039200
    111 H2AA      -11.4390   -4.6340    2.4980 hc        1 8PE      0.039200
    112 H2B       -13.8520   -4.3900    1.8180 hc        1 8PE      0.038200
    113 H2BA      -13.5320   -5.3620    0.3310 hc        1 8PE      0.038200
    114 H2C       -12.7960   -7.3020    1.7600 hc        1 8PE      0.039200
    115 H2CA      -13.1170   -6.3300    3.2460 hc        1 8PE      0.039200
    116 H2D       -15.5280   -6.0850    2.5650 hc        1 8PE      0.037700
    117 H2DA      -15.2070   -7.0570    1.0790 hc        1 8PE      0.037700
    118 H2E       -14.5070   -9.0110    2.5050 hc        1 8PE      0.030700
    119 H2EA      -14.8290   -8.0360    3.9950 hc        1 8PE      0.030700
    120 H2EB      -16.1930   -8.4680    2.8850 hc        1 8PE      0.030700
@<TRIPOS>BOND
     1    1    3 1   
     2    1    4 1   
     3    1    5 1   
     4    1    6 1   
     5    2    8 1   
     6    2   48 1   
     7    2   49 1   
     8    3    9 1   
     9    5    7 1   
    10    7    8 1   
    11    7   50 1   
    12    7   51 1   
    13    8   52 1   
    14    8   53 1   
    15    9   10 1   
    16    9   54 1   
    17    9   55 1   
    18   10   11 1   
    19   10   32 1   
    20   10   56 1   
    21   11   12 1   
    22   11   57 1   
    23   11   58 1   
    24   12   14 1   
    25   13   14 2   
    26   14   15 1   
    27   15   16 1   
    28   15   59 1   
    29   15   60 1   
    30   16   17 1   
    31   16   61 1   
    32   16   62 1   
    33   17   18 1   
    34   17   63 1   
    35   17   64 1   
    36   18   19 1   
    37   18   65 1   
    38   18   66 1   
    39   19   20 1   
    40   19   67 1   
    41   19   68 1   
    42   20   21 1   
    43   20   69 1   
    44   20   70 1   
    45   21   22 1   
    46   21   71 1   
    47   21   72 1   
    48   22   23 1   
    49   22   73 1   
    50   22   74 1   
    51   23   24 1   
    52   23   75 1   
    53   23   76 1   
    54   24   25 1   
    55   24   77 1   
    56   24   78 1   
    57   25   26 1   
    58   25   79 1   
    59   25   80 1   
    60   26   27 1   
    61   26   81 1   
    62   26   82 1   
    63   27   28 1   
    64   27   83 1   
    65   27   84 1   
    66   28   29 1   
    67   28   85 1   
    68   28   86 1   
    69   29   30 1   
    70   29   87 1   
    71   29   88 1   
    72   30   31 1   
    73   30   89 1   
    74   30   90 1   
    75   31   91 1   
    76   31   92 1   
    77   31   93 1   
    78   32   34 1   
    79   33   34 2   
    80   34   35 1   
    81   35   36 1   
    82   35   94 1   
    83   35   95 1   
    84   36   37 1   
    85   36   96 1   
    86   36   97 1   
    87   37   38 1   
    88   37   98 1   
    89   37   99 1   
    90   38   39 1   
    91   38  100 1   
    92   38  101 1   
    93   39   40 1   
    94   39  102 1   
    95   39  103 1   
    96   40   41 1   
    97   40  104 1   
    98   40  105 1   
    99   41   42 1   
   100   41  106 1   
   101   41  107 1   
   102   42   43 1   
   103   42  108 1   
   104   42  109 1   
   105   43   44 1   
   106   43  110 1   
   107   43  111 1   
   108   44   45 1   
   109   44  112 1   
   110   44  113 1   
   111   45   46 1   
   112   45  114 1   
   113   45  115 1   
   114   46   47 1   
   115   46  116 1   
   116   46  117 1   
   117   47  118 1   
   118   47  119 1   
   119   47  120 1   
@<TRIPOS>SUBSTRUCTURE
     1 8PE         1 TEMP              0 ****  ****    0 ROOT
