@<TRIPOS>MOLECULE
8PE
  120   118     1     0     0
SMALL
bcc


@<TRIPOS>ATOM
      1 P         -10.3680    4.2200   -1.4400 p3        1 8PE      2.529000
      2 N         -13.7490    7.7550   -2.4640 n3        1 8PE     -0.336000
      3 O11        -8.7720    4.1190   -1.4820 o         1 8PE     -0.733000
      4 O12       -10.8660    3.7820   -0.0770 o         1 8PE     -1.144500
      5 O13       -10.8130    5.7270   -1.7090 os        1 8PE     -0.718000
      6 O14       -10.9580    3.3220   -2.5050 o         1 8PE     -1.144500
      7 C11       -12.1870    5.9940   -1.9530 c3        1 8PE      0.001000
      8 C12       -12.3960    7.4950   -2.0930 c3        1 8PE     -0.127000
      9 C1         -8.1420    3.0330   -0.8030 c3        1 8PE      0.052000
     10 C2         -6.6510    3.0660   -1.0670 c3        1 8PE     -0.010000
     11 C3         -5.9760    3.9780   -0.0490 c3        1 8PE     -0.035000
     12 O31        -4.5680    3.6580    0.0260 os        1 8PE     -0.283000
     13 O32        -3.9730    5.8880    0.2120 o         1 8PE     -0.352000
     14 C31        -3.7450    4.7370    0.5410 c2        1 8PE      0.305000
     15 C32        -2.5730    4.4240    1.5070 c3        1 8PE     -0.155000
     16 C33        -1.3570    5.3060    1.1460 c3        1 8PE     -0.166000
     17 C34        -0.2660    5.1610    2.2450 c3        1 8PE     -0.153000
     18 C35         1.1190    5.5720    1.6600 c3        1 8PE     -0.159000
     19 C36         2.2260    5.2510    2.6860 c3        1 8PE     -0.157000
     20 C37         3.5930    5.2280    1.9780 c3        1 8PE     -0.158000
     21 C38         4.5970    4.4290    2.8300 c3        1 8PE     -0.157000
     22 C39         6.0150    4.5500    2.2120 c3        1 8PE     -0.158000
     23 C3A         6.7260    3.1820    2.2780 c3        1 8PE     -0.157000
     24 C3B         8.2580    3.3870    2.1350 c3        1 8PE     -0.158000
     25 C3C         8.9140    2.0690    1.6690 c3        1 8PE     -0.157000
     26 C3D        10.3920    2.0170    2.1670 c3        1 8PE     -0.158000
     27 C3E        11.0460    0.6790    1.7130 c3        1 8PE     -0.157000
     28 C3F        12.3710    0.4680    2.4740 c3        1 8PE     -0.158000
     29 C3G        12.9540   -0.9300    2.1210 c3        1 8PE     -0.158000
     30 C3H        14.0890   -1.2680    3.0900 c3        1 8PE     -0.159000
     31 C3I        14.6100   -2.6790    2.7950 c3        1 8PE     -0.210000
     32 O21        -6.1260    1.7650   -0.9510 os        1 8PE     -0.267000
     33 O22        -7.2540    1.0620   -2.8210 o         1 8PE     -0.379000
     34 C21        -6.2520    0.9780   -2.1420 c2        1 8PE      0.313000
     35 C22        -5.1330   -0.0260   -2.5300 c3        1 8PE     -0.158000
     36 C23        -5.7270   -1.4450   -2.6290 c3        1 8PE     -0.157000
     37 C24        -4.7100   -2.3840   -3.3200 c3        1 8PE     -0.156000
     38 C25        -5.0100   -3.8430   -2.9290 c3        1 8PE     -0.159000
     39 C26        -3.8810   -4.7590   -3.4440 c3        1 8PE     -0.157000
     40 C27        -3.9810   -6.1320   -2.7530 c3        1 8PE     -0.158000
     41 C28        -2.6960   -6.9410   -3.0210 c3        1 8PE     -0.157000
     42 C29        -2.6640   -8.1740   -2.0890 c3        1 8PE     -0.158000
     43 C2A        -1.2570   -8.7980   -2.1070 c3        1 8PE     -0.157000
     44 C2B        -1.1310   -9.8190   -0.9530 c3        1 8PE     -0.158000
     45 C2C         0.3140  -10.3500   -0.8900 c3        1 8PE     -0.158000
     46 C2D         0.4660  -11.2880    0.3270 c3        1 8PE     -0.159000
     47 C2E         1.9300  -11.6610    0.5020 c3        1 8PE     -0.210000
     48 HN        -14.1570    8.2410   -1.8050 hn        1 8PE      0.124000
     49 HNA       -13.7650    8.2290   -3.2460 hn        1 8PE      0.124000
     50 H11       -12.4640    5.5480   -2.7800 h1        1 8PE      0.066000
     51 H11A      -12.7240    5.6580   -1.2050 h1        1 8PE      0.066000
     52 H12       -11.7920    7.8470   -2.7850 h1        1 8PE      0.102000
     53 H12A      -12.2010    7.9340   -1.2340 h1        1 8PE      0.102000
     54 H1         -8.3040    3.1110    0.1580 h1        1 8PE      0.070500
     55 H1A        -8.5100    2.1900   -1.1270 h1        1 8PE      0.070500
     56 H2         -6.4870    3.4060   -1.9690 h1        1 8PE      0.124000
     57 H3         -6.0840    4.9140   -0.3250 h1        1 8PE      0.148000
     58 H3A        -6.3900    3.8470    0.8360 h1        1 8PE      0.148000
     59 H32        -2.8490    4.6110    2.4230 hc        1 8PE      0.103000
     60 H32A       -2.3270    3.4840    1.4270 hc        1 8PE      0.103000
     61 H33        -1.6380    6.2400    1.0880 hc        1 8PE      0.108000
     62 H33A       -0.9930    5.0220    0.2870 hc        1 8PE      0.108000
     63 H34        -0.2290    4.2290    2.5470 hc        1 8PE      0.073000
     64 H34A       -0.4850    5.7380    2.9980 hc        1 8PE      0.073000
     65 H35         1.2850    5.0760    0.8350 hc        1 8PE      0.084500
     66 H35A        1.1200    6.5310    1.4700 hc        1 8PE      0.084500
     67 H36         2.2320    5.9340    3.3810 hc        1 8PE      0.075500
     68 H36A        2.0530    4.3780    3.0890 hc        1 8PE      0.075500
     69 H37         3.4990    4.8050    1.1000 hc        1 8PE      0.080500
     70 H37A        3.9150    6.1390    1.8670 hc        1 8PE      0.080500
     71 H38         4.3300    3.4880    2.8510 hc        1 8PE      0.077000
     72 H38A        4.6070    4.7840    3.7400 hc        1 8PE      0.077000
     73 H39         6.5320    5.2090    2.7110 hc        1 8PE      0.079000
     74 H39A        5.9410    4.8340    1.2780 hc        1 8PE      0.079000
     75 H3AA        6.4050    2.6130    1.5540 hc        1 8PE      0.078000
     76 H3AB        6.5340    2.7570    3.1360 hc        1 8PE      0.078000
     77 H3B         8.4320    4.0860    1.4760 hc        1 8PE      0.079000
     78 H3BA        8.6330    3.6500    2.9930 hc        1 8PE      0.079000
     79 H3C         8.4180    1.3090    2.0380 hc        1 8PE      0.078000
     80 H3CA        8.8980    2.0240    0.6930 hc        1 8PE      0.078000
     81 H3D        10.4100    2.0730    3.1450 hc        1 8PE      0.079000
     82 H3DA       10.8930    2.7710    1.7860 hc        1 8PE      0.079000
     83 H3E        10.4400   -0.0600    1.9040 hc        1 8PE      0.078000
     84 H3EA       11.2240    0.7130    0.7540 hc        1 8PE      0.078000
     85 H3F        12.2050    0.5190    3.4380 hc        1 8PE      0.079000
     86 H3FA       13.0100    1.1620    2.2150 hc        1 8PE      0.079000
     87 H3G        13.3020   -0.9180    1.2000 hc        1 8PE      0.078000
     88 H3GA       12.2500   -1.6060    2.1960 hc        1 8PE      0.078000
     89 H3H        14.8150   -0.6230    2.9780 hc        1 8PE      0.078000
     90 H3HA       13.7570   -1.2280    4.0080 hc        1 8PE      0.078000
     91 H3I        15.1590   -2.6630    1.9770 hc        1 8PE      0.070667
     92 H3IA       15.1570   -2.9900    3.5510 hc        1 8PE      0.070667
     93 H3IB       13.8500   -3.2890    2.6680 hc        1 8PE      0.070667
     94 H22        -4.4350   -0.0130   -1.8490 hc        1 8PE      0.108000
     95 H22A       -4.7500    0.2300   -3.3950 hc        1 8PE      0.108000
     96 H23        -6.5510   -1.4180   -3.1510 hc        1 8PE      0.097500
     97 H23A       -5.9210   -1.7810   -1.7290 hc        1 8PE      0.097500
     98 H24        -4.7820   -2.2850   -4.2930 hc        1 8PE      0.076500
     99 H24A       -3.8080   -2.1500   -3.0360 hc        1 8PE      0.076500
    100 H25        -5.8600   -4.1180   -3.3270 hc        1 8PE      0.083500
    101 H25A       -5.0680   -3.9130   -1.9590 hc        1 8PE      0.083500
    102 H26        -3.9700   -4.8740   -4.4130 hc        1 8PE      0.077000
    103 H26A       -3.0160   -4.3550   -3.2420 hc        1 8PE      0.077000
    104 H27        -4.7560   -6.6210   -3.1070 hc        1 8PE      0.080500
    105 H27A       -4.0900   -6.0030   -1.7890 hc        1 8PE      0.080500
    106 H28        -2.6850   -7.2370   -3.9590 hc        1 8PE      0.077000
    107 H28A       -1.9160   -6.3800   -2.8470 hc        1 8PE      0.077000
    108 H29        -2.8870   -7.8990   -1.1770 hc        1 8PE      0.079500
    109 H29A       -3.3160   -8.8330   -2.3990 hc        1 8PE      0.079500
    110 H2A        -1.1120   -9.2520   -2.9630 hc        1 8PE      0.077500
    111 H2AA       -0.5880   -8.0950   -1.9940 hc        1 8PE      0.077500
    112 H2B        -1.7450  -10.5630   -1.1090 hc        1 8PE      0.079000
    113 H2BA       -1.3540   -9.3840   -0.1100 hc        1 8PE      0.079000
    114 H2C         0.5150  -10.8430   -1.7080 hc        1 8PE      0.077500
    115 H2CA        0.9370   -9.5950   -0.8010 hc        1 8PE      0.077500
    116 H2D        -0.0610  -12.0970    0.1820 hc        1 8PE      0.077500
    117 H2DA        0.1480  -10.8330    1.1300 hc        1 8PE      0.077500
    118 H2E         2.2350  -12.1530   -0.2800 hc        1 8PE      0.070000
    119 H2EA        2.4630  -10.8480    0.6040 hc        1 8PE      0.070000
    120 H2EB        2.0320  -12.2230    1.3050 hc        1 8PE      0.070000
@<TRIPOS>BOND
     1    1    4 1   
     2    1    5 1   
     3    1    6 1   
     4    2    8 1   
     5    2   48 1   
     6    2   49 1   
     7    3    9 1   
     8    5    7 1   
     9    7    8 1   
    10    7   50 1   
    11    7   51 1   
    12    8   52 1   
    13    8   53 1   
    14    9   10 1   
    15    9   54 1   
    16    9   55 1   
    17   10   11 1   
    18   10   32 1   
    19   10   56 1   
    20   11   12 1   
    21   11   57 1   
    22   11   58 1   
    23   12   14 1   
    24   13   14 1   
    25   14   15 1   
    26   15   16 1   
    27   15   59 1   
    28   15   60 1   
    29   16   17 1   
    30   16   61 1   
    31   16   62 1   
    32   17   18 1   
    33   17   63 1   
    34   17   64 1   
    35   18   19 1   
    36   18   65 1   
    37   18   66 1   
    38   19   20 1   
    39   19   67 1   
    40   19   68 1   
    41   20   21 1   
    42   20   69 1   
    43   20   70 1   
    44   21   22 1   
    45   21   71 1   
    46   21   72 1   
    47   22   23 1   
    48   22   73 1   
    49   22   74 1   
    50   23   24 1   
    51   23   75 1   
    52   23   76 1   
    53   24   25 1   
    54   24   77 1   
    55   24   78 1   
    56   25   26 1   
    57   25   79 1   
    58   25   80 1   
    59   26   27 1   
    60   26   81 1   
    61   26   82 1   
    62   27   28 1   
    63   27   83 1   
    64   27   84 1   
    65   28   29 1   
    66   28   85 1   
    67   28   86 1   
    68   29   30 1   
    69   29   87 1   
    70   29   88 1   
    71   30   31 1   
    72   30   89 1   
    73   30   90 1   
    74   31   91 1   
    75   31   92 1   
    76   31   93 1   
    77   32   34 1   
    78   33   34 1   
    79   34   35 1   
    80   35   36 1   
    81   35   94 1   
    82   35   95 1   
    83   36   37 1   
    84   36   96 1   
    85   36   97 1   
    86   37   38 1   
    87   37   98 1   
    88   37   99 1   
    89   38   39 1   
    90   38  100 1   
    91   38  101 1   
    92   39   40 1   
    93   39  102 1   
    94   39  103 1   
    95   40   41 1   
    96   40  104 1   
    97   40  105 1   
    98   41   42 1   
    99   41  106 1   
   100   41  107 1   
   101   42   43 1   
   102   42  108 1   
   103   42  109 1   
   104   43   44 1   
   105   43  110 1   
   106   43  111 1   
   107   44   45 1   
   108   44  112 1   
   109   44  113 1   
   110   45   46 1   
   111   45  114 1   
   112   45  115 1   
   113   46   47 1   
   114   46  116 1   
   115   46  117 1   
   116   47  118 1   
   117   47  119 1   
   118   47  120 1   
@<TRIPOS>SUBSTRUCTURE
     1 8PE         1 TEMP              0 ****  ****    0 ROOT
