@<TRIPOS>MOLECULE
8PG
   55    55     1     0     0
SMALL
bcc


@<TRIPOS>ATOM
      1 CAA         8.6330    3.7300   -0.2920 c3        1 8PG     -0.092100
      2 CAJ         7.2130    3.5090    0.1610 c3        1 8PG     -0.081400
      3 CAK         6.6760    2.1790   -0.3240 c3        1 8PG     -0.077400
      4 CAO         5.2520    1.9620    0.1390 c3        1 8PG     -0.081400
      5 CAR         4.7070    0.6400   -0.3570 c3        1 8PG     -0.105400
      6 CAV         3.3090    0.3760    0.2020 c3        1 8PG      0.168300
      7 OAE         3.3310    0.3180    1.6210 oh        1 8PG     -0.589800
      8 CAH         2.7230   -0.8550   -0.4130 c2        1 8PG     -0.213200
      9 CAI         1.8860   -1.6710    0.2340 c2        1 8PG     -0.139200
     10 CAW         1.2980   -2.8900   -0.3760 c3        1 8PG     -0.019300
     11 CAG         1.6110   -4.1100    0.4580 c2        1 8PG     -0.113200
     12 CAF         0.5030   -4.7770    0.8240 ce        1 8PG     -0.255200
     13 CAU        -0.7120   -4.1000    0.2960 c         1 8PG      0.561300
     14 OAC        -1.8690   -4.4900    0.4320 o         1 8PG     -0.511100
     15 CAX        -0.2520   -2.8670   -0.4770 c3        1 8PG     -0.158700
     16 CAS        -0.8840   -1.5880    0.0340 c3        1 8PG     -0.063400
     17 CAP        -2.3260   -1.4520   -0.4120 c3        1 8PG     -0.086400
     18 CAM        -2.9170   -0.1390    0.0560 c3        1 8PG     -0.077400
     19 CAL        -4.3280    0.0510   -0.4600 c3        1 8PG     -0.078400
     20 CAN        -4.8740    1.4130   -0.0820 c3        1 8PG     -0.066400
     21 CAQ        -6.2780    1.6200   -0.5960 c3        1 8PG     -0.193400
     22 CAT        -6.7240    3.0840   -0.4330 c         1 8PG      0.907600
     23 OAD        -5.9240    4.0020   -0.7780 o         1 8PG     -0.853800
     24 OAB        -7.8850    3.2990    0.0210 o         1 8PG     -0.853800
     25 HAA1        9.0090    4.7150    0.0740 hc        1 8PG      0.030367
     26 HAA2        9.3030    2.9280    0.1030 hc        1 8PG      0.030367
     27 HAA3        8.6980    3.7210   -1.4070 hc        1 8PG      0.030367
     28 HAJ1        7.1640    3.5460    1.2810 hc        1 8PG      0.041700
     29 HAJ2        6.5620    4.3370   -0.2250 hc        1 8PG      0.041700
     30 HAK1        6.7180    2.1430   -1.4440 hc        1 8PG      0.035700
     31 HAK2        7.3280    1.3500    0.0590 hc        1 8PG      0.035700
     32 HAO1        5.2050    1.9810    1.2610 hc        1 8PG      0.051200
     33 HAO2        4.6020    2.7980   -0.2320 hc        1 8PG      0.051200
     34 HAR1        4.6590    0.6450   -1.4760 hc        1 8PG      0.042700
     35 HAR2        5.3930   -0.1930   -0.0500 hc        1 8PG      0.042700
     36 HAV         2.6360    1.2590   -0.0150 h1        1 8PG      0.092700
     37 HAE         3.8690   -0.4450    1.8670 ho        1 8PG      0.394000
     38 HAH         3.0080   -1.0300   -1.4630 ha        1 8PG      0.125000
     39 HAI         1.5900   -1.4670    1.2780 ha        1 8PG      0.144000
     40 HAW         1.7210   -3.0430   -1.4090 hc        1 8PG      0.063700
     41 HAG         2.6460   -4.3610    0.6950 ha        1 8PG      0.140000
     42 HAF         0.4290   -5.6880    1.4190 ha        1 8PG      0.156000
     43 HAX        -0.5450   -3.0080   -1.5540 hc        1 8PG      0.080700
     44 HAS1       -0.8320   -1.5560    1.1540 hc        1 8PG      0.048700
     45 HAS2       -0.2980   -0.7120   -0.3530 hc        1 8PG      0.048700
     46 HAP1       -2.3790   -1.5070   -1.5320 hc        1 8PG      0.046200
     47 HAP2       -2.9270   -2.3100   -0.0090 hc        1 8PG      0.046200
     48 HAM1       -2.9190   -0.1050    1.1770 hc        1 8PG      0.035700
     49 HAM2       -2.2750    0.7100   -0.2980 hc        1 8PG      0.035700
     50 HAL1       -4.3360   -0.0570   -1.5760 hc        1 8PG      0.027700
     51 HAL2       -4.9910   -0.7530   -0.0460 hc        1 8PG      0.027700
     52 HAN1       -4.8640    1.5230    1.0340 hc        1 8PG      0.043700
     53 HAN2       -4.2170    2.2210   -0.5010 hc        1 8PG      0.043700
     54 HAQ1       -6.3270    1.3690   -1.6860 hc        1 8PG      0.019200
     55 HAQ2       -6.9940    0.9520   -0.0570 hc        1 8PG      0.019200
@<TRIPOS>BOND
     1    1    2 1   
     2    1   25 1   
     3    1   26 1   
     4    1   27 1   
     5    2    3 1   
     6    2   28 1   
     7    2   29 1   
     8    3    4 1   
     9    3   30 1   
    10    3   31 1   
    11    4    5 1   
    12    4   32 1   
    13    4   33 1   
    14    5    6 1   
    15    5   34 1   
    16    5   35 1   
    17    6    7 1   
    18    6    8 1   
    19    6   36 1   
    20    7   37 1   
    21    8    9 2   
    22    8   38 1   
    23    9   10 1   
    24    9   39 1   
    25   10   11 1   
    26   10   15 1   
    27   10   40 1   
    28   11   12 2   
    29   11   41 1   
    30   12   13 1   
    31   12   42 1   
    32   13   14 2   
    33   13   15 1   
    34   15   16 1   
    35   15   43 1   
    36   16   17 1   
    37   16   44 1   
    38   16   45 1   
    39   17   18 1   
    40   17   46 1   
    41   17   47 1   
    42   18   19 1   
    43   18   48 1   
    44   18   49 1   
    45   19   20 1   
    46   19   50 1   
    47   19   51 1   
    48   20   21 1   
    49   20   52 1   
    50   20   53 1   
    51   21   22 1   
    52   21   54 1   
    53   21   55 1   
    54   22   23 1   
    55   22   24 1   
@<TRIPOS>SUBSTRUCTURE
     1 8PG         1 TEMP              0 ****  ****    0 ROOT
