@<TRIPOS>MOLECULE
8PG
   55    55     1     0     0
SMALL
bcc


@<TRIPOS>ATOM
      1 CAA         0.2370    0.9140    0.0930 c3        1 8PG     -0.091100
      2 CAJ         1.6550    0.4040    0.0750 c3        1 8PG     -0.080400
      3 CAK         2.1570    0.1060    1.4720 c3        1 8PG     -0.077400
      4 CAO         3.5790   -0.4110    1.4460 c3        1 8PG     -0.080400
      5 CAR         4.0840   -0.6950    2.8430 c3        1 8PG     -0.069400
      6 CAV         5.5000   -1.2700    2.8140 c3        1 8PG      0.173300
      7 OAE         5.3920   -2.5900    2.2870 oh        1 8PG     -0.601800
      8 CAH         6.0880   -1.3040    4.1900 c2        1 8PG     -0.210200
      9 CAI         6.8190   -0.3070    4.6930 c2        1 8PG     -0.141200
     10 CAW         7.3910   -0.2740    6.0620 c3        1 8PG     -0.019300
     11 CAG         6.9220   -1.4000    6.9490 c2        1 8PG     -0.114200
     12 CAF         7.9430   -2.0500    7.5350 ce        1 8PG     -0.255200
     13 CAU         9.2420   -1.4650    7.1110 c         1 8PG      0.562300
     14 OAC        10.3510   -1.8000    7.5220 o         1 8PG     -0.512100
     15 CAX         8.9430   -0.3470    6.1140 c3        1 8PG     -0.157700
     16 CAS         9.5950   -0.5880    4.7670 c3        1 8PG     -0.061400
     17 CAP        11.0970   -0.3970    4.8140 c3        1 8PG     -0.088400
     18 CAM        11.7060   -0.6040    3.4420 c3        1 8PG     -0.076400
     19 CAL        13.1920   -0.3180    3.4410 c3        1 8PG     -0.078400
     20 CAN        13.7720   -0.4430    2.0470 c3        1 8PG     -0.066400
     21 CAQ        15.2500   -0.1390    2.0180 c3        1 8PG     -0.193400
     22 CAT        15.7690   -0.0260    0.5730 c         1 8PG      0.907600
     23 OAD        15.0890    0.6370   -0.2640 o         1 8PG     -0.853800
     24 OAB        16.8670   -0.5900    0.2970 o         1 8PG     -0.853800
     25 HAA1        0.1650    1.8550    0.6900 hc        1 8PG      0.030033
     26 HAA2       -0.1120    1.1270   -0.9460 hc        1 8PG      0.030033
     27 HAA3       -0.4480    0.1580    0.5470 hc        1 8PG      0.030033
     28 HAJ1        2.3240    1.1650   -0.4080 hc        1 8PG      0.040200
     29 HAJ2        1.7130   -0.5280   -0.5480 hc        1 8PG      0.040200
     30 HAK1        2.1040    1.0360    2.0960 hc        1 8PG      0.036700
     31 HAK2        1.4890   -0.6550    1.9560 hc        1 8PG      0.036700
     32 HAO1        3.6340   -1.3530    0.8380 hc        1 8PG      0.049200
     33 HAO2        4.2450    0.3440    0.9490 hc        1 8PG      0.049200
     34 HAR1        3.4040   -1.4270    3.3510 hc        1 8PG      0.049200
     35 HAR2        4.0970    0.2470    3.4490 hc        1 8PG      0.049200
     36 HAV         6.1470   -0.6520    2.1260 h1        1 8PG      0.043700
     37 HAE         6.2870   -2.9490    2.2540 ho        1 8PG      0.406000
     38 HAH         5.8680   -2.2210    4.7610 ha        1 8PG      0.135000
     39 HAI         7.0320    0.5950    4.0930 ha        1 8PG      0.130000
     40 HAW         7.0670    0.6980    6.5370 hc        1 8PG      0.067700
     41 HAG         5.8540   -1.5990    7.0660 ha        1 8PG      0.142000
     42 HAF         7.8990   -2.8890    8.2300 ha        1 8PG      0.157000
     43 HAX         9.3400    0.6140    6.5400 hc        1 8PG      0.079700
     44 HAS1        9.1660    0.1320    4.0190 hc        1 8PG      0.044700
     45 HAS2        9.3550   -1.6230    4.4100 hc        1 8PG      0.044700
     46 HAP1       11.5490   -1.1160    5.5470 hc        1 8PG      0.048700
     47 HAP2       11.3330    0.6380    5.1760 hc        1 8PG      0.048700
     48 HAM1       11.5270   -1.6590    3.1070 hc        1 8PG      0.034700
     49 HAM2       11.1990    0.0690    2.7010 hc        1 8PG      0.034700
     50 HAL1       13.7130   -1.0280    4.1350 hc        1 8PG      0.028700
     51 HAL2       13.3750    0.7180    3.8300 hc        1 8PG      0.028700
     52 HAN1       13.2490    0.2630    1.3470 hc        1 8PG      0.043200
     53 HAN2       13.5970   -1.4810    1.6610 hc        1 8PG      0.043200
     54 HAQ1       15.8230   -0.9320    2.5580 hc        1 8PG      0.019200
     55 HAQ2       15.4500    0.8380    2.5280 hc        1 8PG      0.019200
@<TRIPOS>BOND
     1    1    2 1   
     2    1   25 1   
     3    1   26 1   
     4    1   27 1   
     5    2    3 1   
     6    2   28 1   
     7    2   29 1   
     8    3    4 1   
     9    3   30 1   
    10    3   31 1   
    11    4    5 1   
    12    4   32 1   
    13    4   33 1   
    14    5    6 1   
    15    5   34 1   
    16    5   35 1   
    17    6    7 1   
    18    6    8 1   
    19    6   36 1   
    20    7   37 1   
    21    8    9 2   
    22    8   38 1   
    23    9   10 1   
    24    9   39 1   
    25   10   11 1   
    26   10   15 1   
    27   10   40 1   
    28   11   12 2   
    29   11   41 1   
    30   12   13 1   
    31   12   42 1   
    32   13   14 2   
    33   13   15 1   
    34   15   16 1   
    35   15   43 1   
    36   16   17 1   
    37   16   44 1   
    38   16   45 1   
    39   17   18 1   
    40   17   46 1   
    41   17   47 1   
    42   18   19 1   
    43   18   48 1   
    44   18   49 1   
    45   19   20 1   
    46   19   50 1   
    47   19   51 1   
    48   20   21 1   
    49   20   52 1   
    50   20   53 1   
    51   21   22 1   
    52   21   54 1   
    53   21   55 1   
    54   22   23 1   
    55   22   24 1   
@<TRIPOS>SUBSTRUCTURE
     1 8PG         1 TEMP              0 ****  ****    0 ROOT
