@<TRIPOS>MOLECULE
8PG
   55    53     1     0     0
SMALL
bcc


@<TRIPOS>ATOM
      1 CAA        -7.9410   -1.3770   -4.4060 c3        1 8PG     -0.210000
      2 CAJ        -6.4410   -1.0280   -4.3700 c3        1 8PG     -0.159000
      3 CAK        -6.0050   -0.7570   -2.9050 c3        1 8PG     -0.158000
      4 CAO        -4.4850   -0.4240   -2.8710 c3        1 8PG     -0.160000
      5 CAR        -4.0130   -0.3160   -1.4030 c3        1 8PG     -0.198000
      6 CAV        -2.5170    0.0190   -1.3690 c3        1 8PG      0.063000
      7 OAE        -1.8220   -0.8810   -2.1690 oh        1 8PG     -0.320000
      8 CAH        -2.0110   -0.0770    0.0590 c2        1 8PG     -0.174000
      9 CAI        -0.8640    0.5900    0.4300 c1        1 8PG     -0.115000
     10 CAW        -0.1620    1.3590   -0.5110 c2        1 8PG     -0.074000
     11 CAG        -0.5250    2.7150   -0.3860 c2        1 8PG     -0.108000
     12 CAF         0.4810    3.5600   -0.1820 c1        1 8PG     -0.241000
     13 CAU         1.7430    2.9710   -0.0600 c1        1 8PG      0.252000
     14 OAC         2.7970    3.5330    0.1290 o         1 8PG     -0.277000
     15 CAX         1.4860    1.4270   -0.0900 c3        1 8PG     -0.144000
     16 CAS         1.8120    0.7550    1.1130 c3        1 8PG     -0.142000
     17 CAP         3.2890    0.3270    1.0790 c3        1 8PG     -0.166000
     18 CAM         3.7710    0.0280    2.5160 c3        1 8PG     -0.156000
     19 CAL         5.1460   -0.6690    2.4650 c3        1 8PG     -0.157000
     20 CAN         5.7230   -0.7750    3.8950 c3        1 8PG     -0.145000
     21 CAQ         6.9290   -1.7250    3.8920 c3        1 8PG     -0.222000
     22 CAT         7.6410   -1.6480    5.2410 c2        1 8PG      0.327000
     23 OAD         8.6750   -0.9280    5.3700 o         1 8PG     -0.589000
     24 OAB         7.2500   -2.3640    6.1990 o         1 8PG     -0.589000
     25 HAA1       -8.2060   -1.5940   -5.3290 hc        1 8PG      0.071667
     26 HAA2       -8.1110   -2.1550   -3.8250 hc        1 8PG      0.071667
     27 HAA3       -8.4630   -0.6120   -4.0880 hc        1 8PG      0.071667
     28 HAJ1       -5.9250   -1.7740   -4.7300 hc        1 8PG      0.077000
     29 HAJ2       -6.2810   -0.2310   -4.9090 hc        1 8PG      0.077000
     30 HAK1       -6.1770   -1.5530   -2.3600 hc        1 8PG      0.082000
     31 HAK2       -6.5100   -0.0040   -2.5490 hc        1 8PG      0.082000
     32 HAO1       -3.9850   -1.1350   -3.3230 hc        1 8PG      0.076500
     33 HAO2       -4.3280    0.4230   -3.3260 hc        1 8PG      0.076500
     34 HAR1       -4.5170    0.3920   -0.9500 hc        1 8PG      0.097000
     35 HAR2       -4.1670   -1.1670   -0.9480 hc        1 8PG      0.097000
     36 HAV        -2.3780    0.9310   -1.7050 h1        1 8PG      0.070000
     37 HAE        -1.5970   -0.4830   -2.9400 ho        1 8PG      0.197000
     38 HAH        -2.4970   -0.6090    0.7120 ha        1 8PG      0.127000
     39 HAI        -0.5380    0.5270    1.3500 ha        1 8PG      0.132000
     40 HAW        -0.3980    0.9030   -1.3420 ha        1 8PG      0.126000
     41 HAG        -1.3550    3.0330   -0.7750 ha        1 8PG      0.138000
     42 HAF         0.3100    4.4350    0.2200 ha        1 8PG      0.154000
     43 HAX         2.0530    0.9690   -0.7360 hc        1 8PG      0.124000
     44 HAS1        1.6630    1.3560    1.8730 hc        1 8PG      0.086000
     45 HAS2        1.2470   -0.0340    1.2070 hc        1 8PG      0.086000
     46 HAP1        3.3830   -0.4740    0.5310 hc        1 8PG      0.087000
     47 HAP2        3.8270    1.0480    0.6980 hc        1 8PG      0.087000
     48 HAM1        3.1270   -0.5550    2.9600 hc        1 8PG      0.074000
     49 HAM2        3.8490    0.8690    3.0160 hc        1 8PG      0.074000
     50 HAL1        5.7570   -0.1470    1.9050 hc        1 8PG      0.067500
     51 HAL2        5.0440   -1.5640    2.0870 hc        1 8PG      0.067500
     52 HAN1        6.0070    0.1140    4.1990 hc        1 8PG      0.082500
     53 HAN2        5.0370   -1.1220    4.4980 hc        1 8PG      0.082500
     54 HAQ1        6.6230   -2.6410    3.7380 hc        1 8PG      0.058500
     55 HAQ2        7.5490   -1.4630    3.1800 hc        1 8PG      0.058500
@<TRIPOS>BOND
     1    1    2 1   
     2    1   25 1   
     3    1   26 1   
     4    1   27 1   
     5    2    3 1   
     6    2   28 1   
     7    2   29 1   
     8    3    4 1   
     9    3   30 1   
    10    3   31 1   
    11    4    5 1   
    12    4   32 1   
    13    4   33 1   
    14    5    6 1   
    15    5   34 1   
    16    5   35 1   
    17    6    7 1   
    18    6    8 1   
    19    6   36 1   
    20    7   37 1   
    21    8    9 1   
    22    8   38 1   
    23    9   39 1   
    24   10   11 1   
    25   10   15 1   
    26   10   40 1   
    27   11   12 1   
    28   11   41 1   
    29   12   42 1   
    30   13   14 1   
    31   13   15 1   
    32   15   16 1   
    33   15   43 1   
    34   16   17 1   
    35   16   44 1   
    36   16   45 1   
    37   17   18 1   
    38   17   46 1   
    39   17   47 1   
    40   18   19 1   
    41   18   48 1   
    42   18   49 1   
    43   19   20 1   
    44   19   50 1   
    45   19   51 1   
    46   20   21 1   
    47   20   52 1   
    48   20   53 1   
    49   21   22 1   
    50   21   54 1   
    51   21   55 1   
    52   22   23 1   
    53   22   24 1   
@<TRIPOS>SUBSTRUCTURE
     1 8PG         1 TEMP              0 ****  ****    0 ROOT
