@<TRIPOS>MOLECULE
8PG
   55    55     1     0     0
SMALL
bcc


@<TRIPOS>ATOM
      1 CAA        -0.1120    0.1160    0.0820 c3        1 8PG     -0.091100
      2 CAJ         1.3950    0.1310    0.0450 c3        1 8PG     -0.080400
      3 CAK         1.9860    0.0170    1.4340 c3        1 8PG     -0.077400
      4 CAO         3.4990    0.0290    1.3890 c3        1 8PG     -0.081400
      5 CAR         4.0880   -0.0720    2.7790 c3        1 8PG     -0.068400
      6 CAV         5.6160   -0.1230    2.7280 c3        1 8PG      0.174300
      7 OAE         5.9630   -1.3970    2.2000 oh        1 8PG     -0.599800
      8 CAH         6.1960    0.1270    4.0840 c2        1 8PG     -0.208200
      9 CAI         6.9020   -0.7670    4.7800 c2        1 8PG     -0.143200
     10 CAW         7.4750   -0.4880    6.1220 c3        1 8PG     -0.019300
     11 CAG         7.0080   -1.5140    7.1280 c2        1 8PG     -0.108200
     12 CAF         8.0330   -2.1200    7.7530 ce        1 8PG     -0.257200
     13 CAU         9.3320   -1.5970    7.2520 c         1 8PG      0.561300
     14 OAC        10.4450   -1.9240    7.6560 o         1 8PG     -0.513100
     15 CAX         9.0250   -0.5560    6.1780 c3        1 8PG     -0.160700
     16 CAS         9.6730   -0.8840    4.8480 c3        1 8PG     -0.061400
     17 CAP        11.1600   -0.5900    4.8490 c3        1 8PG     -0.087400
     18 CAM        11.7660   -0.8790    3.4920 c3        1 8PG     -0.077400
     19 CAL        13.2250   -0.4810    3.4340 c3        1 8PG     -0.078400
     20 CAN        13.7910   -0.6750    2.0420 c3        1 8PG     -0.066400
     21 CAQ        15.2380   -0.2560    1.9550 c3        1 8PG     -0.193400
     22 CAT        15.7200   -0.2090    0.4930 c         1 8PG      0.907600
     23 OAD        14.9700    0.3290   -0.3730 o         1 8PG     -0.853300
     24 OAB        16.8580   -0.6950    0.2330 o         1 8PG     -0.853300
     25 HAA1       -0.5000    0.9700    0.6890 hc        1 8PG      0.030033
     26 HAA2       -0.5270    0.2010   -0.9510 hc        1 8PG      0.030033
     27 HAA3       -0.4860   -0.8340    0.5360 hc        1 8PG      0.030033
     28 HAJ1        1.7510    1.0800   -0.4360 hc        1 8PG      0.040700
     29 HAJ2        1.7650   -0.7190   -0.5880 hc        1 8PG      0.040700
     30 HAK1        1.6310   -0.9310    1.9170 hc        1 8PG      0.036700
     31 HAK2        1.6210    0.8680    2.0690 hc        1 8PG      0.036700
     32 HAO1        3.8700   -0.8320    0.7720 hc        1 8PG      0.049200
     33 HAO2        3.8540    0.9710    0.8950 hc        1 8PG      0.049200
     34 HAR1        3.7110   -0.9990    3.2850 hc        1 8PG      0.049200
     35 HAR2        3.7790    0.8110    3.3940 hc        1 8PG      0.049200
     36 HAV         5.9980    0.6790    2.0280 h1        1 8PG      0.043700
     37 HAE         6.9250   -1.4100    2.1130 ho        1 8PG      0.408000
     38 HAH         5.9960    1.1380    4.4750 ha        1 8PG      0.125000
     39 HAI         7.0930   -1.7800    4.3860 ha        1 8PG      0.140000
     40 HAW         7.1480    0.5320    6.4730 hc        1 8PG      0.063700
     41 HAG         5.9410   -1.6880    7.2780 ha        1 8PG      0.143000
     42 HAF         7.9920   -2.8900    8.5240 ha        1 8PG      0.157000
     43 HAX         9.4190    0.4350    6.5370 hc        1 8PG      0.080700
     44 HAS1        9.1820   -0.2730    4.0440 hc        1 8PG      0.044200
     45 HAS2        9.5040   -1.9640    4.5980 hc        1 8PG      0.044200
     46 HAP1       11.6660   -1.2080    5.6380 hc        1 8PG      0.048200
     47 HAP2       11.3290    0.4870    5.1120 hc        1 8PG      0.048200
     48 HAM1       11.6660   -1.9720    3.2600 hc        1 8PG      0.034700
     49 HAM2       11.1980   -0.3210    2.7000 hc        1 8PG      0.034700
     50 HAL1       13.3320    0.5950    3.7340 hc        1 8PG      0.028200
     51 HAL2       13.8110   -1.0890    4.1710 hc        1 8PG      0.028200
     52 HAN1       13.6940   -1.7520    1.7460 hc        1 8PG      0.043200
     53 HAN2       13.2000   -0.0730    1.2990 hc        1 8PG      0.043200
     54 HAQ1       15.8840   -0.9590    2.5360 hc        1 8PG      0.019200
     55 HAQ2       15.3670    0.7680    2.3880 hc        1 8PG      0.019200
@<TRIPOS>BOND
     1    1    2 1   
     2    1   25 1   
     3    1   26 1   
     4    1   27 1   
     5    2    3 1   
     6    2   28 1   
     7    2   29 1   
     8    3    4 1   
     9    3   30 1   
    10    3   31 1   
    11    4    5 1   
    12    4   32 1   
    13    4   33 1   
    14    5    6 1   
    15    5   34 1   
    16    5   35 1   
    17    6    7 1   
    18    6    8 1   
    19    6   36 1   
    20    7   37 1   
    21    8    9 2   
    22    8   38 1   
    23    9   10 1   
    24    9   39 1   
    25   10   11 1   
    26   10   15 1   
    27   10   40 1   
    28   11   12 2   
    29   11   41 1   
    30   12   13 1   
    31   12   42 1   
    32   13   14 2   
    33   13   15 1   
    34   15   16 1   
    35   15   43 1   
    36   16   17 1   
    37   16   44 1   
    38   16   45 1   
    39   17   18 1   
    40   17   46 1   
    41   17   47 1   
    42   18   19 1   
    43   18   48 1   
    44   18   49 1   
    45   19   20 1   
    46   19   50 1   
    47   19   51 1   
    48   20   21 1   
    49   20   52 1   
    50   20   53 1   
    51   21   22 1   
    52   21   54 1   
    53   21   55 1   
    54   22   23 1   
    55   22   24 1   
@<TRIPOS>SUBSTRUCTURE
     1 8PG         1 TEMP              0 ****  ****    0 ROOT
