@<TRIPOS>MOLECULE
8PH
   53    54     1     0     0
SMALL
bcc


@<TRIPOS>ATOM
      1 OAE         6.3150    2.3490    4.1170 o         1 8PH     -0.916833
      2 PAY         7.2910    1.2780    3.7000 p5        1 8PH      1.215700
      3 OAF         7.5490    1.2240    2.2290 o         1 8PH     -0.916833
      4 OAB         8.4880    1.1580    4.5980 o         1 8PH     -0.916833
      5 CAX         6.0870   -0.3740    4.1560 c3        1 8PH     -0.302600
      6 PAZ         6.3170   -2.0160    4.2820 p5        1 8PH      1.459600
      7 OAG         4.6540   -2.5500    4.3500 os        1 8PH     -0.587200
      8 OAH         6.7330   -2.7100    3.0370 o         1 8PH     -0.894000
      9 OAC         6.8060   -2.5850    5.5650 o         1 8PH     -0.894000
     10 OAD         5.7670    0.1030    5.4490 oh        1 8PH     -0.632800
     11 CAU         5.0060   -0.0990    3.1430 c3        1 8PH      0.165800
     12 NAW         3.6310   -0.4460    3.5270 nh        1 8PH     -0.647400
     13 CAK         3.5120   -1.8340    4.1450 c3        1 8PH      0.687500
     14 CAJ         2.9890    0.4120    4.4510 c2        1 8PH     -0.007000
     15 CAI         2.3960   -0.2710    5.4810 c2        1 8PH     -0.162000
     16 NAV         2.6220   -1.6820    5.3970 nh        1 8PH     -0.651400
     17 CAT         3.0860   -2.3160    6.6130 c3        1 8PH      0.184800
     18 CAS         3.9100   -1.4820    7.5970 c3        1 8PH     -0.102400
     19 CAR         4.9030   -2.3390    8.3520 c3        1 8PH     -0.084400
     20 CAQ         5.9110   -1.5090    9.1300 c3        1 8PH     -0.044400
     21 CAP         6.9980   -1.0180    8.2020 c3        1 8PH     -0.133400
     22 CAO         8.0290   -0.1330    8.8640 c3        1 8PH     -0.045400
     23 CAN         9.0590    0.2870    7.8320 c3        1 8PH     -0.112400
     24 CAM         9.7040    1.6190    8.1440 c3        1 8PH     -0.044400
     25 CAL        10.5060    2.0940    6.9500 c3        1 8PH     -0.127400
     26 CAA        10.9880    3.5090    7.1220 c3        1 8PH     -0.068100
     27 H5          5.6140    1.0630    5.3960 ho        1 8PH      0.412000
     28 H6          5.0030    0.9900    2.8460 h1        1 8PH      0.066700
     29 H7          5.2250   -0.7350    2.2330 h1        1 8PH      0.066700
     30 H8          2.8430   -2.4190    3.4330 h3        1 8PH      0.010700
     31 H9          3.0090    1.4910    4.2810 h4        1 8PH      0.145000
     32 H10         1.8080    0.1320    6.3040 h4        1 8PH      0.108000
     33 H11         2.1610   -2.6800    7.1530 h1        1 8PH      0.022700
     34 H12         3.6880   -3.2210    6.3090 h1        1 8PH      0.022700
     35 H13         4.4780   -0.6920    7.0270 hc        1 8PH      0.048700
     36 H14         3.2260   -0.9580    8.3150 hc        1 8PH      0.048700
     37 H15         4.3590   -3.0260    9.0530 hc        1 8PH      0.043200
     38 H16         5.4700   -2.9630    7.5980 hc        1 8PH      0.043200
     39 H17         5.3990   -0.6430    9.6260 hc        1 8PH     -0.017300
     40 H18         6.3560   -2.1350    9.9490 hc        1 8PH     -0.017300
     41 H19         7.4950   -1.8930    7.6950 hc        1 8PH      0.120700
     42 H20         6.5270   -0.4430    7.3530 hc        1 8PH      0.120700
     43 H21         7.5270    0.7710    9.3020 hc        1 8PH     -0.016800
     44 H22         8.5250   -0.6680    9.7180 hc        1 8PH     -0.016800
     45 H23         8.5730    0.3590    6.8050 hc        1 8PH      0.093700
     46 H24         9.8490   -0.5040    7.7530 hc        1 8PH      0.093700
     47 H25         8.9090    2.3750    8.3780 hc        1 8PH     -0.007800
     48 H26        10.3610    1.5420    9.0520 hc        1 8PH     -0.007800
     49 H27        11.3850    1.4140    6.7970 hc        1 8PH      0.098700
     50 H28         9.8510    1.9990    6.0200 hc        1 8PH      0.098700
     51 H29        10.1210    4.2060    7.2160 hc        1 8PH     -0.000300
     52 H30        11.6210    3.6170    8.0390 hc        1 8PH     -0.000300
     53 H31        11.5960    3.8230    6.2400 hc        1 8PH     -0.000300
@<TRIPOS>BOND
     1    1    2 1   
     2    2    3 1   
     3    2    4 1   
     4    2    5 1   
     5    5    6 1   
     6    5   10 1   
     7    5   11 1   
     8    6    7 1   
     9    6    8 1   
    10    6    9 1   
    11    7   13 1   
    12   10   27 1   
    13   11   12 1   
    14   11   28 1   
    15   11   29 1   
    16   12   13 1   
    17   12   14 1   
    18   13   16 1   
    19   13   30 1   
    20   14   15 2   
    21   14   31 1   
    22   15   16 1   
    23   15   32 1   
    24   16   17 1   
    25   17   18 1   
    26   17   33 1   
    27   17   34 1   
    28   18   19 1   
    29   18   35 1   
    30   18   36 1   
    31   19   20 1   
    32   19   37 1   
    33   19   38 1   
    34   20   21 1   
    35   20   39 1   
    36   20   40 1   
    37   21   22 1   
    38   21   41 1   
    39   21   42 1   
    40   22   23 1   
    41   22   43 1   
    42   22   44 1   
    43   23   24 1   
    44   23   45 1   
    45   23   46 1   
    46   24   25 1   
    47   24   47 1   
    48   24   48 1   
    49   25   26 1   
    50   25   49 1   
    51   25   50 1   
    52   26   51 1   
    53   26   52 1   
    54   26   53 1   
@<TRIPOS>SUBSTRUCTURE
     1 8PH         1 TEMP              0 ****  ****    0 ROOT
