@<TRIPOS>MOLECULE
8PH
   53    53     1     0     0
SMALL
bcc


@<TRIPOS>ATOM
      1 OAE         2.8250    2.4750    2.7550 o         1 8PH     -1.230667
      2 PAY         3.9730    1.8820    1.9770 p3        1 8PH      2.566000
      3 OAF         3.5670    1.3600    0.6330 o         1 8PH     -1.230667
      4 OAB         5.2500    2.6530    2.0350 o         1 8PH     -1.230667
      5 CAX         4.2630    0.1420    3.1600 c2        1 8PH     -1.203000
      6 PAZ         5.5260   -0.9000    3.3770 p5        1 8PH      2.119000
      7 OAG         4.6840   -2.3000    4.0080 os        1 8PH     -0.754000
      8 OAH         6.1070   -1.5230    2.1630 o         1 8PH     -0.897500
      9 OAC         6.4590   -0.6600    4.5150 o         1 8PH     -0.897500
     10 OAD         4.0310    0.7690    4.4020 oh        1 8PH     -0.356000
     11 CAU         3.0600   -0.5550    2.5920 c3        1 8PH     -0.060000
     12 NAW         2.3930   -1.5730    3.4100 n3        1 8PH     -0.254000
     13 CAK         3.3460   -2.5510    4.0790 c3        1 8PH      0.263000
     14 CAJ         1.5420   -1.1300    4.4460 c2        1 8PH     -0.079000
     15 CAI         1.7530   -1.8010    5.6230 c2        1 8PH     -0.259000
     16 NAV         2.8230   -2.7480    5.5180 n3        1 8PH     -0.250000
     17 CAT         3.8140   -2.6810    6.5690 c3        1 8PH     -0.037000
     18 CAS         4.4110   -1.3170    6.8990 c3        1 8PH     -0.212000
     19 CAR         5.5320   -1.4270    7.9110 c3        1 8PH     -0.113000
     20 CAQ         6.5300   -0.3080    7.7030 c3        1 8PH     -0.203000
     21 CAP         7.7490   -0.4690    8.5840 c3        1 8PH     -0.137000
     22 CAO         8.7610    0.6220    8.3060 c3        1 8PH     -0.165000
     23 CAN        10.0190    0.4420    9.1280 c3        1 8PH     -0.152000
     24 CAM        11.0250    1.5370    8.8430 c3        1 8PH     -0.161000
     25 CAL        12.2920    1.3540    9.6520 c3        1 8PH     -0.158000
     26 CAA        13.2930    2.4440    9.3700 c3        1 8PH     -0.207000
     27 H5          3.3710    1.4730    4.2810 ho        1 8PH      0.210000
     28 H6          3.4120   -1.0960    1.6640 h1        1 8PH      0.107500
     29 H7          2.2640    0.1910    2.2990 h1        1 8PH      0.107500
     30 H8          3.1360   -3.5580    3.5910 h3        1 8PH      0.050000
     31 H9          0.8080   -0.3470    4.2400 h4        1 8PH      0.137000
     32 H10         1.2160   -1.6950    6.5640 h4        1 8PH      0.104000
     33 H11         4.6540   -3.3650    6.2560 h1        1 8PH      0.045500
     34 H12         3.3380   -3.1070    7.5020 h1        1 8PH      0.045500
     35 H13         4.8210   -0.8700    5.9320 hc        1 8PH      0.131000
     36 H14         3.6170   -0.6250    7.2760 hc        1 8PH      0.131000
     37 H15         6.0580   -2.4120    7.7920 hc        1 8PH      0.027000
     38 H16         5.1270   -1.4010    8.9590 hc        1 8PH      0.027000
     39 H17         6.8250   -0.3020    6.6030 hc        1 8PH      0.142000
     40 H18         6.0410    0.6770    7.9130 hc        1 8PH      0.142000
     41 H19         8.2190   -1.4700    8.3930 hc        1 8PH      0.043500
     42 H20         7.4570   -0.4450    9.6680 hc        1 8PH      0.043500
     43 H21         9.0120    0.6130    7.2110 hc        1 8PH      0.096000
     44 H22         8.3050    1.6220    8.5300 hc        1 8PH      0.096000
     45 H23         9.7630    0.4430   10.2200 hc        1 8PH      0.060500
     46 H24        10.4760   -0.5560    8.8980 hc        1 8PH      0.060500
     47 H25        10.5690    2.5350    9.0780 hc        1 8PH      0.084000
     48 H26        11.2720    1.5380    7.7490 hc        1 8PH      0.084000
     49 H27        12.0400    1.3470   10.7450 hc        1 8PH      0.067000
     50 H28        12.7450    0.3560    9.4130 hc        1 8PH      0.067000
     51 H29        13.5700    2.4510    8.2880 hc        1 8PH      0.062333
     52 H30        12.8680    3.4450    9.6270 hc        1 8PH      0.062333
     53 H31        14.2220    2.2910    9.9720 hc        1 8PH      0.062333
@<TRIPOS>BOND
     1    1    2 1   
     2    2    3 1   
     3    2    4 1   
     4    5    6 1   
     5    5   10 1   
     6    5   11 1   
     7    6    7 1   
     8    6    8 1   
     9    6    9 1   
    10    7   13 1   
    11   10   27 1   
    12   11   12 1   
    13   11   28 1   
    14   11   29 1   
    15   12   13 1   
    16   12   14 1   
    17   13   16 1   
    18   13   30 1   
    19   14   15 1   
    20   14   31 1   
    21   15   16 1   
    22   15   32 1   
    23   16   17 1   
    24   17   18 1   
    25   17   33 1   
    26   17   34 1   
    27   18   19 1   
    28   18   35 1   
    29   18   36 1   
    30   19   20 1   
    31   19   37 1   
    32   19   38 1   
    33   20   21 1   
    34   20   39 1   
    35   20   40 1   
    36   21   22 1   
    37   21   41 1   
    38   21   42 1   
    39   22   23 1   
    40   22   43 1   
    41   22   44 1   
    42   23   24 1   
    43   23   45 1   
    44   23   46 1   
    45   24   25 1   
    46   24   47 1   
    47   24   48 1   
    48   25   26 1   
    49   25   49 1   
    50   25   50 1   
    51   26   51 1   
    52   26   52 1   
    53   26   53 1   
@<TRIPOS>SUBSTRUCTURE
     1 8PH         1 TEMP              0 ****  ****    0 ROOT
