@<TRIPOS>MOLECULE
8PP
  117   117     1     0     0
SMALL
bcc


@<TRIPOS>ATOM
      1 C1          1.2260    1.4490   -0.1490 ca        1 8PP      0.125100
      2 C2          0.0710    0.7070   -0.4680 ca        1 8PP     -0.092300
      3 C3         -0.5590    0.9610   -1.6900 ca        1 8PP     -0.098000
      4 C4         -0.0630    1.9210   -2.5700 ca        1 8PP     -0.161000
      5 O           1.8320    1.1840    1.0610 oh        1 8PP     -0.501100
      6 C5          1.0800    2.6480   -2.2400 ca        1 8PP     -0.095000
      7 C6          1.7290    2.4180   -1.0300 ca        1 8PP     -0.211000
      8 C7         -0.4740   -0.3160    0.4680 c3        1 8PP      0.003100
      9 C8         -0.1730   -1.6970    0.0100 c2        1 8PP     -0.172200
     10 C9          0.6760   -2.5430    0.6130 c2        1 8PP     -0.107400
     11 C10         1.4500   -2.1900    1.8280 c3        1 8PP     -0.066900
     12 C11         0.8750   -3.9270    0.0910 c3        1 8PP     -0.041200
     13 C12         2.1750   -4.0500   -0.6830 c3        1 8PP     -0.044200
     14 C13         2.3960   -5.4270   -1.1820 c2        1 8PP     -0.172200
     15 C14         3.3880   -5.7590   -2.0240 c2        1 8PP     -0.125400
     16 C15         4.3530   -4.7570   -2.5370 c3        1 8PP     -0.058900
     17 C16         3.5790   -7.1630   -2.4840 c3        1 8PP     -0.038200
     18 C17         3.2700   -7.3150   -3.9630 c3        1 8PP     -0.044200
     19 C18         3.5080   -8.6960   -4.4410 c2        1 8PP     -0.173200
     20 C19         3.1700   -9.1220   -5.6690 c2        1 8PP     -0.124400
     21 C20         2.5130   -8.2340   -6.6580 c3        1 8PP     -0.058900
     22 C21         3.4470  -10.5190   -6.1110 c3        1 8PP     -0.038200
     23 C22         2.1660  -11.3150   -6.2850 c3        1 8PP     -0.044200
     24 C23         2.4280  -12.6870   -6.7780 c2        1 8PP     -0.173200
     25 C24         1.4800  -13.6330   -6.8690 c2        1 8PP     -0.124400
     26 C25         0.0740  -13.3820   -6.4680 c3        1 8PP     -0.058900
     27 C26         1.7890  -14.9950   -7.3910 c3        1 8PP     -0.038200
     28 C27         1.6930  -16.0470   -6.3000 c3        1 8PP     -0.044200
     29 C28         1.9410  -17.4110   -6.8220 c2        1 8PP     -0.173200
     30 C29         2.0620  -18.4930   -6.0350 c2        1 8PP     -0.124400
     31 C30         1.9650  -18.4080   -4.5580 c3        1 8PP     -0.058900
     32 C31         2.2920  -19.8490   -6.6090 c3        1 8PP     -0.038200
     33 C32         3.6800  -20.3690   -6.2800 c3        1 8PP     -0.044200
     34 C33         3.8970  -21.7380   -6.8000 c2        1 8PP     -0.173200
     35 C34         5.0880  -22.3590   -6.7740 c2        1 8PP     -0.124400
     36 C35         6.3020  -21.7110   -6.2230 c3        1 8PP     -0.058900
     37 C36         5.2520  -23.7470   -7.2930 c3        1 8PP     -0.038200
     38 C37         6.0940  -23.7760   -8.5560 c3        1 8PP     -0.044200
     39 C38         6.3070  -25.1560   -9.0500 c2        1 8PP     -0.174200
     40 C39         6.8880  -25.4390  -10.2270 c2        1 8PP     -0.123400
     41 C40         7.0960  -26.8470  -10.6720 c3        1 8PP     -0.038200
     42 C41         7.3630  -24.3780  -11.1470 c3        1 8PP     -0.058900
     43 C42         6.2180  -27.1930  -11.8620 c3        1 8PP     -0.043200
     44 C43         6.4580  -28.5720  -12.3450 c2        1 8PP     -0.177200
     45 C44         5.7230  -29.1570  -13.3050 c2        1 8PP     -0.124400
     46 C45         5.9960  -30.5390  -13.7670 c3        1 8PP     -0.057900
     47 C46         4.5880  -28.4650  -13.9630 c3        1 8PP     -0.057900
     48 H3         -1.4610    0.3880   -1.9540 ha        1 8PP      0.134000
     49 H4         -0.5740    2.1040   -3.5260 ha        1 8PP      0.133000
     50 HO          2.5930    1.7770    1.1460 ho        1 8PP      0.418000
     51 H5          1.4720    3.4060   -2.9330 ha        1 8PP      0.132000
     52 H6          2.6300    2.9890   -0.7640 ha        1 8PP      0.132000
     53 H71        -1.5920   -0.1970    0.5290 hc        1 8PP      0.059700
     54 H72        -0.0670   -0.1380    1.5010 hc        1 8PP      0.059700
     55 H8         -0.7130   -2.0050   -0.9010 ha        1 8PP      0.118000
     56 H101        2.2920   -2.9080    1.9910 hc        1 8PP      0.046367
     57 H102        0.7860   -2.2190    2.7280 hc        1 8PP      0.046367
     58 H103        1.8790   -1.1580    1.7410 hc        1 8PP      0.046367
     59 H111        0.0210   -4.2190   -0.5770 hc        1 8PP      0.045200
     60 H112        0.8830   -4.6470    0.9540 hc        1 8PP      0.045200
     61 H121        2.1660   -3.3290   -1.5460 hc        1 8PP      0.051700
     62 H122        3.0360   -3.7510   -0.0220 hc        1 8PP      0.051700
     63 H13         1.6910   -6.1930   -0.8180 ha        1 8PP      0.122000
     64 H151        3.8450   -4.0660   -3.2560 hc        1 8PP      0.041367
     65 H152        4.7600   -4.1390   -1.6970 hc        1 8PP      0.041367
     66 H153        5.2080   -5.2460   -3.0640 hc        1 8PP      0.041367
     67 H161        2.9240   -7.8610   -1.8970 hc        1 8PP      0.045700
     68 H162        4.6440   -7.4690   -2.2920 hc        1 8PP      0.045700
     69 H171        2.2000   -7.0270   -4.1530 hc        1 8PP      0.050200
     70 H172        3.9070   -6.5990   -4.5530 hc        1 8PP      0.050200
     71 H18         3.9940   -9.3800   -3.7260 ha        1 8PP      0.122000
     72 H201        1.4620   -8.0130   -6.3380 hc        1 8PP      0.041033
     73 H202        3.0600   -7.2610   -6.7340 hc        1 8PP      0.041033
     74 H203        2.4810   -8.7030   -7.6710 hc        1 8PP      0.041033
     75 H211        4.1070  -11.0410   -5.3670 hc        1 8PP      0.045700
     76 H212        4.0040  -10.4890   -7.0860 hc        1 8PP      0.045700
     77 H221        1.4890  -10.7800   -7.0070 hc        1 8PP      0.050200
     78 H222        1.6180  -11.3630   -5.3040 hc        1 8PP      0.050200
     79 H23         3.4650  -12.9030   -7.0810 ha        1 8PP      0.122000
     80 H251        0.0040  -13.2830   -5.3550 hc        1 8PP      0.041367
     81 H252       -0.2980  -12.4290   -6.9230 hc        1 8PP      0.041367
     82 H253       -0.5970  -14.2140   -6.7910 hc        1 8PP      0.041367
     83 H261        1.0660  -15.2430   -8.2140 hc        1 8PP      0.045700
     84 H262        2.8190  -15.0190   -7.8360 hc        1 8PP      0.045700
     85 H271        2.4320  -15.8120   -5.4860 hc        1 8PP      0.050200
     86 H272        0.6710  -16.0060   -5.8300 hc        1 8PP      0.050200
     87 H28         2.0190  -17.5040   -7.9170 ha        1 8PP      0.122000
     88 H301        2.8650  -17.8870   -4.1430 hc        1 8PP      0.041367
     89 H302        1.0600  -17.8220   -4.2580 hc        1 8PP      0.041367
     90 H303        1.9010  -19.4220   -4.0940 hc        1 8PP      0.041367
     91 H311        1.5210  -20.5550   -6.1970 hc        1 8PP      0.045700
     92 H312        2.1610  -19.8290   -7.7240 hc        1 8PP      0.045700
     93 H321        3.8260  -20.3640   -5.1650 hc        1 8PP      0.050200
     94 H322        4.4520  -19.6730   -6.7100 hc        1 8PP      0.050200
     95 H33         3.0120  -22.2440   -7.2180 ha        1 8PP      0.122000
     96 H351        6.6400  -20.8870   -6.9010 hc        1 8PP      0.041367
     97 H352        6.0870  -21.2640   -5.2200 hc        1 8PP      0.041367
     98 H353        7.1400  -22.4420   -6.1120 hc        1 8PP      0.041367
     99 H361        4.2500  -24.2050   -7.5080 hc        1 8PP      0.045700
    100 H362        5.7420  -24.3770   -6.5030 hc        1 8PP      0.045700
    101 H371        7.0910  -23.2940   -8.3520 hc        1 8PP      0.050200
    102 H372        5.5950  -23.1600   -9.3540 hc        1 8PP      0.050200
    103 H38         5.9610  -25.9660   -8.3870 ha        1 8PP      0.123000
    104 H401        6.8760  -27.5590   -9.8320 hc        1 8PP      0.045700
    105 H402        8.1750  -26.9860  -10.9510 hc        1 8PP      0.045700
    106 H411        6.4900  -23.8430  -11.6000 hc        1 8PP      0.041367
    107 H412        7.9830  -24.8020  -11.9740 hc        1 8PP      0.041367
    108 H413        7.9780  -23.6250  -10.5920 hc        1 8PP      0.041367
    109 H421        6.4150  -26.4640  -12.6960 hc        1 8PP      0.049700
    110 H422        5.1370  -27.0750  -11.5770 hc        1 8PP      0.049700
    111 H43         7.2930  -29.1150  -11.8730 ha        1 8PP      0.122000
    112 H451        6.8410  -31.0040  -13.2030 hc        1 8PP      0.040533
    113 H452        5.0870  -31.1760  -13.6290 hc        1 8PP      0.040533
    114 H453        6.2570  -30.5350  -14.8550 hc        1 8PP      0.040533
    115 H461        4.1890  -29.0610  -14.8190 hc        1 8PP      0.040533
    116 H462        3.7590  -28.3010  -13.2290 hc        1 8PP      0.040533
    117 H463        4.9100  -27.4640  -14.3460 hc        1 8PP      0.040533
@<TRIPOS>BOND
     1    1    2 ar  
     2    1    5 1   
     3    1    7 ar  
     4    2    3 ar  
     5    2    8 1   
     6    3    4 ar  
     7    3   48 1   
     8    4    6 ar  
     9    4   49 1   
    10    5   50 1   
    11    6    7 ar  
    12    6   51 1   
    13    7   52 1   
    14    8    9 1   
    15    8   53 1   
    16    8   54 1   
    17    9   10 2   
    18    9   55 1   
    19   10   11 1   
    20   10   12 1   
    21   11   56 1   
    22   11   57 1   
    23   11   58 1   
    24   12   13 1   
    25   12   59 1   
    26   12   60 1   
    27   13   14 1   
    28   13   61 1   
    29   13   62 1   
    30   14   15 2   
    31   14   63 1   
    32   15   16 1   
    33   15   17 1   
    34   16   64 1   
    35   16   65 1   
    36   16   66 1   
    37   17   18 1   
    38   17   67 1   
    39   17   68 1   
    40   18   19 1   
    41   18   69 1   
    42   18   70 1   
    43   19   20 2   
    44   19   71 1   
    45   20   21 1   
    46   20   22 1   
    47   21   72 1   
    48   21   73 1   
    49   21   74 1   
    50   22   23 1   
    51   22   75 1   
    52   22   76 1   
    53   23   24 1   
    54   23   77 1   
    55   23   78 1   
    56   24   25 2   
    57   24   79 1   
    58   25   26 1   
    59   25   27 1   
    60   26   80 1   
    61   26   81 1   
    62   26   82 1   
    63   27   28 1   
    64   27   83 1   
    65   27   84 1   
    66   28   29 1   
    67   28   85 1   
    68   28   86 1   
    69   29   30 2   
    70   29   87 1   
    71   30   31 1   
    72   30   32 1   
    73   31   88 1   
    74   31   89 1   
    75   31   90 1   
    76   32   33 1   
    77   32   91 1   
    78   32   92 1   
    79   33   34 1   
    80   33   93 1   
    81   33   94 1   
    82   34   35 2   
    83   34   95 1   
    84   35   36 1   
    85   35   37 1   
    86   36   96 1   
    87   36   97 1   
    88   36   98 1   
    89   37   38 1   
    90   37   99 1   
    91   37  100 1   
    92   38   39 1   
    93   38  101 1   
    94   38  102 1   
    95   39   40 2   
    96   39  103 1   
    97   40   41 1   
    98   40   42 1   
    99   41   43 1   
   100   41  104 1   
   101   41  105 1   
   102   42  106 1   
   103   42  107 1   
   104   42  108 1   
   105   43   44 1   
   106   43  109 1   
   107   43  110 1   
   108   44   45 2   
   109   44  111 1   
   110   45   46 1   
   111   45   47 1   
   112   46  112 1   
   113   46  113 1   
   114   46  114 1   
   115   47  115 1   
   116   47  116 1   
   117   47  117 1   
@<TRIPOS>SUBSTRUCTURE
     1 8PP         1 TEMP              0 ****  ****    0 ROOT
