@<TRIPOS>MOLECULE
8PP
  117   106     1     0     0
SMALL
bcc


@<TRIPOS>ATOM
      1 C1        -12.7040   -3.9750   -7.6180 c1        1 8PP      0.077000
      2 C2        -12.4740   -4.2390   -6.2770 c1        1 8PP     -0.089000
      3 C3        -12.5560   -3.2160   -5.3470 c1        1 8PP     -0.098000
      4 C4        -12.8680   -1.9290   -5.7580 c1        1 8PP     -0.129000
      5 O         -12.6970   -5.0300   -8.5540 oh        1 8PP     -0.255000
      6 C5        -13.0970   -1.6660   -7.0950 c1        1 8PP     -0.129000
      7 C6        -13.0150   -2.6900   -8.0270 c1        1 8PP     -0.211000
      8 C7        -12.2370   -5.6630   -5.8170 c3        1 8PP     -0.091000
      9 C8        -10.7930   -5.8130   -5.3440 c2        1 8PP     -0.166000
     10 C9        -10.4530   -6.8350   -4.5110 c1        1 8PP     -0.117000
     11 C10       -11.5160   -7.8290   -4.0500 c2        1 8PP     -0.181143
     12 C11        -9.0050   -6.9870   -4.0380 c3        1 8PP     -0.121000
     13 C12        -8.9610   -6.9440   -2.5090 c3        1 8PP     -0.127000
     14 C13        -7.5960   -6.4080   -2.0520 c2        1 8PP     -0.169000
     15 C14        -7.3380   -6.2450   -0.7230 c1        1 8PP     -0.116000
     16 C15        -8.3900   -6.5910    0.2960 c2        1 8PP     -0.181143
     17 C16        -5.9640   -5.7070   -0.2630 c3        1 8PP     -0.122000
     18 C17        -6.1490   -4.3410    0.4100 c3        1 8PP     -0.126000
     19 C18        -4.8420   -3.9410    1.1340 c2        1 8PP     -0.169000
     20 C19        -4.2600   -2.7190    0.8790 c1        1 8PP     -0.116000
     21 C20        -4.9030   -1.7610   -0.1180 c2        1 8PP     -0.181143
     22 C21        -2.9580   -2.3210    1.6010 c3        1 8PP     -0.122000
     23 C22        -3.1100   -0.9100    2.1940 c3        1 8PP     -0.126000
     24 C23        -1.7800   -0.4910    2.8770 c2        1 8PP     -0.170000
     25 C24        -1.6590    0.7670    3.4440 c1        1 8PP     -0.116000
     26 C25        -2.8250    1.7330    3.3980 c2        1 8PP     -0.181143
     27 C26        -0.3230    1.1890    4.1300 c3        1 8PP     -0.122000
     28 C27         0.3320    2.3360    3.3230 c3        1 8PP     -0.126000
     29 C28         1.7510    2.6070    3.8700 c2        1 8PP     -0.169000
     30 C29         2.4300    3.7590    3.4980 c1        1 8PP     -0.116000
     31 C30         1.7790    4.7490    2.5560 c2        1 8PP     -0.181143
     32 C31         3.8550    4.0330    4.0470 c3        1 8PP     -0.122000
     33 C32         4.8470    4.1700    2.8630 c3        1 8PP     -0.125000
     34 C33         6.1350    4.8810    3.3470 c2        1 8PP     -0.172000
     35 C34         7.2060    5.0440    2.4800 c1        1 8PP     -0.112000
     36 C35         7.1160    4.5270    1.0600 c2        1 8PP     -0.181143
     37 C36         8.4850    5.7500    2.9630 c3        1 8PP     -0.122000
     38 C37         9.7250    5.1050    2.2800 c3        1 8PP     -0.126000
     39 C38        10.4800    6.1750    1.4680 c2        1 8PP     -0.162000
     40 C39        11.7840    5.9390    1.0500 c1        1 8PP     -0.120000
     41 C40        12.4660    4.6270    1.3930 c2        1 8PP     -0.124000
     42 C41        12.5240    6.9910    0.2510 c3        1 8PP     -0.179000
     43 C42        13.9950    4.8390    1.4330 c3        1 8PP     -0.124000
     44 C43        14.6930    3.6160    0.8520 c2        1 8PP     -0.173000
     45 C44        16.0450    3.4760    0.9840 c1        1 8PP     -0.116000
     46 C45        16.8480    4.5340    1.7060 c2        1 8PP     -0.181143
     47 C46        16.7450    2.2540    0.4030 c3        1 8PP     -0.178000
     48 H3        -12.3960   -3.4000   -4.4070 ha        1 8PP      0.139000
     49 H4        -12.9260   -1.2080   -5.1020 ha        1 8PP      0.132500
     50 HO        -13.2840   -4.8590   -9.1980 ho        1 8PP      0.218000
     51 H5        -13.3170   -0.7580   -7.3840 ha        1 8PP      0.132500
     52 H6        -13.1750   -2.5050   -8.9670 ha        1 8PP      0.132000
     53 H71       -12.4020   -6.2780   -6.5600 hc        1 8PP      0.106000
     54 H72       -12.8460   -5.8730   -5.0770 hc        1 8PP      0.106000
     55 H8        -10.1130   -5.1770   -5.6400 ha        1 8PP      0.127000
     56 H101      -12.2230   -7.3510   -3.5680 ha        1 8PP      0.080667
     57 H102      -11.1070   -8.4920   -3.4560 ha        1 8PP      0.080667
     58 H103      -11.9010   -8.2820   -4.8320 ha        1 8PP      0.080667
     59 H111       -8.4660   -6.2580   -4.4000 hc        1 8PP      0.086000
     60 H112       -8.6470   -7.8450   -4.3510 hc        1 8PP      0.086000
     61 H121       -9.0920   -7.8480   -2.1530 hc        1 8PP      0.089000
     62 H122       -9.6660   -6.3600   -2.1800 hc        1 8PP      0.089000
     63 H13        -6.9160   -6.1850   -2.7120 ha        1 8PP      0.123000
     64 H151       -8.4800   -7.5670    0.3560 ha        1 8PP      0.080667
     65 H152       -9.2490   -6.1990    0.0250 ha        1 8PP      0.080667
     66 H153       -8.1300   -6.2340    1.1660 ha        1 8PP      0.080667
     67 H161       -5.5650   -6.3330    0.3730 hc        1 8PP      0.085500
     68 H162       -5.3770   -5.6110   -1.0350 hc        1 8PP      0.085500
     69 H171       -6.3650   -3.6690   -0.2690 hc        1 8PP      0.089500
     70 H172       -6.8810   -4.3950    1.0630 hc        1 8PP      0.089500
     71 H18        -4.4300   -4.5540    1.7730 ha        1 8PP      0.123000
     72 H201       -4.2410   -1.0910   -0.4020 ha        1 8PP      0.080667
     73 H202       -5.2140   -2.2630   -0.8990 ha        1 8PP      0.080667
     74 H203       -5.6640   -1.3100    0.3050 ha        1 8PP      0.080667
     75 H211       -2.2130   -2.3280    0.9610 hc        1 8PP      0.085500
     76 H212       -2.7760   -2.9610    2.3230 hc        1 8PP      0.085500
     77 H221       -3.3240   -0.2740    1.4770 hc        1 8PP      0.089500
     78 H222       -3.8300   -0.9100    2.8550 hc        1 8PP      0.089500
     79 H23        -1.0290   -1.1130    2.9070 ha        1 8PP      0.122000
     80 H251       -2.6170    2.5210    3.9390 ha        1 8PP      0.080667
     81 H252       -3.6280    1.2940    3.7540 ha        1 8PP      0.080667
     82 H253       -2.9850    2.0070    2.4720 ha        1 8PP      0.080667
     83 H261        0.2840    0.4220    4.1590 hc        1 8PP      0.085500
     84 H262       -0.5070    1.4950    5.0450 hc        1 8PP      0.085500
     85 H271       -0.2080    3.1430    3.4080 hc        1 8PP      0.089500
     86 H272        0.3890    2.0830    2.3870 hc        1 8PP      0.089500
     87 H28         2.1700    1.9700    4.4770 ha        1 8PP      0.123000
     88 H301        1.0610    5.2240    3.0250 ha        1 8PP      0.080667
     89 H302        1.4070    4.2710    1.7880 ha        1 8PP      0.080667
     90 H303        2.4490    5.3930    2.2470 ha        1 8PP      0.080667
     91 H311        3.8500    4.8630    4.5660 hc        1 8PP      0.085500
     92 H312        4.1310    3.2940    4.6170 hc        1 8PP      0.085500
     93 H321        4.4320    4.6980    2.1490 hc        1 8PP      0.090000
     94 H322        5.0720    3.2820    2.5230 hc        1 8PP      0.090000
     95 H33         6.1940    5.2150    4.2630 ha        1 8PP      0.121000
     96 H351        6.3120    4.8910    0.6300 ha        1 8PP      0.080667
     97 H352        7.9120    4.8070    0.5580 ha        1 8PP      0.080667
     98 H353        7.0660    3.5490    1.0720 ha        1 8PP      0.080667
     99 H361        8.5630    5.6570    3.9330 hc        1 8PP      0.085000
    100 H362        8.4420    6.6980    2.7290 hc        1 8PP      0.085000
    101 H371        9.4320    4.3910    1.6850 hc        1 8PP      0.089000
    102 H372       10.3170    4.7370    2.9630 hc        1 8PP      0.089000
    103 H38        10.0410    7.0200    1.2470 ha        1 8PP      0.124000
    104 H401       12.2460    3.9540    0.7100 ha        1 8PP      0.085500
    105 H402       12.1570    4.3180    2.2660 ha        1 8PP      0.085500
    106 H411       11.8800    7.5910   -0.1720 hc        1 8PP      0.079000
    107 H412       13.0690    6.5540   -0.4400 hc        1 8PP      0.079000
    108 H413       13.1070    7.5060    0.8500 hc        1 8PP      0.079000
    109 H421       14.2290    5.6330    0.9030 hc        1 8PP      0.089000
    110 H422       14.2810    4.9680    2.3570 hc        1 8PP      0.089000
    111 H43        14.1750    2.9330    0.3860 ha        1 8PP      0.122000
    112 H451       17.8060    4.3250    1.6330 ha        1 8PP      0.080667
    113 H452       16.6720    5.4090    1.3020 ha        1 8PP      0.080667
    114 H453       16.5890    4.5520    2.6500 ha        1 8PP      0.080667
    115 H461       16.6880    2.2790   -0.5750 hc        1 8PP      0.079333
    116 H462       16.3110    1.4410    0.7340 hc        1 8PP      0.079333
    117 H463       17.6880    2.2560    0.6770 hc        1 8PP      0.079333
@<TRIPOS>BOND
     1    1    5 1   
     2    1    7 1   
     3    2    3 1   
     4    2    8 1   
     5    3   48 1   
     6    4    6 1   
     7    4   49 1   
     8    5   50 1   
     9    6   51 1   
    10    7   52 1   
    11    8    9 1   
    12    8   53 1   
    13    8   54 1   
    14    9   10 1   
    15    9   55 1   
    16   10   12 1   
    17   11   56 1   
    18   11   57 1   
    19   11   58 1   
    20   12   13 1   
    21   12   59 1   
    22   12   60 1   
    23   13   14 1   
    24   13   61 1   
    25   13   62 1   
    26   14   15 1   
    27   14   63 1   
    28   15   17 1   
    29   16   64 1   
    30   16   65 1   
    31   16   66 1   
    32   17   18 1   
    33   17   67 1   
    34   17   68 1   
    35   18   19 1   
    36   18   69 1   
    37   18   70 1   
    38   19   20 1   
    39   19   71 1   
    40   20   22 1   
    41   21   72 1   
    42   21   73 1   
    43   21   74 1   
    44   22   23 1   
    45   22   75 1   
    46   22   76 1   
    47   23   24 1   
    48   23   77 1   
    49   23   78 1   
    50   24   25 1   
    51   24   79 1   
    52   25   27 1   
    53   26   80 1   
    54   26   81 1   
    55   26   82 1   
    56   27   28 1   
    57   27   83 1   
    58   27   84 1   
    59   28   29 1   
    60   28   85 1   
    61   28   86 1   
    62   29   30 1   
    63   29   87 1   
    64   30   32 1   
    65   31   88 1   
    66   31   89 1   
    67   31   90 1   
    68   32   33 1   
    69   32   91 1   
    70   32   92 1   
    71   33   34 1   
    72   33   93 1   
    73   33   94 1   
    74   34   35 1   
    75   34   95 1   
    76   35   37 1   
    77   36   96 1   
    78   36   97 1   
    79   36   98 1   
    80   37   38 1   
    81   37   99 1   
    82   37  100 1   
    83   38   39 1   
    84   38  101 1   
    85   38  102 1   
    86   39   40 1   
    87   39  103 1   
    88   40   42 1   
    89   41   43 1   
    90   41  104 1   
    91   41  105 1   
    92   42  106 1   
    93   42  107 1   
    94   42  108 1   
    95   43   44 1   
    96   43  109 1   
    97   43  110 1   
    98   44   45 1   
    99   44  111 1   
   100   45   47 1   
   101   46  112 1   
   102   46  113 1   
   103   46  114 1   
   104   47  115 1   
   105   47  116 1   
   106   47  117 1   
@<TRIPOS>SUBSTRUCTURE
     1 8PP         1 TEMP              0 ****  ****    0 ROOT
