@<TRIPOS>MOLECULE
8PP
  117   117     1     0     0
SMALL
bcc


@<TRIPOS>ATOM
      1 C1          1.3500   -0.0500  -14.8240 ca        1 8PP      0.133100
      2 C2          0.2810   -0.9590  -14.9450 ca        1 8PP     -0.156300
      3 C3          0.5120   -2.1700  -15.6070 ca        1 8PP     -0.092000
      4 C4          1.7630   -2.4680  -16.1400 ca        1 8PP     -0.165000
      5 O           1.2360    1.1740  -14.2060 oh        1 8PP     -0.504100
      6 C5          2.8110   -1.5530  -16.0200 ca        1 8PP     -0.099000
      7 C6          2.6150   -0.3440  -15.3630 ca        1 8PP     -0.158000
      8 C7         -1.0750   -0.6390  -14.4170 c3        1 8PP     -0.006900
      9 C8         -1.1140   -0.6100  -12.9330 c2        1 8PP     -0.188200
     10 C9         -1.7260    0.3340  -12.1990 c2        1 8PP     -0.117400
     11 C10        -2.4290    1.4950  -12.7980 c3        1 8PP     -0.064900
     12 C11        -1.7440    0.2520  -10.7100 c3        1 8PP     -0.042200
     13 C12        -0.8540    1.3090  -10.0800 c3        1 8PP     -0.044200
     14 C13        -0.9020    1.2620   -8.6010 c2        1 8PP     -0.177200
     15 C14        -0.0870    1.9840   -7.8120 c2        1 8PP     -0.119400
     16 C15         0.9450    2.8920   -8.3670 c3        1 8PP     -0.060900
     17 C16        -0.1860    1.9160   -6.3270 c3        1 8PP     -0.039200
     18 C17         1.0320    1.2470   -5.7150 c3        1 8PP     -0.043200
     19 C18         0.9680    1.2230   -4.2360 c2        1 8PP     -0.174200
     20 C19         1.8500    0.5620   -3.4680 c2        1 8PP     -0.123400
     21 C20         2.9710   -0.2160   -4.0480 c3        1 8PP     -0.059900
     22 C21         1.7540    0.5840   -1.9810 c3        1 8PP     -0.038200
     23 C22         1.3730   -0.7760   -1.4250 c3        1 8PP     -0.044200
     24 C23         1.3280   -0.7780    0.0560 c2        1 8PP     -0.173200
     25 C24         0.8760   -1.8140    0.7810 c2        1 8PP     -0.124400
     26 C25         0.3710   -3.0570    0.1490 c3        1 8PP     -0.058900
     27 C26         0.8680   -1.7750    2.2710 c3        1 8PP     -0.038200
     28 C27        -0.5460   -1.7280    2.8220 c3        1 8PP     -0.044200
     29 C28        -0.5650   -1.7440    4.3030 c2        1 8PP     -0.173200
     30 C29        -1.6800   -1.5630    5.0290 c2        1 8PP     -0.124400
     31 C30        -3.0000   -1.3200    4.4000 c3        1 8PP     -0.058900
     32 C31        -1.6510   -1.6060    6.5190 c3        1 8PP     -0.038200
     33 C32        -1.9220   -0.2400    7.1240 c3        1 8PP     -0.044200
     34 C33        -1.9500   -0.2840    8.6040 c2        1 8PP     -0.174200
     35 C34        -2.0250    0.8130    9.3760 c2        1 8PP     -0.124400
     36 C35        -2.0790    2.1780    8.8000 c3        1 8PP     -0.058900
     37 C36        -2.0690    0.7160   10.8620 c3        1 8PP     -0.038200
     38 C37        -0.8010    1.2590   11.4960 c3        1 8PP     -0.043200
     39 C38        -0.8580    1.2160   12.9760 c2        1 8PP     -0.174200
     40 C39         0.1910    1.5030   13.7640 c2        1 8PP     -0.123400
     41 C40         0.0790    1.4630   15.2500 c3        1 8PP     -0.038200
     42 C41         1.5130    1.8830   13.2110 c3        1 8PP     -0.058900
     43 C42         0.8880    0.3230   15.8430 c3        1 8PP     -0.043200
     44 C43         0.8270    0.3090   17.3220 c2        1 8PP     -0.177200
     45 C44         1.3590   -0.6680   18.0740 c2        1 8PP     -0.124400
     46 C45         1.2830   -0.6450   19.5550 c3        1 8PP     -0.057900
     47 C46         2.0530   -1.8350   17.4780 c3        1 8PP     -0.057900
     48 H3         -0.3100   -2.8950  -15.7080 ha        1 8PP      0.131000
     49 H4          1.9260   -3.4240  -16.6570 ha        1 8PP      0.133000
     50 HO          0.3990    1.1900  -13.7160 ho        1 8PP      0.427000
     51 H5          3.7980   -1.7880  -16.4450 ha        1 8PP      0.133000
     52 H6          3.4270    0.3890  -15.2570 ha        1 8PP      0.149000
     53 H71        -1.8110   -1.4150  -14.7710 hc        1 8PP      0.057700
     54 H72        -1.4100    0.3450  -14.8480 hc        1 8PP      0.057700
     55 H8         -0.6030   -1.4550  -12.4410 ha        1 8PP      0.133000
     56 H101       -3.2360    1.1490  -13.4920 hc        1 8PP      0.044033
     57 H102       -2.8970    2.1350  -12.0110 hc        1 8PP      0.044033
     58 H103       -1.7150    2.1280  -13.3830 hc        1 8PP      0.044033
     59 H111       -1.4070   -0.7630  -10.3690 hc        1 8PP      0.049200
     60 H112       -2.8000    0.3880  -10.3500 hc        1 8PP      0.049200
     61 H121       -1.1760    2.3290  -10.4320 hc        1 8PP      0.051200
     62 H122        0.2040    1.1650  -10.4310 hc        1 8PP      0.051200
     63 H13        -1.6590    0.5940   -8.1600 ha        1 8PP      0.123000
     64 H151        0.5050    3.5500   -9.1580 hc        1 8PP      0.042700
     65 H152        1.3880    3.5400   -7.5720 hc        1 8PP      0.042700
     66 H153        1.7690    2.2960   -8.8360 hc        1 8PP      0.042700
     67 H161       -1.1080    1.3540   -6.0200 hc        1 8PP      0.046200
     68 H162       -0.2820    2.9590   -5.9200 hc        1 8PP      0.046200
     69 H171        1.9620    1.7920   -6.0410 hc        1 8PP      0.050700
     70 H172        1.1200    0.1970   -6.1080 hc        1 8PP      0.050700
     71 H18         0.1430    1.7920   -3.7770 ha        1 8PP      0.122000
     72 H201        3.5200    0.3950   -4.8090 hc        1 8PP      0.041700
     73 H202        3.6970   -0.5350   -3.2610 hc        1 8PP      0.041700
     74 H203        2.5800   -1.1320   -4.5590 hc        1 8PP      0.041700
     75 H211        0.9980    1.3440   -1.6480 hc        1 8PP      0.046200
     76 H212        2.7470    0.8960   -1.5560 hc        1 8PP      0.046200
     77 H221        2.1140   -1.5460   -1.7780 hc        1 8PP      0.050200
     78 H222        0.3710   -1.0810   -1.8350 hc        1 8PP      0.050200
     79 H23         1.6960    0.1350    0.5530 ha        1 8PP      0.123000
     80 H251        1.0920   -3.4240   -0.6250 hc        1 8PP      0.041367
     81 H252        0.2190   -3.8660    0.9040 hc        1 8PP      0.041367
     82 H253       -0.6080   -2.8600   -0.3590 hc        1 8PP      0.041367
     83 H261        1.4380   -0.8810    2.6420 hc        1 8PP      0.046200
     84 H262        1.3920   -2.6880    2.6630 hc        1 8PP      0.046200
     85 H271       -1.1290   -2.6070    2.4300 hc        1 8PP      0.050200
     86 H272       -1.0640   -0.8030    2.4450 hc        1 8PP      0.050200
     87 H28         0.4040   -1.9200    4.7980 ha        1 8PP      0.123000
     88 H301       -3.1930   -2.0710    3.5930 hc        1 8PP      0.041367
     89 H302       -3.8270   -1.3830    5.1490 hc        1 8PP      0.041367
     90 H303       -3.0230   -0.3020    3.9340 hc        1 8PP      0.041367
     91 H311       -0.6550   -1.9780    6.8810 hc        1 8PP      0.045700
     92 H312       -2.4270   -2.3340    6.8780 hc        1 8PP      0.045700
     93 H321       -2.9070    0.1490    6.7430 hc        1 8PP      0.050200
     94 H322       -1.1350    0.4860    6.7810 hc        1 8PP      0.050200
     95 H33        -1.9090   -1.2870    9.0600 ha        1 8PP      0.123000
     96 H351       -2.8510    2.2320    7.9910 hc        1 8PP      0.041367
     97 H352       -2.3290    2.9400    9.5790 hc        1 8PP      0.041367
     98 H353       -1.0900    2.4460    8.3500 hc        1 8PP      0.041367
     99 H361       -2.2120   -0.3520   11.1810 hc        1 8PP      0.045700
    100 H362       -2.9540    1.2960   11.2400 hc        1 8PP      0.045700
    101 H371       -0.6390    2.3210   11.1580 hc        1 8PP      0.050200
    102 H372        0.0840    0.6670   11.1330 hc        1 8PP      0.050200
    103 H38        -1.8280    0.9340   13.4150 ha        1 8PP      0.123000
    104 H401       -0.9950    1.3520   15.5590 hc        1 8PP      0.045700
    105 H402        0.4450    2.4390   15.6700 hc        1 8PP      0.045700
    106 H411        1.3970    2.6790   12.4330 hc        1 8PP      0.041367
    107 H412        2.1960    2.2640   14.0090 hc        1 8PP      0.041367
    108 H413        1.9960    0.9960   12.7260 hc        1 8PP      0.041367
    109 H421        1.9600    0.4140   15.5120 hc        1 8PP      0.049700
    110 H422        0.5080   -0.6560   15.4390 hc        1 8PP      0.049700
    111 H43         0.3140    1.1620   17.7950 ha        1 8PP      0.122000
    112 H451        0.7710   -1.5680   19.9270 hc        1 8PP      0.040533
    113 H452        2.3130   -0.6180   19.9910 hc        1 8PP      0.040533
    114 H453        0.7190    0.2450   19.9260 hc        1 8PP      0.040533
    115 H461        2.8410   -1.4960   16.7590 hc        1 8PP      0.040533
    116 H462        2.5370   -2.4650   18.2630 hc        1 8PP      0.040533
    117 H463        1.3240   -2.4690   16.9130 hc        1 8PP      0.040533
@<TRIPOS>BOND
     1    1    2 ar  
     2    1    5 1   
     3    1    7 ar  
     4    2    3 ar  
     5    2    8 1   
     6    3    4 ar  
     7    3   48 1   
     8    4    6 ar  
     9    4   49 1   
    10    5   50 1   
    11    6    7 ar  
    12    6   51 1   
    13    7   52 1   
    14    8    9 1   
    15    8   53 1   
    16    8   54 1   
    17    9   10 2   
    18    9   55 1   
    19   10   11 1   
    20   10   12 1   
    21   11   56 1   
    22   11   57 1   
    23   11   58 1   
    24   12   13 1   
    25   12   59 1   
    26   12   60 1   
    27   13   14 1   
    28   13   61 1   
    29   13   62 1   
    30   14   15 2   
    31   14   63 1   
    32   15   16 1   
    33   15   17 1   
    34   16   64 1   
    35   16   65 1   
    36   16   66 1   
    37   17   18 1   
    38   17   67 1   
    39   17   68 1   
    40   18   19 1   
    41   18   69 1   
    42   18   70 1   
    43   19   20 2   
    44   19   71 1   
    45   20   21 1   
    46   20   22 1   
    47   21   72 1   
    48   21   73 1   
    49   21   74 1   
    50   22   23 1   
    51   22   75 1   
    52   22   76 1   
    53   23   24 1   
    54   23   77 1   
    55   23   78 1   
    56   24   25 2   
    57   24   79 1   
    58   25   26 1   
    59   25   27 1   
    60   26   80 1   
    61   26   81 1   
    62   26   82 1   
    63   27   28 1   
    64   27   83 1   
    65   27   84 1   
    66   28   29 1   
    67   28   85 1   
    68   28   86 1   
    69   29   30 2   
    70   29   87 1   
    71   30   31 1   
    72   30   32 1   
    73   31   88 1   
    74   31   89 1   
    75   31   90 1   
    76   32   33 1   
    77   32   91 1   
    78   32   92 1   
    79   33   34 1   
    80   33   93 1   
    81   33   94 1   
    82   34   35 2   
    83   34   95 1   
    84   35   36 1   
    85   35   37 1   
    86   36   96 1   
    87   36   97 1   
    88   36   98 1   
    89   37   38 1   
    90   37   99 1   
    91   37  100 1   
    92   38   39 1   
    93   38  101 1   
    94   38  102 1   
    95   39   40 2   
    96   39  103 1   
    97   40   41 1   
    98   40   42 1   
    99   41   43 1   
   100   41  104 1   
   101   41  105 1   
   102   42  106 1   
   103   42  107 1   
   104   42  108 1   
   105   43   44 1   
   106   43  109 1   
   107   43  110 1   
   108   44   45 2   
   109   44  111 1   
   110   45   46 1   
   111   45   47 1   
   112   46  112 1   
   113   46  113 1   
   114   46  114 1   
   115   47  115 1   
   116   47  116 1   
   117   47  117 1   
@<TRIPOS>SUBSTRUCTURE
     1 8PP         1 TEMP              0 ****  ****    0 ROOT
