@<TRIPOS>MOLECULE
8PP
  117   117     1     0     0
SMALL
bcc


@<TRIPOS>ATOM
      1 C1          1.2810    1.4400   -0.1160 ca        1 8PP      0.125100
      2 C2          0.1220    0.7110   -0.4510 ca        1 8PP     -0.092300
      3 C3         -0.4930    0.9780   -1.6770 ca        1 8PP     -0.098000
      4 C4          0.0220    1.9380   -2.5480 ca        1 8PP     -0.161000
      5 O           1.8720    1.1630    1.0980 oh        1 8PP     -0.501100
      6 C5          1.1680    2.6520   -2.2010 ca        1 8PP     -0.095000
      7 C6          1.8020    2.4090   -0.9860 ca        1 8PP     -0.211000
      8 C7         -0.4430   -0.3110    0.4740 c3        1 8PP      0.003100
      9 C8         -0.1510   -1.6920    0.0120 c2        1 8PP     -0.173200
     10 C9          0.6840   -2.5500    0.6180 c2        1 8PP     -0.107400
     11 C10         1.4500   -2.2110    1.8420 c3        1 8PP     -0.066900
     12 C11         0.8740   -3.9340    0.0910 c3        1 8PP     -0.041200
     13 C12         2.1800   -4.0650   -0.6720 c3        1 8PP     -0.044200
     14 C13         2.3930   -5.4420   -1.1750 c2        1 8PP     -0.172200
     15 C14         3.3890   -5.7790   -2.0100 c2        1 8PP     -0.125400
     16 C15         4.3680   -4.7830   -2.5100 c3        1 8PP     -0.058900
     17 C16         3.5730   -7.1830   -2.4740 c3        1 8PP     -0.038200
     18 C17         3.2760   -7.3260   -3.9560 c3        1 8PP     -0.044200
     19 C18         3.5090   -8.7070   -4.4390 c2        1 8PP     -0.173200
     20 C19         3.1810   -9.1240   -5.6730 c2        1 8PP     -0.124400
     21 C20         2.5420   -8.2260   -6.6640 c3        1 8PP     -0.058900
     22 C21         3.4520  -10.5200   -6.1170 c3        1 8PP     -0.038200
     23 C22         2.1670  -11.3060   -6.3110 c3        1 8PP     -0.044200
     24 C23         2.4240  -12.6780   -6.8060 c2        1 8PP     -0.173200
     25 C24         1.4690  -13.6150   -6.9170 c2        1 8PP     -0.124400
     26 C25         0.0590  -13.3510   -6.5400 c3        1 8PP     -0.058900
     27 C26         1.7740  -14.9770   -7.4380 c3        1 8PP     -0.038200
     28 C27         1.6480  -16.0330   -6.3540 c3        1 8PP     -0.044200
     29 C28         1.8970  -17.3970   -6.8750 c2        1 8PP     -0.173200
     30 C29         1.9900  -18.4830   -6.0900 c2        1 8PP     -0.124400
     31 C30         1.8570  -18.4020   -4.6160 c3        1 8PP     -0.058900
     32 C31         2.2240  -19.8380   -6.6650 c3        1 8PP     -0.038200
     33 C32         3.5990  -20.3700   -6.3030 c3        1 8PP     -0.044200
     34 C33         3.8200  -21.7390   -6.8230 c2        1 8PP     -0.173200
     35 C34         5.0030  -22.3710   -6.7640 c2        1 8PP     -0.124400
     36 C35         6.2060  -21.7370   -6.1710 c3        1 8PP     -0.058900
     37 C36         5.1700  -23.7570   -7.2860 c3        1 8PP     -0.038200
     38 C37         6.0520  -23.7870   -8.5220 c3        1 8PP     -0.044200
     39 C38         6.2680  -25.1660   -9.0160 c2        1 8PP     -0.174200
     40 C39         6.8870  -25.4490  -10.1740 c2        1 8PP     -0.123400
     41 C40         7.0970  -26.8560  -10.6190 c3        1 8PP     -0.038200
     42 C41         7.4040  -24.3870  -11.0700 c3        1 8PP     -0.058900
     43 C42         6.2590  -27.1880  -11.8410 c3        1 8PP     -0.043200
     44 C43         6.5030  -28.5660  -12.3240 c2        1 8PP     -0.177200
     45 C44         5.7960  -29.1380  -13.3120 c2        1 8PP     -0.124400
     46 C45         6.0730  -30.5200  -13.7730 c3        1 8PP     -0.057900
     47 C46         4.6930  -28.4310  -14.0060 c3        1 8PP     -0.057900
     48 H3         -1.3980    0.4150   -1.9540 ha        1 8PP      0.134000
     49 H4         -0.4780    2.1310   -3.5070 ha        1 8PP      0.133000
     50 HO          2.6380    1.7470    1.1950 ho        1 8PP      0.418000
     51 H5          1.5750    3.4100   -2.8870 ha        1 8PP      0.132000
     52 H6          2.7060    2.9690   -0.7080 ha        1 8PP      0.132000
     53 H71        -1.5600   -0.1810    0.5240 hc        1 8PP      0.059700
     54 H72        -0.0440   -0.1430    1.5120 hc        1 8PP      0.059700
     55 H8         -0.6850   -1.9900   -0.9060 ha        1 8PP      0.118000
     56 H101        2.2830   -2.9380    2.0090 hc        1 8PP      0.046367
     57 H102        0.7770   -2.2390    2.7360 hc        1 8PP      0.046367
     58 H103        1.8890   -1.1830    1.7660 hc        1 8PP      0.046367
     59 H111        0.0230   -4.2130   -0.5860 hc        1 8PP      0.045200
     60 H112        0.8680   -4.6580    0.9490 hc        1 8PP      0.045200
     61 H121        2.1860   -3.3410   -1.5320 hc        1 8PP      0.051700
     62 H122        3.0370   -3.7770   -0.0020 hc        1 8PP      0.051700
     63 H13         1.6780   -6.2030   -0.8210 ha        1 8PP      0.122000
     64 H151        3.8720   -4.0860   -3.2320 hc        1 8PP      0.041367
     65 H152        4.7720   -4.1720   -1.6640 hc        1 8PP      0.041367
     66 H153        5.2240   -5.2780   -3.0300 hc        1 8PP      0.041367
     67 H161        2.9050   -7.8770   -1.8970 hc        1 8PP      0.045700
     68 H162        4.6320   -7.4990   -2.2730 hc        1 8PP      0.045700
     69 H171        2.2100   -7.0290   -4.1560 hc        1 8PP      0.050200
     70 H172        3.9240   -6.6120   -4.5370 hc        1 8PP      0.050200
     71 H18         3.9810   -9.3980   -3.7210 ha        1 8PP      0.122000
     72 H201        1.4900   -7.9980   -6.3560 hc        1 8PP      0.041033
     73 H202        3.0980   -7.2560   -6.7300 hc        1 8PP      0.041033
     74 H203        2.5190   -8.6900   -7.6800 hc        1 8PP      0.041033
     75 H211        4.0990  -11.0510   -5.3690 hc        1 8PP      0.045700
     76 H212        4.0210  -10.4910   -7.0860 hc        1 8PP      0.045700
     77 H221        1.5040  -10.7630   -7.0410 hc        1 8PP      0.050200
     78 H222        1.6050  -11.3520   -5.3380 hc        1 8PP      0.050200
     79 H23         3.4650  -12.9030   -7.0920 ha        1 8PP      0.122000
     80 H251       -0.0300  -13.2540   -5.4280 hc        1 8PP      0.041367
     81 H252       -0.2970  -12.3940   -6.9990 hc        1 8PP      0.041367
     82 H253       -0.6150  -14.1770   -6.8770 hc        1 8PP      0.041367
     83 H261        1.0640  -15.2160   -8.2760 hc        1 8PP      0.045700
     84 H262        2.8120  -15.0100   -7.8650 hc        1 8PP      0.045700
     85 H271        2.3720  -15.8060   -5.5240 hc        1 8PP      0.050200
     86 H272        0.6180  -15.9860   -5.9050 hc        1 8PP      0.050200
     87 H28         2.0030  -17.4860   -7.9690 ha        1 8PP      0.122000
     88 H301        2.7500  -17.8890   -4.1760 hc        1 8PP      0.041367
     89 H302        0.9480  -17.8120   -4.3360 hc        1 8PP      0.041367
     90 H303        1.7740  -19.4180   -4.1570 hc        1 8PP      0.041367
     91 H311        1.4370  -20.5400   -6.2750 hc        1 8PP      0.045700
     92 H312        2.1210  -19.8130   -7.7820 hc        1 8PP      0.045700
     93 H321        3.7170  -20.3720   -5.1830 hc        1 8PP      0.050200
     94 H322        4.3870  -19.6780   -6.7090 hc        1 8PP      0.050200
     95 H33         2.9430  -22.2340   -7.2720 ha        1 8PP      0.123000
     96 H351        6.5710  -20.9110   -6.8330 hc        1 8PP      0.041367
     97 H352        5.9630  -21.2960   -5.1720 hc        1 8PP      0.041367
     98 H353        7.0340  -22.4760   -6.0410 hc        1 8PP      0.041367
     99 H361        4.1710  -24.2050   -7.5350 hc        1 8PP      0.045700
    100 H362        5.6300  -24.3960   -6.4840 hc        1 8PP      0.045700
    101 H371        7.0450  -23.3140   -8.2840 hc        1 8PP      0.050200
    102 H372        5.5830  -23.1630   -9.3320 hc        1 8PP      0.050200
    103 H38         5.8910  -25.9770   -8.3700 ha        1 8PP      0.123000
    104 H401        6.8420  -27.5710   -9.7920 hc        1 8PP      0.045700
    105 H402        8.1850  -27.0040  -10.8610 hc        1 8PP      0.045700
    106 H411        6.5530  -23.8380  -11.5470 hc        1 8PP      0.041367
    107 H412        8.0470  -24.8130  -11.8790 hc        1 8PP      0.041367
    108 H413        8.0090  -23.6450  -10.4900 hc        1 8PP      0.041367
    109 H421        6.4900  -26.4550  -12.6630 hc        1 8PP      0.049700
    110 H422        5.1690  -27.0600  -11.5930 hc        1 8PP      0.049700
    111 H43         7.3150  -29.1190  -11.8250 ha        1 8PP      0.122000
    112 H451        6.8930  -30.9960  -13.1820 hc        1 8PP      0.040533
    113 H452        5.1530  -31.1490  -13.6710 hc        1 8PP      0.040533
    114 H453        6.3720  -30.5120  -14.8510 hc        1 8PP      0.040533
    115 H461        4.3190  -29.0190  -14.8790 hc        1 8PP      0.040533
    116 H462        3.8400  -28.2630  -13.3010 hc        1 8PP      0.040533
    117 H463        5.0370  -27.4310  -14.3720 hc        1 8PP      0.040533
@<TRIPOS>BOND
     1    1    2 ar  
     2    1    5 1   
     3    1    7 ar  
     4    2    3 ar  
     5    2    8 1   
     6    3    4 ar  
     7    3   48 1   
     8    4    6 ar  
     9    4   49 1   
    10    5   50 1   
    11    6    7 ar  
    12    6   51 1   
    13    7   52 1   
    14    8    9 1   
    15    8   53 1   
    16    8   54 1   
    17    9   10 2   
    18    9   55 1   
    19   10   11 1   
    20   10   12 1   
    21   11   56 1   
    22   11   57 1   
    23   11   58 1   
    24   12   13 1   
    25   12   59 1   
    26   12   60 1   
    27   13   14 1   
    28   13   61 1   
    29   13   62 1   
    30   14   15 2   
    31   14   63 1   
    32   15   16 1   
    33   15   17 1   
    34   16   64 1   
    35   16   65 1   
    36   16   66 1   
    37   17   18 1   
    38   17   67 1   
    39   17   68 1   
    40   18   19 1   
    41   18   69 1   
    42   18   70 1   
    43   19   20 2   
    44   19   71 1   
    45   20   21 1   
    46   20   22 1   
    47   21   72 1   
    48   21   73 1   
    49   21   74 1   
    50   22   23 1   
    51   22   75 1   
    52   22   76 1   
    53   23   24 1   
    54   23   77 1   
    55   23   78 1   
    56   24   25 2   
    57   24   79 1   
    58   25   26 1   
    59   25   27 1   
    60   26   80 1   
    61   26   81 1   
    62   26   82 1   
    63   27   28 1   
    64   27   83 1   
    65   27   84 1   
    66   28   29 1   
    67   28   85 1   
    68   28   86 1   
    69   29   30 2   
    70   29   87 1   
    71   30   31 1   
    72   30   32 1   
    73   31   88 1   
    74   31   89 1   
    75   31   90 1   
    76   32   33 1   
    77   32   91 1   
    78   32   92 1   
    79   33   34 1   
    80   33   93 1   
    81   33   94 1   
    82   34   35 2   
    83   34   95 1   
    84   35   36 1   
    85   35   37 1   
    86   36   96 1   
    87   36   97 1   
    88   36   98 1   
    89   37   38 1   
    90   37   99 1   
    91   37  100 1   
    92   38   39 1   
    93   38  101 1   
    94   38  102 1   
    95   39   40 2   
    96   39  103 1   
    97   40   41 1   
    98   40   42 1   
    99   41   43 1   
   100   41  104 1   
   101   41  105 1   
   102   42  106 1   
   103   42  107 1   
   104   42  108 1   
   105   43   44 1   
   106   43  109 1   
   107   43  110 1   
   108   44   45 2   
   109   44  111 1   
   110   45   46 1   
   111   45   47 1   
   112   46  112 1   
   113   46  113 1   
   114   46  114 1   
   115   47  115 1   
   116   47  116 1   
   117   47  117 1   
@<TRIPOS>SUBSTRUCTURE
     1 8PP         1 TEMP              0 ****  ****    0 ROOT
