@<TRIPOS>MOLECULE
8PR
   44    47     1     0     0
SMALL
bcc


@<TRIPOS>ATOM
      1 FAA        -0.0250   -0.2520   -0.0560 f         1 8PR     -0.139900
      2 CAB         2.3650   -0.2820   -0.0230 ca        1 8PR     -0.163500
      3 CAC         1.0970   -0.0330    2.0450 ca        1 8PR     -0.163500
      4 CAD         4.8760    5.0300    1.5640 ca        1 8PR     -0.214000
      5 CAE         3.5470   -0.2160    0.7080 ca        1 8PR     -0.102500
      6 CAF         2.2900    0.0290    2.7560 ca        1 8PR     -0.102500
      7 CAG         4.8140    6.3120    0.9840 ca        1 8PR     -0.077000
      8 CAH         4.6620    5.9590    3.8450 ca        1 8PR     -0.139000
      9 CAI         6.2010   -1.1680    4.6160 c3        1 8PR      0.160800
     10 CAJ         4.9140   -1.2140    3.7960 c3        1 8PR     -0.071400
     11 CAK         6.2500    1.2520    4.4970 c3        1 8PR      0.164800
     12 CAL         4.4620    9.4290    2.8090 c3        1 8PR      0.322200
     13 CAM         4.9680    2.4910    2.7460 c3        1 8PR      0.127400
     14 NAN         6.3610    0.0780    5.3390 n3        1 8PR     -0.820200
     15 OAO         4.8600    3.6420    3.5930 os        1 8PR     -0.327900
     16 OAP         4.5950    8.7360    1.5490 os        1 8PR     -0.333900
     17 OAQ         4.4730    8.4410    3.8660 os        1 8PR     -0.332900
     18 CAR         1.1310   -0.1900    0.6470 ca        1 8PR      0.123900
     19 CAS         4.8020    4.8630    2.9490 ca        1 8PR      0.132100
     20 CAT         3.5240   -0.0590    2.1000 ca        1 8PR     -0.096300
     21 CAU         4.6800    7.3770    1.8460 ca        1 8PR      0.019100
     22 CAV         4.6050    7.2000    3.2550 ca        1 8PR      0.087100
     23 CAW         4.9530    1.2810    3.6750 c3        1 8PR     -0.062700
     24 CAX         4.8090   -0.0100    2.8650 c3        1 8PR     -0.015400
     25 HAB         2.3850   -0.4060   -1.1150 ha        1 8PR      0.150000
     26 HAC         0.1290    0.0380    2.5610 ha        1 8PR      0.150000
     27 HAE         4.5100   -0.2930    0.1800 ha        1 8PR      0.140000
     28 HAF         2.2600    0.1490    3.8510 ha        1 8PR      0.140000
     29 HAG         4.8710    6.4450   -0.1040 ha        1 8PR      0.155000
     30 HAH         4.6050    5.8000    4.9280 ha        1 8PR      0.171000
     31 HAI         7.0690   -1.3710    3.9210 h1        1 8PR      0.028700
     32 HAIA        6.1760   -1.9970    5.3790 h1        1 8PR      0.028700
     33 HAJ         4.0270   -1.2370    4.4810 hc        1 8PR      0.053700
     34 HAJA        4.9070   -2.1580    3.1920 hc        1 8PR      0.053700
     35 HAK         7.1200    1.3450    3.7810 h1        1 8PR      0.037200
     36 HAKA        6.2610    2.1580    5.1680 h1        1 8PR      0.037200
     37 HAL         5.3450   10.1020    2.9440 h2        1 8PR      0.071700
     38 HALA        3.4760    9.9560    2.8260 h2        1 8PR      0.071700
     39 HAM         5.9230    2.5460    2.1610 h1        1 8PR      0.046200
     40 HAMA        4.0920    2.4550    2.0450 h1        1 8PR      0.046200
     41 HNAN        7.2390    0.0860    5.8230 hn        1 8PR      0.366800
     42 HAW         4.0790    1.3790    4.3780 hc        1 8PR      0.081700
     43 HAX         5.6700   -0.0540    2.1360 hc        1 8PR      0.051700
     44 HAD         4.9820    4.1650    0.8960 ha        1 8PR      0.144000
@<TRIPOS>BOND
     1    1   18 1   
     2    2    5 ar  
     3    2   18 ar  
     4    2   25 1   
     5    3    6 ar  
     6    3   18 ar  
     7    3   26 1   
     8    4    7 ar  
     9    4   19 ar  
    10    4   44 1   
    11    5   20 ar  
    12    5   27 1   
    13    6   20 ar  
    14    6   28 1   
    15    7   21 ar  
    16    7   29 1   
    17    8   19 ar  
    18    8   22 ar  
    19    8   30 1   
    20    9   10 1   
    21    9   14 1   
    22    9   31 1   
    23    9   32 1   
    24   10   24 1   
    25   10   33 1   
    26   10   34 1   
    27   11   14 1   
    28   11   23 1   
    29   11   35 1   
    30   11   36 1   
    31   12   16 1   
    32   12   17 1   
    33   12   37 1   
    34   12   38 1   
    35   13   15 1   
    36   13   23 1   
    37   13   39 1   
    38   13   40 1   
    39   14   41 1   
    40   15   19 1   
    41   16   21 1   
    42   17   22 1   
    43   20   24 1   
    44   21   22 ar  
    45   23   24 1   
    46   23   42 1   
    47   24   43 1   
@<TRIPOS>SUBSTRUCTURE
     1 8PR         1 TEMP              0 ****  ****    0 ROOT
