@<TRIPOS>MOLECULE
8PR
   44    41     1     0     0
SMALL
bcc


@<TRIPOS>ATOM
      1 FAA        -4.9050   -2.3380   -3.0480 f         1 8PR     -0.107100
      2 CAB        -2.7220   -2.3420   -2.8050 c1        1 8PR     -0.082500
      3 CAC        -3.8760   -1.8700   -0.8270 c1        1 8PR     -0.104500
      4 CAD         1.3990    2.8320   -0.8810 c1        1 8PR     -0.082500
      5 CAE        -1.4730   -2.1310   -2.1680 c1        1 8PR     -0.082500
      6 CAF        -2.6400   -1.6600   -0.1950 c1        1 8PR     -0.042500
      7 CAG         1.4700    4.1970   -1.0530 c1        1 8PR     -0.082500
      8 CAH         0.5220    3.1540    1.3300 c1        1 8PR     -0.081500
      9 CAI         1.9720   -3.9570    1.3810 c3        1 8PR      0.161800
     10 CAJ         0.4530   -3.6500    0.2120 c3        1 8PR     -0.078400
     11 CAK         1.6950   -2.0260    1.1540 c3        1 8PR      0.158800
     12 CAL         0.5500    6.8470    1.3530 c3        1 8PR      0.322200
     13 CAM         0.2980    0.2270   -0.2440 c3        1 8PR      0.132400
     14 NAN         1.9940   -3.9450    1.3730 n3        1 8PR     -0.811200
     15 OAO         0.6490    0.9310    0.6890 os        1 8PR     -0.313400
     16 OAP         1.1410    6.5250    0.1490 os        1 8PR     -0.316900
     17 OAQ         0.1990    5.6230    2.0160 os        1 8PR     -0.316900
     18 CAR        -3.9160   -2.1970   -2.0810 c1        1 8PR      0.092100
     19 CAS         0.9270    2.3060    0.3050 c1        1 8PR      0.115600
     20 CAT        -1.4350   -1.8060   -0.9290 c1        1 8PR     -0.061100
     21 CAU         1.0590    5.0570   -0.0140 c1        1 8PR      0.037100
     22 CAV         0.5900    4.5280    1.1670 c1        1 8PR      0.037100
     23 CAW         0.2830   -1.6930    0.3200 c3        1 8PR     -0.093700
     24 CAX         0.2510   -2.0300   -0.1790 c3        1 8PR     -0.047600
     25 HAB        -2.7530   -2.6080   -3.8120 ha        1 8PR      0.088000
     26 HAC        -4.7580   -1.7680   -0.2860 ha        1 8PR      0.092500
     27 HAD         1.6560    2.2940   -1.5270 ha        1 8PR      0.088000
     28 HAE        -0.5690   -2.2390   -2.7140 ha        1 8PR      0.088000
     29 HAF        -2.6090   -1.4220    0.7240 ha        1 8PR      0.081500
     30 HAG         1.7800    4.5360   -1.8240 ha        1 8PR      0.088000
     31 HAH         0.1810    2.7720    2.1890 ha        1 8PR      0.112500
     32 HAI         1.7290   -3.5850    2.4060 h1        1 8PR      0.031200
     33 HAIA        2.1540   -4.9330    1.4200 h1        1 8PR      0.031200
     34 HAJ         0.5930   -4.1510   -0.6120 hc        1 8PR      0.055200
     35 HAJA       -0.4130   -4.0030    0.6780 hc        1 8PR      0.055200
     36 HAK         2.5040   -1.6130    0.6230 h1        1 8PR      0.056200
     37 HAKA        1.6400   -1.5670    2.1200 h1        1 8PR      0.056200
     38 HAL        -0.2290    7.3640    1.2010 h2        1 8PR      0.072700
     39 HALA        1.0640    7.2620    1.8050 h2        1 8PR      0.072700
     40 HAM        -0.5100    0.4640   -0.4990 h1        1 8PR      0.045700
     41 HAMA        0.9840    0.3520   -1.0630 h1        1 8PR      0.045700
     42 HNAN        2.7310   -4.0880    1.9890 hn        1 8PR      0.358800
     43 HAW        -0.5900   -1.8880    0.9630 hc        1 8PR      0.073700
     44 HAX         0.9310   -1.7580   -0.8060 hc        1 8PR      0.053700
@<TRIPOS>BOND
     1    1   18 1   
     2    2    5 3   
     3    2   25 1   
     4    3   18 3   
     5    3   26 1   
     6    4    7 3   
     7    4   27 1   
     8    5   28 1   
     9    6   20 3   
    10    6   29 1   
    11    7   30 1   
    12    8   19 3   
    13    8   31 1   
    14    9   10 1   
    15    9   14 1   
    16    9   32 1   
    17    9   33 1   
    18   10   24 1   
    19   10   34 1   
    20   10   35 1   
    21   11   14 1   
    22   11   23 1   
    23   11   36 1   
    24   11   37 1   
    25   12   16 1   
    26   12   17 1   
    27   12   38 1   
    28   12   39 1   
    29   13   15 1   
    30   13   23 1   
    31   13   40 1   
    32   13   41 1   
    33   14   42 1   
    34   15   19 1   
    35   16   21 1   
    36   17   22 1   
    37   20   24 1   
    38   21   22 3   
    39   23   24 1   
    40   23   43 1   
    41   24   44 1   
@<TRIPOS>SUBSTRUCTURE
     1 8PR         1 TEMP              0 ****  ****    0 ROOT
