@<TRIPOS>MOLECULE
8PR
   44    47     1     0     0
SMALL
bcc


@<TRIPOS>ATOM
      1 FAA        -0.0280   -0.2470   -0.0520 f         1 8PR     -0.139900
      2 CAB         2.3620   -0.2800   -0.0210 ca        1 8PR     -0.163500
      3 CAC         1.0960   -0.0300    2.0470 ca        1 8PR     -0.163500
      4 CAD         4.8780    5.0300    1.5640 ca        1 8PR     -0.214000
      5 CAE         3.5450   -0.2150    0.7090 ca        1 8PR     -0.102500
      6 CAF         2.2900    0.0310    2.7580 ca        1 8PR     -0.102500
      7 CAG         4.8160    6.3120    0.9840 ca        1 8PR     -0.077000
      8 CAH         4.6630    5.9580    3.8450 ca        1 8PR     -0.139000
      9 CAI         6.2010   -1.1700    4.6150 c3        1 8PR      0.160800
     10 CAJ         4.9130   -1.2150    3.7950 c3        1 8PR     -0.071400
     11 CAK         6.2520    1.2500    4.4960 c3        1 8PR      0.164800
     12 CAL         4.4600    9.4290    2.8100 c3        1 8PR      0.322200
     13 CAM         4.9700    2.4900    2.7460 c3        1 8PR      0.127400
     14 NAN         6.3630    0.0760    5.3370 n7        1 8PR     -0.820200
     15 OAO         4.8630    3.6420    3.5930 os        1 8PR     -0.327900
     16 OAP         4.5940    8.7350    1.5490 os        1 8PR     -0.333900
     17 OAQ         4.4710    8.4400    3.8670 os        1 8PR     -0.332900
     18 CAR         1.1290   -0.1860    0.6490 ca        1 8PR      0.123900
     19 CAS         4.8040    4.8630    2.9490 ca        1 8PR      0.132100
     20 CAT         3.5230   -0.0580    2.1000 ca        1 8PR     -0.097300
     21 CAU         4.6800    7.3760    1.8460 ca        1 8PR      0.019100
     22 CAV         4.6050    7.1990    3.2550 ca        1 8PR      0.087100
     23 CAW         4.9550    1.2800    3.6750 c3        1 8PR     -0.062700
     24 CAX         4.8090   -0.0100    2.8650 c3        1 8PR     -0.015400
     25 HAB         2.3810   -0.4040   -1.1130 ha        1 8PR      0.150000
     26 HAC         0.1280    0.0420    2.5640 ha        1 8PR      0.150000
     27 HAE         4.5070   -0.2930    0.1800 ha        1 8PR      0.140000
     28 HAF         2.2610    0.1510    3.8530 ha        1 8PR      0.140000
     29 HAG         4.8720    6.4450   -0.1030 ha        1 8PR      0.155000
     30 HAH         4.6060    5.8000    4.9280 ha        1 8PR      0.171000
     31 HAI         6.1760   -1.9990    5.3770 h1        1 8PR      0.028700
     32 HAIA        7.0690   -1.3730    3.9190 h1        1 8PR      0.028700
     33 HAJ         4.9050   -2.1580    3.1910 hc        1 8PR      0.053700
     34 HAJA        4.0270   -1.2370    4.4810 hc        1 8PR      0.053700
     35 HAK         6.2640    2.1560    5.1670 h1        1 8PR      0.037200
     36 HAKA        7.1220    1.3420    3.7790 h1        1 8PR      0.037200
     37 HAL         5.3410   10.1020    2.9450 h2        1 8PR      0.071700
     38 HALA        3.4730    9.9540    2.8260 h2        1 8PR      0.071700
     39 HAM         5.9250    2.5450    2.1610 h1        1 8PR      0.046200
     40 HAMA        4.0940    2.4550    2.0450 h1        1 8PR      0.046200
     41 HNAN        7.2410    0.0840    5.8210 hn        1 8PR      0.366800
     42 HAW         4.0820    1.3790    4.3780 hc        1 8PR      0.081700
     43 HAX         5.6690   -0.0560    2.1350 hc        1 8PR      0.051700
     44 HAD         4.9860    4.1650    0.8960 ha        1 8PR      0.144000
@<TRIPOS>BOND
     1    1   18 1   
     2    2    5 ar  
     3    2   18 ar  
     4    2   25 1   
     5    3    6 ar  
     6    3   18 ar  
     7    3   26 1   
     8    4    7 ar  
     9    4   19 ar  
    10    4   44 1   
    11    5   20 ar  
    12    5   27 1   
    13    6   20 ar  
    14    6   28 1   
    15    7   21 ar  
    16    7   29 1   
    17    8   19 ar  
    18    8   22 ar  
    19    8   30 1   
    20    9   10 1   
    21    9   14 1   
    22    9   31 1   
    23    9   32 1   
    24   10   24 1   
    25   10   33 1   
    26   10   34 1   
    27   11   14 1   
    28   11   23 1   
    29   11   35 1   
    30   11   36 1   
    31   12   16 1   
    32   12   17 1   
    33   12   37 1   
    34   12   38 1   
    35   13   15 1   
    36   13   23 1   
    37   13   39 1   
    38   13   40 1   
    39   14   41 1   
    40   15   19 1   
    41   16   21 1   
    42   17   22 1   
    43   20   24 1   
    44   21   22 ar  
    45   23   24 1   
    46   23   42 1   
    47   24   43 1   
@<TRIPOS>SUBSTRUCTURE
     1 8PR         1 TEMP              0 ****  ****    0 ROOT
