@<TRIPOS>MOLECULE
8PR
   44    47     1     0     0
SMALL
bcc


@<TRIPOS>ATOM
      1 FAA        -3.8750    4.3410    0.5680 f         1 8PR     -0.139900
      2 CAB        -3.4990    2.5930   -1.0180 ca        1 8PR     -0.163500
      3 CAC        -3.4090    2.1400    1.3750 ca        1 8PR     -0.163500
      4 CAD         2.2100    0.4590   -1.0540 ca        1 8PR     -0.213000
      5 CAE        -3.2140    1.2550   -1.2700 ca        1 8PR     -0.102500
      6 CAF        -3.1250    0.8060    1.1010 ca        1 8PR     -0.102500
      7 CAG         3.4490    1.0700   -1.3260 ca        1 8PR     -0.077000
      8 CAH         3.1310   -0.7350    0.9050 ca        1 8PR     -0.139000
      9 CAI        -3.5830   -3.4460   -0.2770 c3        1 8PR      0.148800
     10 CAJ        -3.8810   -1.9680   -0.0270 c3        1 8PR     -0.109400
     11 CAK        -1.2100   -3.0580   -0.1720 c3        1 8PR      0.152800
     12 CAL         6.4910    0.5960    0.5970 c3        1 8PR      0.322200
     13 CAM        -0.2460   -0.7680   -0.4860 c3        1 8PR      0.132400
     14 NAN        -2.3070   -3.9120    0.2290 n3        1 8PR     -0.796200
     15 OAO         0.8800   -1.0530    0.3560 os        1 8PR     -0.330900
     16 OAP         5.8070    1.2190   -0.5130 os        1 8PR     -0.333900
     17 OAQ         5.5400   -0.2450    1.2920 os        1 8PR     -0.332900
     18 CAR        -3.5980    3.0410    0.3110 ca        1 8PR      0.124900
     19 CAS         2.0590   -0.4140    0.0260 ca        1 8PR      0.132100
     20 CAT        -3.0220    0.3500   -0.2190 ca        1 8PR     -0.097300
     21 CAU         4.4900    0.7640   -0.4790 ca        1 8PR      0.020100
     22 CAV         4.3300   -0.1260    0.6190 ca        1 8PR      0.087100
     23 CAW        -1.4130   -1.5560    0.0970 c3        1 8PR     -0.100700
     24 CAX        -2.7350   -1.0880   -0.5180 c3        1 8PR     -0.013400
     25 HAB        -3.6500    3.3020   -1.8450 ha        1 8PR      0.150500
     26 HAC        -3.4870    2.4970    2.4120 ha        1 8PR      0.150500
     27 HAE        -3.1410    0.9080   -2.3130 ha        1 8PR      0.138000
     28 HAF        -2.9800    0.1040    1.9360 ha        1 8PR      0.138000
     29 HAG         3.5690    1.7570   -2.1730 ha        1 8PR      0.155000
     30 HAH         2.9870   -1.4230    1.7450 ha        1 8PR      0.170000
     31 HAI        -4.3980   -4.0690    0.1860 h1        1 8PR      0.054200
     32 HAIA       -3.5930   -3.6350   -1.3880 h1        1 8PR      0.054200
     33 HAJ        -4.8230   -1.6870   -0.5630 hc        1 8PR      0.050200
     34 HAJA       -4.0480   -1.7900    1.0670 hc        1 8PR      0.050200
     35 HAK        -0.2750   -3.3900    0.3610 h1        1 8PR      0.061700
     36 HAKA       -1.0510   -3.2070   -1.2780 h1        1 8PR      0.061700
     37 HAL         7.3100   -0.0510    0.1960 h2        1 8PR      0.071700
     38 HALA        6.8380    1.3950    1.2980 h2        1 8PR      0.071700
     39 HAM        -0.4620    0.3330   -0.4630 h1        1 8PR      0.047200
     40 HAMA       -0.0190   -1.0910   -1.5360 h1        1 8PR      0.047200
     41 HNAN       -2.3400   -3.9780    1.2310 hn        1 8PR      0.352800
     42 HAW        -1.4380   -1.3830    1.2080 hc        1 8PR      0.068700
     43 HAX        -2.6530   -1.2190   -1.6360 hc        1 8PR      0.056700
     44 HAD         1.3630    0.6890   -1.7160 ha        1 8PR      0.144000
@<TRIPOS>BOND
     1    1   18 1   
     2    2    5 ar  
     3    2   18 ar  
     4    2   25 1   
     5    3    6 ar  
     6    3   18 ar  
     7    3   26 1   
     8    4    7 ar  
     9    4   19 ar  
    10    4   44 1   
    11    5   20 ar  
    12    5   27 1   
    13    6   20 ar  
    14    6   28 1   
    15    7   21 ar  
    16    7   29 1   
    17    8   19 ar  
    18    8   22 ar  
    19    8   30 1   
    20    9   10 1   
    21    9   14 1   
    22    9   31 1   
    23    9   32 1   
    24   10   24 1   
    25   10   33 1   
    26   10   34 1   
    27   11   14 1   
    28   11   23 1   
    29   11   35 1   
    30   11   36 1   
    31   12   16 1   
    32   12   17 1   
    33   12   37 1   
    34   12   38 1   
    35   13   15 1   
    36   13   23 1   
    37   13   39 1   
    38   13   40 1   
    39   14   41 1   
    40   15   19 1   
    41   16   21 1   
    42   17   22 1   
    43   20   24 1   
    44   21   22 ar  
    45   23   24 1   
    46   23   42 1   
    47   24   43 1   
@<TRIPOS>SUBSTRUCTURE
     1 8PR         1 TEMP              0 ****  ****    0 ROOT
