@<TRIPOS>MOLECULE
8PS
   48    49     1     0     0
SMALL
bcc


@<TRIPOS>ATOM
      1 C1          0.0710    0.3160    0.0180 ca        1 8PS     -0.151000
      2 C2          1.4240    0.3070   -0.3270 ca        1 8PS     -0.046300
      3 C3          2.4010    0.5310    0.6540 ca        1 8PS     -0.155000
      4 C4          2.0410    0.7620    1.9770 ca        1 8PS     -0.105000
      5 C5          0.6880    0.7670    2.3280 ca        1 8PS     -0.002900
      6 C6         -0.3030    0.5430    1.3520 ca        1 8PS      0.133100
      7 C8          0.6570    0.2870    4.6470 ca        1 8PS      0.107100
      8 C9          1.1560   -1.0070    4.4670 ca        1 8PS     -0.165500
      9 C10         1.4870   -1.7640    5.5900 ca        1 8PS     -0.103000
     10 C11         1.3200   -1.2390    6.8700 ca        1 8PS     -0.155000
     11 C12         0.8210    0.0550    7.0360 ca        1 8PS     -0.103000
     12 C13         0.4880    0.8320    5.9310 ca        1 8PS     -0.165500
     13 C14         1.8320    0.0740   -1.7400 c3        1 8PS     -0.040100
     14 C15         2.4510   -1.2990   -1.9260 c3        1 8PS     -0.076400
     15 C16         2.8950   -1.5050   -3.3580 c3        1 8PS     -0.080400
     16 C17         3.5100   -2.8750   -3.5490 c3        1 8PS     -0.078400
     17 C18         3.9550   -3.0820   -4.9810 c3        1 8PS     -0.079400
     18 C19         4.5690   -4.4520   -5.1720 c3        1 8PS     -0.079400
     19 C20         5.0160   -4.6610   -6.6040 c3        1 8PS     -0.080400
     20 C21         5.6270   -6.0240   -6.7990 c3        1 8PS     -0.093100
     21 O17        -1.6450    0.5530    1.6370 oh        1 8PS     -0.492100
     22 O7          0.2480    1.1160    3.6040 os        1 8PS     -0.260200
     23 H1         -0.7120    0.1470   -0.7350 ha        1 8PS      0.154000
     24 H3          3.4640    0.5260    0.3700 ha        1 8PS      0.139000
     25 H4          2.8030    0.9380    2.7500 ha        1 8PS      0.149000
     26 H9          1.2880   -1.4150    3.4540 ha        1 8PS      0.149500
     27 H10         1.8790   -2.7840    5.4590 ha        1 8PS      0.135000
     28 H11         1.5820   -1.8430    7.7510 ha        1 8PS      0.134000
     29 H12         0.6910    0.4680    8.0480 ha        1 8PS      0.135000
     30 H13         0.0950    1.8510    6.0440 ha        1 8PS      0.149500
     31 H141        0.9450    0.1760   -2.4200 hc        1 8PS      0.051700
     32 H142        2.5750    0.8610   -2.0430 hc        1 8PS      0.051700
     33 H151        3.3300   -1.4100   -1.2370 hc        1 8PS      0.044700
     34 H152        1.7070   -2.0890   -1.6440 hc        1 8PS      0.044700
     35 H161        3.6410   -0.7160   -3.6390 hc        1 8PS      0.040200
     36 H162        2.0150   -1.3890   -4.0450 hc        1 8PS      0.040200
     37 H171        4.3880   -2.9930   -2.8610 hc        1 8PS      0.040200
     38 H172        2.7630   -3.6650   -3.2690 hc        1 8PS      0.040200
     39 H181        3.0770   -2.9640   -5.6690 hc        1 8PS      0.039700
     40 H182        4.7020   -2.2930   -5.2600 hc        1 8PS      0.039700
     41 H191        3.8220   -5.2420   -4.8930 hc        1 8PS      0.039700
     42 H192        5.4470   -4.5710   -4.4840 hc        1 8PS      0.039700
     43 H201        5.7620   -3.8700   -6.8810 hc        1 8PS      0.038700
     44 H202        4.1360   -4.5410   -7.2900 hc        1 8PS      0.038700
     45 H211        6.5200   -6.1540   -6.1410 hc        1 8PS      0.032700
     46 H212        4.8910   -6.8260   -6.5510 hc        1 8PS      0.032700
     47 H213        5.9490   -6.1570   -7.8600 hc        1 8PS      0.032700
     48 H17        -1.7460    0.7250    2.5870 ho        1 8PS      0.437000
@<TRIPOS>BOND
     1    1    2 ar  
     2    1    6 ar  
     3    1   23 1   
     4    2    3 ar  
     5    2   13 1   
     6    3    4 ar  
     7    3   24 1   
     8    4    5 ar  
     9    4   25 1   
    10    5    6 ar  
    11    5   22 1   
    12    6   21 1   
    13    7    8 ar  
    14    7   12 ar  
    15    7   22 1   
    16    8    9 ar  
    17    8   26 1   
    18    9   10 ar  
    19    9   27 1   
    20   10   11 ar  
    21   10   28 1   
    22   11   12 ar  
    23   11   29 1   
    24   12   30 1   
    25   13   14 1   
    26   13   31 1   
    27   13   32 1   
    28   14   15 1   
    29   14   33 1   
    30   14   34 1   
    31   15   16 1   
    32   15   35 1   
    33   15   36 1   
    34   16   17 1   
    35   16   37 1   
    36   16   38 1   
    37   17   18 1   
    38   17   39 1   
    39   17   40 1   
    40   18   19 1   
    41   18   41 1   
    42   18   42 1   
    43   19   20 1   
    44   19   43 1   
    45   19   44 1   
    46   20   45 1   
    47   20   46 1   
    48   20   47 1   
    49   21   48 1   
@<TRIPOS>SUBSTRUCTURE
     1 8PS         1 TEMP              0 ****  ****    0 ROOT
