@<TRIPOS>MOLECULE
8PS
   48    43     1     0     0
SMALL
bcc


@<TRIPOS>ATOM
      1 C1         -1.7260    0.4320    0.9410 c1        1 8PS     -0.153500
      2 C2         -0.3830    0.7770    0.9250 c1        1 8PS     -0.001100
      3 C3          0.2480    1.1580    2.0990 c1        1 8PS     -0.100500
      4 C4         -0.4640    1.1940    3.2880 c1        1 8PS     -0.086500
      5 C5         -1.8070    0.8480    3.3040 c1        1 8PS      0.071100
      6 C6         -2.4370    0.4680    2.1310 c1        1 8PS      0.112600
      7 C8         -2.7320    2.1180    4.9840 c1        1 8PS      0.071100
      8 C9         -3.8770    2.8000    4.5960 c1        1 8PS     -0.086500
      9 C10        -4.1550    4.0480    5.1320 c1        1 8PS     -0.071750
     10 C11        -3.2890    4.6150    6.0540 c1        1 8PS     -0.071750
     11 C12        -2.1460    3.9330    6.4410 c1        1 8PS     -0.071750
     12 C13        -1.8670    2.6850    5.9060 c1        1 8PS     -0.071750
     13 C14         0.3580    0.8690   -0.3950 c3        1 8PS     -0.075300
     14 C15         0.8800   -0.5020   -0.7790 c3        1 8PS     -0.076400
     15 C16         1.5330   -0.4300   -2.1460 c3        1 8PS     -0.080400
     16 C17         1.7040   -1.8300   -2.7000 c3        1 8PS     -0.079400
     17 C18         2.3920   -1.7600   -4.0470 c3        1 8PS     -0.079400
     18 C19         2.5950   -3.1610   -4.5840 c3        1 8PS     -0.079400
     19 C20         3.0890   -3.0870   -6.0130 c3        1 8PS     -0.080400
     20 C21         3.3400   -4.4860   -6.5330 c3        1 8PS     -0.093100
     21 O17        -3.5910   -0.3370    2.1530 oh        1 8PS     -0.459600
     22 O7         -2.5070    0.8050    4.5250 os        1 8PS     -0.203200
     23 H1         -2.1700    0.1640    0.1150 ha        1 8PS      0.080500
     24 H3          1.1930    1.4010    2.0880 ha        1 8PS      0.081500
     25 H4         -0.0190    1.4620    4.1150 ha        1 8PS      0.089500
     26 H9         -4.4870    2.4010    3.9470 ha        1 8PS      0.089500
     27 H10        -4.9610    4.5280    4.8590 ha        1 8PS      0.078250
     28 H11        -3.4850    5.4940    6.4310 ha        1 8PS      0.078250
     29 H12        -1.5360    4.3330    7.0900 ha        1 8PS      0.078250
     30 H13        -1.0620    2.2050    6.1780 ha        1 8PS      0.078250
     31 H141       -0.2520    1.1920   -1.0890 hc        1 8PS      0.050700
     32 H142        1.1080    1.4900   -0.3060 hc        1 8PS      0.050700
     33 H151        0.1380   -1.1380   -0.8050 hc        1 8PS      0.045700
     34 H152        1.5390   -0.7970   -0.1180 hc        1 8PS      0.045700
     35 H161        0.9680    0.0920   -2.7500 hc        1 8PS      0.040200
     36 H162        2.4090   -0.0010   -2.0670 hc        1 8PS      0.040200
     37 H171        0.8260   -2.2490   -2.8040 hc        1 8PS      0.040700
     38 H172        2.2480   -2.3600   -2.0830 hc        1 8PS      0.040700
     39 H181        1.8370   -1.2490   -4.6700 hc        1 8PS      0.039700
     40 H182        3.2600   -1.3200   -3.9470 hc        1 8PS      0.039700
     41 H191        1.7470   -3.6460   -4.5570 hc        1 8PS      0.039700
     42 H192        3.2560   -3.6280   -4.0350 hc        1 8PS      0.039700
     43 H201        3.9210   -2.5730   -6.0440 hc        1 8PS      0.038700
     44 H202        2.4140   -2.6490   -6.5690 hc        1 8PS      0.038700
     45 H211        2.4920   -4.9750   -6.5790 hc        1 8PS      0.032700
     46 H212        3.9550   -4.9540   -5.9290 hc        1 8PS      0.032700
     47 H213        3.7370   -4.4360   -7.4290 hc        1 8PS      0.032700
     48 H17        -4.2340    0.0540    1.6800 ho        1 8PS      0.419000
@<TRIPOS>BOND
     1    1    6 3   
     2    1   23 1   
     3    2    3 3   
     4    2   13 1   
     5    3   24 1   
     6    4    5 3   
     7    4   25 1   
     8    5   22 1   
     9    6   21 1   
    10    7    8 3   
    11    7   22 1   
    12    8   26 1   
    13    9   10 3   
    14    9   27 1   
    15   10   28 1   
    16   11   12 3   
    17   11   29 1   
    18   12   30 1   
    19   13   14 1   
    20   13   31 1   
    21   13   32 1   
    22   14   15 1   
    23   14   33 1   
    24   14   34 1   
    25   15   16 1   
    26   15   35 1   
    27   15   36 1   
    28   16   17 1   
    29   16   37 1   
    30   16   38 1   
    31   17   18 1   
    32   17   39 1   
    33   17   40 1   
    34   18   19 1   
    35   18   41 1   
    36   18   42 1   
    37   19   20 1   
    38   19   43 1   
    39   19   44 1   
    40   20   45 1   
    41   20   46 1   
    42   20   47 1   
    43   21   48 1   
@<TRIPOS>SUBSTRUCTURE
     1 8PS         1 TEMP              0 ****  ****    0 ROOT
