@<TRIPOS>MOLECULE
8PS
   48    49     1     0     0
SMALL
bcc


@<TRIPOS>ATOM
      1 C1          0.0530    0.2930    0.0230 ca        1 8PS     -0.151000
      2 C2          1.4040    0.2970   -0.3280 ca        1 8PS     -0.046300
      3 C3          2.3840    0.5330    0.6480 ca        1 8PS     -0.155000
      4 C4          2.0270    0.7630    1.9720 ca        1 8PS     -0.105000
      5 C5          0.6750    0.7560    2.3290 ca        1 8PS     -0.002900
      6 C6         -0.3180    0.5210    1.3580 ca        1 8PS      0.133100
      7 C8          0.6580    0.2810    4.6490 ca        1 8PS      0.107100
      8 C9          1.1690   -1.0080    4.4700 ca        1 8PS     -0.165500
      9 C10         1.5110   -1.7600    5.5930 ca        1 8PS     -0.103000
     10 C11         1.3450   -1.2330    6.8730 ca        1 8PS     -0.155000
     11 C12         0.8350    0.0560    7.0390 ca        1 8PS     -0.103000
     12 C13         0.4900    0.8270    5.9330 ca        1 8PS     -0.165500
     13 C14         1.8080    0.0640   -1.7420 c3        1 8PS     -0.040100
     14 C15         2.4420   -1.3020   -1.9270 c3        1 8PS     -0.076400
     15 C16         2.8810   -1.5080   -3.3610 c3        1 8PS     -0.080400
     16 C17         3.5120   -2.8700   -3.5500 c3        1 8PS     -0.078400
     17 C18         3.9520   -3.0770   -4.9840 c3        1 8PS     -0.079400
     18 C19         4.5820   -4.4400   -5.1740 c3        1 8PS     -0.079400
     19 C20         5.0240   -4.6480   -6.6070 c3        1 8PS     -0.080400
     20 C21         5.6520   -6.0040   -6.8010 c3        1 8PS     -0.093100
     21 O17        -1.6590    0.5180    1.6490 oh        1 8PS     -0.492100
     22 O7          0.2370    1.1040    3.6060 os        1 8PS     -0.260200
     23 H1         -0.7320    0.1150   -0.7260 ha        1 8PS      0.154000
     24 H3          3.4450    0.5380    0.3600 ha        1 8PS      0.139000
     25 H4          2.7900    0.9490    2.7420 ha        1 8PS      0.149000
     26 H9          1.3000   -1.4180    3.4580 ha        1 8PS      0.149500
     27 H10         1.9130   -2.7760    5.4630 ha        1 8PS      0.135000
     28 H11         1.6160   -1.8330    7.7540 ha        1 8PS      0.134000
     29 H12         0.7060    0.4700    8.0500 ha        1 8PS      0.135000
     30 H13         0.0890    1.8440    6.0460 ha        1 8PS      0.149500
     31 H141        0.9160    0.1530   -2.4180 hc        1 8PS      0.051700
     32 H142        2.5400    0.8590   -2.0510 hc        1 8PS      0.051700
     33 H151        3.3260   -1.4000   -1.2420 hc        1 8PS      0.044700
     34 H152        1.7080   -2.1000   -1.6390 hc        1 8PS      0.044700
     35 H161        3.6160   -0.7100   -3.6480 hc        1 8PS      0.040200
     36 H162        1.9970   -1.4040   -4.0440 hc        1 8PS      0.040200
     37 H171        4.3950   -2.9750   -2.8670 hc        1 8PS      0.040200
     38 H172        2.7760   -3.6680   -3.2640 hc        1 8PS      0.040200
     39 H181        3.0680   -2.9730   -5.6670 hc        1 8PS      0.039700
     40 H182        4.6870   -2.2790   -5.2700 hc        1 8PS      0.039700
     41 H191        3.8470   -5.2380   -4.8880 hc        1 8PS      0.039700
     42 H192        5.4660   -4.5450   -4.4900 hc        1 8PS      0.039700
     43 H201        5.7570   -3.8480   -6.8920 hc        1 8PS      0.038700
     44 H202        4.1390   -4.5410   -7.2890 hc        1 8PS      0.038700
     45 H211        6.5500   -6.1190   -6.1470 hc        1 8PS      0.032700
     46 H212        4.9270   -6.8140   -6.5460 hc        1 8PS      0.032700
     47 H213        5.9690   -6.1360   -7.8630 hc        1 8PS      0.032700
     48 H17        -1.7560    0.6910    2.6000 ho        1 8PS      0.437000
@<TRIPOS>BOND
     1    1    2 ar  
     2    1    6 ar  
     3    1   23 1   
     4    2    3 ar  
     5    2   13 1   
     6    3    4 ar  
     7    3   24 1   
     8    4    5 ar  
     9    4   25 1   
    10    5    6 ar  
    11    5   22 1   
    12    6   21 1   
    13    7    8 ar  
    14    7   12 ar  
    15    7   22 1   
    16    8    9 ar  
    17    8   26 1   
    18    9   10 ar  
    19    9   27 1   
    20   10   11 ar  
    21   10   28 1   
    22   11   12 ar  
    23   11   29 1   
    24   12   30 1   
    25   13   14 1   
    26   13   31 1   
    27   13   32 1   
    28   14   15 1   
    29   14   33 1   
    30   14   34 1   
    31   15   16 1   
    32   15   35 1   
    33   15   36 1   
    34   16   17 1   
    35   16   37 1   
    36   16   38 1   
    37   17   18 1   
    38   17   39 1   
    39   17   40 1   
    40   18   19 1   
    41   18   41 1   
    42   18   42 1   
    43   19   20 1   
    44   19   43 1   
    45   19   44 1   
    46   20   45 1   
    47   20   46 1   
    48   20   47 1   
    49   21   48 1   
@<TRIPOS>SUBSTRUCTURE
     1 8PS         1 TEMP              0 ****  ****    0 ROOT
