@<TRIPOS>MOLECULE
8PS
   48    49     1     0     0
SMALL
bcc


@<TRIPOS>ATOM
      1 C1         -0.7360   -2.1620   -0.3130 ca        1 8PS     -0.151000
      2 C2          0.0260   -1.2870   -1.0870 ca        1 8PS     -0.046300
      3 C3         -0.5830   -0.1880   -1.7120 ca        1 8PS     -0.155000
      4 C4         -1.9460    0.0450   -1.5700 ca        1 8PS     -0.105000
      5 C5         -2.7130   -0.8270   -0.7920 ca        1 8PS     -0.002900
      6 C6         -2.1130   -1.9340   -0.1600 ca        1 8PS      0.133100
      7 C8         -4.6060    0.4380   -0.1410 ca        1 8PS      0.107100
      8 C9         -3.8480    1.3190    0.6370 ca        1 8PS     -0.165500
      9 C10        -4.4740    2.4330    1.1970 ca        1 8PS     -0.103000
     10 C11        -5.8320    2.6610    0.9840 ca        1 8PS     -0.155000
     11 C12        -6.5770    1.7740    0.2050 ca        1 8PS     -0.103000
     12 C13        -5.9750    0.6580   -0.3680 ca        1 8PS     -0.165500
     13 C14         1.4860   -1.5230   -1.2630 c3        1 8PS     -0.040100
     14 C15         2.3150   -0.5150   -0.4900 c3        1 8PS     -0.076400
     15 C16         3.7950   -0.7460   -0.7100 c3        1 8PS     -0.080400
     16 C17         4.6260    0.2560    0.0620 c3        1 8PS     -0.078400
     17 C18         6.1060    0.0270   -0.1570 c3        1 8PS     -0.079400
     18 C19         6.9380    1.0280    0.6150 c3        1 8PS     -0.079400
     19 C20         8.4180    0.8000    0.3960 c3        1 8PS     -0.080400
     20 C21         9.2500    1.7960    1.1620 c3        1 8PS     -0.093100
     21 O17        -2.8200   -2.8300    0.6010 oh        1 8PS     -0.492100
     22 O7         -4.1010   -0.7300   -0.7090 os        1 8PS     -0.260200
     23 H1         -0.2810   -3.0320    0.1820 ha        1 8PS      0.154000
     24 H3          0.0270    0.4940   -2.3240 ha        1 8PS      0.139000
     25 H4         -2.4290    0.9040   -2.0580 ha        1 8PS      0.149000
     26 H9         -2.7760    1.1360    0.7990 ha        1 8PS      0.149500
     27 H10        -3.8870    3.1310    1.8120 ha        1 8PS      0.135000
     28 H11        -6.3190    3.5400    1.4300 ha        1 8PS      0.134000
     29 H12        -7.6490    1.9570    0.0370 ha        1 8PS      0.135000
     30 H13        -6.5470   -0.0490   -0.9850 ha        1 8PS      0.149500
     31 H141        1.7410   -1.4550   -2.3550 hc        1 8PS      0.051700
     32 H142        1.7520   -2.5600   -0.9240 hc        1 8PS      0.051700
     33 H151        2.0790   -0.5930    0.6040 hc        1 8PS      0.044700
     34 H152        2.0420    0.5230   -0.8150 hc        1 8PS      0.044700
     35 H161        4.0310   -0.6670   -1.8040 hc        1 8PS      0.040200
     36 H162        4.0650   -1.7870   -0.3880 hc        1 8PS      0.040200
     37 H171        4.3910    0.1760    1.1570 hc        1 8PS      0.040200
     38 H172        4.3550    1.2960   -0.2580 hc        1 8PS      0.040200
     39 H181        6.3410    0.1060   -1.2510 hc        1 8PS      0.039700
     40 H182        6.3770   -1.0140    0.1640 hc        1 8PS      0.039700
     41 H191        6.7040    0.9490    1.7090 hc        1 8PS      0.039700
     42 H192        6.6670    2.0690    0.2940 hc        1 8PS      0.039700
     43 H201        8.6510    0.8790   -0.6990 hc        1 8PS      0.038700
     44 H202        8.6870   -0.2410    0.7160 hc        1 8PS      0.038700
     45 H211        9.0140    2.8390    0.8400 hc        1 8PS      0.032700
     46 H212        9.0510    1.7160    2.2580 hc        1 8PS      0.032700
     47 H213       10.3380    1.6100    0.9870 hc        1 8PS      0.032700
     48 H17        -3.7480   -2.5450    0.6110 ho        1 8PS      0.437000
@<TRIPOS>BOND
     1    1    2 ar  
     2    1    6 ar  
     3    1   23 1   
     4    2    3 ar  
     5    2   13 1   
     6    3    4 ar  
     7    3   24 1   
     8    4    5 ar  
     9    4   25 1   
    10    5    6 ar  
    11    5   22 1   
    12    6   21 1   
    13    7    8 ar  
    14    7   12 ar  
    15    7   22 1   
    16    8    9 ar  
    17    8   26 1   
    18    9   10 ar  
    19    9   27 1   
    20   10   11 ar  
    21   10   28 1   
    22   11   12 ar  
    23   11   29 1   
    24   12   30 1   
    25   13   14 1   
    26   13   31 1   
    27   13   32 1   
    28   14   15 1   
    29   14   33 1   
    30   14   34 1   
    31   15   16 1   
    32   15   35 1   
    33   15   36 1   
    34   16   17 1   
    35   16   37 1   
    36   16   38 1   
    37   17   18 1   
    38   17   39 1   
    39   17   40 1   
    40   18   19 1   
    41   18   41 1   
    42   18   42 1   
    43   19   20 1   
    44   19   43 1   
    45   19   44 1   
    46   20   45 1   
    47   20   46 1   
    48   20   47 1   
    49   21   48 1   
@<TRIPOS>SUBSTRUCTURE
     1 8PS         1 TEMP              0 ****  ****    0 ROOT
