@<TRIPOS>MOLECULE
8PW
   64    67     1     0     0
SMALL
bcc


@<TRIPOS>ATOM
      1 O26        -0.1040    0.6250   -1.9130 o         1 8PW     -0.665100
      2 C5          0.7870    0.2680   -1.1070 c         1 8PW      0.734100
      3 C8          0.8910    0.8270    0.2780 cx        1 8PW     -0.201000
      4 C16        -0.3430    0.7550    1.1510 cx        1 8PW     -0.101400
      5 C17         0.8400   -0.1050    1.4660 cx        1 8PW     -0.101400
      6 C38         1.7570    2.0460    0.3250 c3        1 8PW     -0.081100
      7 N2          1.6810   -0.7160   -1.5310 n         1 8PW     -0.465800
      8 C7          1.9000   -0.9640   -2.9430 c3        1 8PW      0.042700
      9 C12         0.8990   -1.9870   -3.5120 c         1 8PW      0.538100
     10 N14        -0.4340   -1.4000   -3.9280 ny        1 8PW     -0.646800
     11 C13        -1.5970   -2.2700   -3.6550 cx        1 8PW     -0.098100
     12 C18        -1.9380   -2.4150   -2.1960 c2        1 8PW      0.445200
     13 N19        -2.1250   -1.5210   -1.3170 n2        1 8PW     -0.711100
     14 C23        -2.7630   -2.2730   -4.6400 cx        1 8PW     -0.086400
     15 C24        -1.8710   -3.4670   -4.5550 cx        1 8PW     -0.086400
     16 O27         1.0780   -3.1770   -3.6990 o         1 8PW     -0.398100
     17 C11         3.3430   -1.5050   -3.1060 c3        1 8PW     -0.063400
     18 C10         2.8410   -1.1390   -0.7560 c3        1 8PW      0.107000
     19 C3          4.0090   -1.3480   -1.7400 c3        1 8PW     -0.282900
     20 S1          5.2050   -0.0490   -1.6950 sy        1 8PW      1.364300
     21 O20         5.2400    0.5510   -2.9550 o         1 8PW     -0.634800
     22 O21         4.8800    0.7620   -0.5970 o         1 8PW     -0.634800
     23 C6          6.5980   -0.9200   -1.3770 ca        1 8PW     -0.400500
     24 C4          7.5210   -1.4340   -2.3130 ca        1 8PW     -0.007300
     25 C9          7.3360   -1.2790   -3.8380 c3        1 8PW      0.679200
     26 F28         8.2140   -2.0230   -4.5860 f         1 8PW     -0.219967
     27 F29         6.1060   -1.6860   -4.2970 f         1 8PW     -0.219967
     28 F30         7.4980   -0.0000   -4.2960 f         1 8PW     -0.219967
     29 C25         8.6720   -2.0910   -1.9070 ca        1 8PW     -0.135000
     30 C22         6.9050   -1.0890   -0.0150 ca        1 8PW      0.007000
     31 C37         8.0490   -1.7420    0.4250 ca        1 8PW     -0.208000
     32 C35         8.9380   -2.2500   -0.5280 ca        1 8PW      0.209100
     33 O36        10.1000   -2.9230   -0.2490 os        1 8PW     -0.291900
     34 C31        10.4390   -3.0560    1.1320 c3        1 8PW      0.073400
     35 C15        11.7900   -3.8460    1.1380 c3        1 8PW      0.641900
     36 F34        12.8060   -3.2100    0.4820 f         1 8PW     -0.218300
     37 F32        12.2440   -4.0490    2.4160 f         1 8PW     -0.218300
     38 F33        11.7020   -5.0910    0.5790 f         1 8PW     -0.218300
     39 H161       -0.5720    1.6240    1.7960 hc        1 8PW      0.090200
     40 H162       -1.2590    0.2890    0.7450 hc        1 8PW      0.090200
     41 H171        1.4690    0.1400    2.3430 hc        1 8PW      0.090200
     42 H172        0.7740   -1.1940    1.2960 hc        1 8PW      0.090200
     43 H381        1.3870    2.8120   -0.4010 hc        1 8PW      0.066033
     44 H382        2.8210    1.7970    0.0790 hc        1 8PW      0.066033
     45 H383        1.7290    2.4910    1.3500 hc        1 8PW      0.066033
     46 H7          1.7790   -0.0040   -3.5330 h1        1 8PW      0.102700
     47 H101        3.0860   -0.3790    0.0410 h1        1 8PW      0.093700
     48 H102        2.5870   -2.1130   -0.2500 h1        1 8PW      0.093700
     49 H111        3.8750   -0.9200   -3.9050 hc        1 8PW      0.107700
     50 H112        3.3410   -2.5810   -3.4160 hc        1 8PW      0.107700
     51 H14        -0.3950   -1.2140   -4.9380 hn        1 8PW      0.473800
     52 H231       -2.7260   -1.6290   -5.5400 hc        1 8PW      0.110950
     53 H232       -3.7840   -2.3160   -4.2120 hc        1 8PW      0.110950
     54 H241       -1.1780   -3.6920   -5.3880 hc        1 8PW      0.110950
     55 H242       -2.2360   -4.3950   -4.0710 hc        1 8PW      0.110950
     56 H19        -2.0220   -0.5560   -1.5580 hn        1 8PW      0.417400
     57 H3          4.5050   -2.3210   -1.4760 h1        1 8PW      0.132700
     58 H22         6.2180   -0.6650    0.7450 ha        1 8PW      0.169000
     59 H25         9.3980   -2.4930   -2.6370 ha        1 8PW      0.196000
     60 H37         8.2450   -1.8400    1.5030 ha        1 8PW      0.164000
     61 H311       10.5980   -2.0510    1.5990 h1        1 8PW      0.089200
     62 H312        9.6640   -3.6520    1.6750 h1        1 8PW      0.089200
     63 HXT        -2.0680   -3.4790   -1.8930 h4        1 8PW      0.054800
     64 H142       -0.5700   -0.4950   -3.4360 hn        1 8PW      0.473800
@<TRIPOS>BOND
     1    1    2 2   
     2    2    3 1   
     3    2    7 1   
     4    3    4 1   
     5    3    5 1   
     6    3    6 1   
     7    4    5 1   
     8    4   39 1   
     9    4   40 1   
    10    5   41 1   
    11    5   42 1   
    12    6   43 1   
    13    6   44 1   
    14    6   45 1   
    15    7    8 1   
    16    7   18 1   
    17    8    9 1   
    18    8   17 1   
    19    8   46 1   
    20    9   10 1   
    21    9   16 2   
    22   10   11 1   
    23   10   51 1   
    24   10   64 1   
    25   11   12 1   
    26   11   14 1   
    27   11   15 1   
    28   12   13 2   
    29   12   63 1   
    30   13   56 1   
    31   14   15 1   
    32   14   52 1   
    33   14   53 1   
    34   15   54 1   
    35   15   55 1   
    36   17   19 1   
    37   17   49 1   
    38   17   50 1   
    39   18   19 1   
    40   18   47 1   
    41   18   48 1   
    42   19   20 1   
    43   19   57 1   
    44   20   21 2   
    45   20   22 2   
    46   20   23 1   
    47   23   24 ar  
    48   23   30 ar  
    49   24   25 1   
    50   24   29 ar  
    51   25   26 1   
    52   25   27 1   
    53   25   28 1   
    54   29   32 ar  
    55   29   59 1   
    56   30   31 ar  
    57   30   58 1   
    58   31   32 ar  
    59   31   60 1   
    60   32   33 1   
    61   33   34 1   
    62   34   35 1   
    63   34   61 1   
    64   34   62 1   
    65   35   36 1   
    66   35   37 1   
    67   35   38 1   
@<TRIPOS>SUBSTRUCTURE
     1 8PW         1 TEMP              0 ****  ****    0 ROOT
