@<TRIPOS>MOLECULE
8PW
   64    67     1     0     0
SMALL
bcc


@<TRIPOS>ATOM
      1 O26        -0.0900    0.6410   -1.9340 o         1 8PW     -0.665100
      2 C5          0.7960    0.2870   -1.1210 c         1 8PW      0.734100
      3 C8          0.8990    0.8610    0.2580 cx        1 8PW     -0.201000
      4 C16        -0.3370    0.8080    1.1280 cx        1 8PW     -0.101400
      5 C17         0.8380   -0.0570    1.4570 cx        1 8PW     -0.101400
      6 C38         1.7740    2.0740    0.2940 c3        1 8PW     -0.081100
      7 N2          1.6840   -0.7090   -1.5310 n         1 8PW     -0.465800
      8 C7          1.9050   -0.9740   -2.9390 c3        1 8PW      0.042700
      9 C12         0.8970   -1.9960   -3.4990 c         1 8PW      0.538100
     10 N14        -0.4290   -1.4020   -3.9280 n4        1 8PW     -0.646800
     11 C13        -1.6010   -2.2600   -3.6500 cx        1 8PW     -0.098100
     12 C18        -1.9490   -2.3860   -2.1900 c2        1 8PW      0.445200
     13 N19        -2.1310   -1.4810   -1.3210 n2        1 8PW     -0.711100
     14 C23        -2.7630   -2.2630   -4.6380 cx        1 8PW     -0.086400
     15 C24        -1.8820   -3.4640   -4.5380 cx        1 8PW     -0.086400
     16 O27         1.0660   -3.1890   -3.6710 o         1 8PW     -0.398100
     17 C11         3.3440   -1.5290   -3.0920 c3        1 8PW     -0.063400
     18 C10         2.8380   -1.1310   -0.7480 c3        1 8PW      0.107000
     19 C3          4.0070   -1.3580   -1.7260 c3        1 8PW     -0.282900
     20 S1          5.2100   -0.0640   -1.6950 sy        1 8PW      1.364300
     21 O20         5.2400    0.5270   -2.9580 o         1 8PW     -0.634800
     22 O21         4.8940    0.7540   -0.6000 o         1 8PW     -0.634800
     23 C6          6.6010   -0.9400   -1.3790 ca        1 8PW     -0.400500
     24 C4          7.5210   -1.4540   -2.3160 ca        1 8PW     -0.007300
     25 C9          7.3380   -1.2940   -3.8410 c3        1 8PW      0.679200
     26 F28         8.2180   -2.0340   -4.5900 f         1 8PW     -0.219967
     27 F29         6.1090   -1.7020   -4.3020 f         1 8PW     -0.219967
     28 F30         7.4980   -0.0130   -4.2940 f         1 8PW     -0.219967
     29 C25         8.6710   -2.1160   -1.9110 ca        1 8PW     -0.135000
     30 C22         6.9060   -1.1130   -0.0170 ca        1 8PW      0.007000
     31 C37         8.0490   -1.7700    0.4210 ca        1 8PW     -0.208000
     32 C35         8.9360   -2.2790   -0.5330 ca        1 8PW      0.209100
     33 O36        10.0950   -2.9570   -0.2560 os        1 8PW     -0.291900
     34 C31        10.4340   -3.0930    1.1260 c3        1 8PW      0.073400
     35 C15        11.7830   -3.8890    1.1300 c3        1 8PW      0.641900
     36 F34        12.8010   -3.2540    0.4760 f         1 8PW     -0.218300
     37 F32        12.2350   -4.0960    2.4070 f         1 8PW     -0.218300
     38 F33        11.6900   -5.1310    0.5670 f         1 8PW     -0.218300
     39 H161       -0.5620    1.6860    1.7620 hc        1 8PW      0.090200
     40 H162       -1.2560    0.3440    0.7240 hc        1 8PW      0.090200
     41 H171        0.7640   -1.1480    1.2990 hc        1 8PW      0.090200
     42 H172        1.4660    0.1930    2.3320 hc        1 8PW      0.090200
     43 H381        2.8370    1.8140    0.0560 hc        1 8PW      0.066367
     44 H382        1.4140    2.8340   -0.4420 hc        1 8PW      0.066367
     45 H383        1.7460    2.5310    1.3140 hc        1 8PW      0.066367
     46 H7          1.7930   -0.0200   -3.5410 h1        1 8PW      0.102700
     47 H101        2.5770   -2.0980   -0.2330 h1        1 8PW      0.093700
     48 H102        3.0870   -0.3640    0.0420 h1        1 8PW      0.093700
     49 H111        3.3340   -2.6100   -3.3860 hc        1 8PW      0.107700
     50 H112        3.8820   -0.9600   -3.8970 hc        1 8PW      0.107700
     51 H14        -0.5600   -0.4910   -3.4460 hn        1 8PW      0.473800
     52 H231       -3.7870   -2.2920   -4.2140 hc        1 8PW      0.110950
     53 H232       -2.7180   -1.6300   -5.5450 hc        1 8PW      0.110950
     54 H241       -2.2560   -4.3830   -4.0440 hc        1 8PW      0.110950
     55 H242       -1.1880   -3.7040   -5.3660 hc        1 8PW      0.110950
     56 H19        -2.0190   -0.5190   -1.5720 hn        1 8PW      0.417400
     57 H3          4.4980   -2.3300   -1.4480 h1        1 8PW      0.132700
     58 H22         6.2200   -0.6880    0.7430 ha        1 8PW      0.169000
     59 H25         9.3960   -2.5180   -2.6430 ha        1 8PW      0.196000
     60 H37         8.2440   -1.8710    1.4990 ha        1 8PW      0.164000
     61 H311       10.5960   -2.0900    1.5950 h1        1 8PW      0.089200
     62 H312        9.6570   -3.6880    1.6680 h1        1 8PW      0.089200
     63 HXT        -2.0880   -3.4450   -1.8760 h4        1 8PW      0.054800
     64 H142       -0.3850   -1.2280   -4.9390 hn        1 8PW      0.473800
@<TRIPOS>BOND
     1    1    2 2   
     2    2    3 1   
     3    2    7 1   
     4    3    4 1   
     5    3    5 1   
     6    3    6 1   
     7    4    5 1   
     8    4   39 1   
     9    4   40 1   
    10    5   41 1   
    11    5   42 1   
    12    6   43 1   
    13    6   44 1   
    14    6   45 1   
    15    7    8 1   
    16    7   18 1   
    17    8    9 1   
    18    8   17 1   
    19    8   46 1   
    20    9   10 1   
    21    9   16 2   
    22   10   11 1   
    23   10   51 1   
    24   10   64 1   
    25   11   12 1   
    26   11   14 1   
    27   11   15 1   
    28   12   13 2   
    29   12   63 1   
    30   13   56 1   
    31   14   15 1   
    32   14   52 1   
    33   14   53 1   
    34   15   54 1   
    35   15   55 1   
    36   17   19 1   
    37   17   49 1   
    38   17   50 1   
    39   18   19 1   
    40   18   47 1   
    41   18   48 1   
    42   19   20 1   
    43   19   57 1   
    44   20   21 2   
    45   20   22 2   
    46   20   23 1   
    47   23   24 ar  
    48   23   30 ar  
    49   24   25 1   
    50   24   29 ar  
    51   25   26 1   
    52   25   27 1   
    53   25   28 1   
    54   29   32 ar  
    55   29   59 1   
    56   30   31 ar  
    57   30   58 1   
    58   31   32 ar  
    59   31   60 1   
    60   32   33 1   
    61   33   34 1   
    62   34   35 1   
    63   34   61 1   
    64   34   62 1   
    65   35   36 1   
    66   35   37 1   
    67   35   38 1   
@<TRIPOS>SUBSTRUCTURE
     1 8PW         1 TEMP              0 ****  ****    0 ROOT
