@<TRIPOS>MOLECULE
8PW
   64    67     1     0     0
SMALL
bcc


@<TRIPOS>ATOM
      1 O26        -0.0990    0.6500   -1.9040 o         1 8PW     -0.665100
      2 C5          0.8120    0.2910   -1.1220 c         1 8PW      0.734100
      3 C8          0.9510    0.8450    0.2610 cx        1 8PW     -0.201000
      4 C16        -0.2590    0.7710    1.1650 cx        1 8PW     -0.101400
      5 C17         0.9300   -0.0910    1.4470 cx        1 8PW     -0.101400
      6 C38         1.8180    2.0640    0.2900 c3        1 8PW     -0.081100
      7 N2          1.6960   -0.6910   -1.5740 n         1 8PW     -0.465800
      8 C7          1.8810   -0.9280   -2.9920 c3        1 8PW      0.043700
      9 C12         0.8720   -1.9530   -3.5420 c         1 8PW      0.538100
     10 N14        -0.4770   -1.3730   -3.9140 n4        1 8PW     -0.646800
     11 C13        -1.6250   -2.2520   -3.6090 cx        1 8PW     -0.098100
     12 C18        -1.9230   -2.4020   -2.1400 c2        1 8PW      0.445200
     13 N19        -2.0900   -1.5100   -1.2540 n2        1 8PW     -0.711100
     14 C23        -2.8190   -2.2630   -4.5590 cx        1 8PW     -0.086400
     15 C24        -1.9170   -3.4500   -4.5020 cx        1 8PW     -0.086400
     16 O27         1.0550   -3.1390   -3.7480 o         1 8PW     -0.398100
     17 C11         3.3220   -1.4590   -3.1950 c3        1 8PW     -0.063400
     18 C10         2.8730   -1.1200   -0.8280 c3        1 8PW      0.108000
     19 C3          4.0160   -1.3310   -1.8390 c3        1 8PW     -0.282900
     20 S1          5.2370   -0.0560   -1.8020 sy        1 8PW      1.364300
     21 O20         5.3150    0.5080   -3.0750 o         1 8PW     -0.634800
     22 O21         4.9040    0.7930   -0.7350 o         1 8PW     -0.634800
     23 C6          6.6050   -0.9460   -1.4260 ca        1 8PW     -0.399500
     24 C4          7.5000   -1.5620   -2.3260 ca        1 8PW     -0.007300
     25 C9          7.3020   -1.5270   -3.8560 c3        1 8PW      0.678200
     26 F28         8.1230   -2.3850   -4.5450 f         1 8PW     -0.220300
     27 F29         6.0420   -1.8970   -4.2660 f         1 8PW     -0.220300
     28 F30         7.5300   -0.3050   -4.4250 f         1 8PW     -0.220300
     29 C25         8.6370   -2.2190   -1.8790 ca        1 8PW     -0.135000
     30 C22         6.9200   -1.0170   -0.0570 ca        1 8PW      0.007000
     31 C37         8.0500   -1.6670    0.4230 ca        1 8PW     -0.208000
     32 C35         8.9140   -2.2750   -0.4940 ca        1 8PW      0.209100
     33 O36        10.0590   -2.9570   -0.1730 os        1 8PW     -0.291900
     34 C31        10.4090   -2.9900    1.2120 c3        1 8PW      0.073400
     35 C15        11.7370   -3.8160    1.2690 c3        1 8PW      0.641900
     36 F34        12.7640   -3.2640    0.5560 f         1 8PW     -0.218300
     37 F32        12.1990   -3.9300    2.5550 f         1 8PW     -0.218300
     38 F33        11.6080   -5.0980    0.8110 f         1 8PW     -0.218300
     39 H161       -0.4710    1.6370    1.8190 hc        1 8PW      0.090200
     40 H162       -1.1860    0.3060    0.7810 hc        1 8PW      0.090200
     41 H171        0.8590   -1.1810    1.2750 hc        1 8PW      0.090200
     42 H172        1.5820    0.1490    2.3080 hc        1 8PW      0.090200
     43 H381        1.4250    2.8360   -0.4170 hc        1 8PW      0.066367
     44 H382        2.8730    1.8170    0.0070 hc        1 8PW      0.066367
     45 H383        1.8250    2.5000    1.3200 hc        1 8PW      0.066367
     46 H7          1.7380    0.0350   -3.5730 h1        1 8PW      0.102700
     47 H101        3.1400   -0.3610   -0.0370 h1        1 8PW      0.093700
     48 H102        2.6270   -2.0940   -0.3180 h1        1 8PW      0.093700
     49 H111        3.3210   -2.5280   -3.5300 hc        1 8PW      0.108700
     50 H112        3.8380   -0.8560   -3.9910 hc        1 8PW      0.108700
     51 H14        -0.4710   -1.1830   -4.9240 hn        1 8PW      0.473800
     52 H231       -3.8280   -2.3140   -4.1010 hc        1 8PW      0.110950
     53 H232       -2.8140   -1.6180   -5.4580 hc        1 8PW      0.110950
     54 H241       -2.2590   -4.3810   -4.0080 hc        1 8PW      0.110950
     55 H242       -1.2460   -3.6690   -5.3550 hc        1 8PW      0.110950
     56 H19        -2.0000   -0.5440   -1.4970 hn        1 8PW      0.417400
     57 H3          4.5020   -2.3160   -1.6020 h1        1 8PW      0.133700
     58 H22         6.2540   -0.5150    0.6730 ha        1 8PW      0.170000
     59 H25         9.3420   -2.6990   -2.5810 ha        1 8PW      0.195000
     60 H37         8.2540   -1.6860    1.5040 ha        1 8PW      0.164000
     61 H311       10.6010   -1.9560    1.5960 h1        1 8PW      0.089200
     62 H312        9.6230   -3.5190    1.8080 h1        1 8PW      0.089200
     63 HXT        -2.0360   -3.4670   -1.8350 h4        1 8PW      0.054800
     64 H142       -0.6040   -0.4710   -3.4140 hn        1 8PW      0.473800
@<TRIPOS>BOND
     1    1    2 2   
     2    2    3 1   
     3    2    7 1   
     4    3    4 1   
     5    3    5 1   
     6    3    6 1   
     7    4    5 1   
     8    4   39 1   
     9    4   40 1   
    10    5   41 1   
    11    5   42 1   
    12    6   43 1   
    13    6   44 1   
    14    6   45 1   
    15    7    8 1   
    16    7   18 1   
    17    8    9 1   
    18    8   17 1   
    19    8   46 1   
    20    9   10 1   
    21    9   16 2   
    22   10   11 1   
    23   10   51 1   
    24   10   64 1   
    25   11   12 1   
    26   11   14 1   
    27   11   15 1   
    28   12   13 2   
    29   12   63 1   
    30   13   56 1   
    31   14   15 1   
    32   14   52 1   
    33   14   53 1   
    34   15   54 1   
    35   15   55 1   
    36   17   19 1   
    37   17   49 1   
    38   17   50 1   
    39   18   19 1   
    40   18   47 1   
    41   18   48 1   
    42   19   20 1   
    43   19   57 1   
    44   20   21 2   
    45   20   22 2   
    46   20   23 1   
    47   23   24 ar  
    48   23   30 ar  
    49   24   25 1   
    50   24   29 ar  
    51   25   26 1   
    52   25   27 1   
    53   25   28 1   
    54   29   32 ar  
    55   29   59 1   
    56   30   31 ar  
    57   30   58 1   
    58   31   32 ar  
    59   31   60 1   
    60   32   33 1   
    61   33   34 1   
    62   34   35 1   
    63   34   61 1   
    64   34   62 1   
    65   35   36 1   
    66   35   37 1   
    67   35   38 1   
@<TRIPOS>SUBSTRUCTURE
     1 8PW         1 TEMP              0 ****  ****    0 ROOT
