@<TRIPOS>MOLECULE
8R2
   44    46     1     0     0
SMALL
bcc


@<TRIPOS>ATOM
      1 CAM         0.1900    0.1840    0.0080 ca        1 8R2     -0.127000
      2 CAY         1.5690    0.0180   -0.0510 ca        1 8R2     -0.007800
      3 CAW         2.6180    0.0590    0.9420 cc        1 8R2     -0.145900
      4 CAF         2.4660    0.3200    2.3040 cg        1 8R2      0.235500
      5 NAA         2.3270    0.5460    3.4390 n1        1 8R2     -0.394800
      6 CAS         3.8420   -0.2170    0.2730 cd        1 8R2      0.248900
      7 NAB         5.0790   -0.3790    0.8550 nh        1 8R2     -0.826600
      8 NAP         3.5980   -0.3460   -1.1160 na        1 8R2     -0.202400
      9 CAX         2.2060   -0.2650   -1.3170 ca        1 8R2     -0.058200
     10 CAL         1.4660   -0.3710   -2.4980 ca        1 8R2     -0.110000
     11 CAK         0.0880   -0.1910   -2.4260 ca        1 8R2     -0.122000
     12 CAV        -0.5240    0.0760   -1.1880 ca        1 8R2      0.061100
     13 OAQ        -1.9250    0.0950   -1.1930 os        1 8R2     -0.232200
     14 CAU        -2.5420    1.2020   -0.6520 ca        1 8R2      0.171100
     15 CAJ        -3.9310    1.0640   -0.4540 ca        1 8R2     -0.170500
     16 CAH        -4.6510    2.1210    0.0760 ca        1 8R2     -0.075500
     17 CAI        -1.8960    2.4060   -0.3420 ca        1 8R2     -0.170500
     18 CAG        -2.6240    3.4670    0.1780 ca        1 8R2     -0.075500
     19 CAT        -4.0130    3.3380    0.4170 ca        1 8R2      0.031400
     20 NAO        -4.6920    4.4630    0.9140 ne        1 8R2     -0.543100
     21 C          -5.7030    4.4160    1.7140 c2        1 8R2      0.513600
     22 O          -6.4080    3.3370    2.2330 oh        1 8R2     -0.659600
     23 CA         -6.3410    5.7090    2.2150 c3        1 8R2      0.084200
     24 N          -7.7980    5.7410    1.8440 n4        1 8R2     -0.835600
     25 CB         -6.1670    5.8020    3.7490 c3        1 8R2      0.113400
     26 OG         -6.9050    6.9150    4.2040 oh        1 8R2     -0.619800
     27 HAM        -0.3200    0.3860    0.9600 ha        1 8R2      0.155000
     28 HAB1        5.8880   -0.2940    0.2840 hn        1 8R2      0.434300
     29 HAB2        5.1570   -0.0280    1.7830 hn        1 8R2      0.434300
     30 HAP         4.2100   -0.8030   -1.7450 hn        1 8R2      0.304700
     31 HAL         1.9500   -0.5890   -3.4600 ha        1 8R2      0.149000
     32 HAK        -0.5330   -0.2740   -3.3300 ha        1 8R2      0.157000
     33 HAJ        -4.4250    0.1190   -0.7280 ha        1 8R2      0.170500
     34 HAI        -0.8120    2.5120   -0.5140 ha        1 8R2      0.170500
     35 HAH        -5.7420    2.0110    0.1910 ha        1 8R2      0.144000
     36 HAG        -2.1060    4.4120    0.4110 ha        1 8R2      0.144000
     37 HAO        -5.8440    2.5450    2.2430 ho        1 8R2      0.467000
     38 HA         -5.8590    6.6110    1.7260 hx        1 8R2      0.135700
     39 HN1        -8.2450    6.5220    2.3420 hn        1 8R2      0.469800
     40 HN2        -7.9030    5.8570    0.8340 hn        1 8R2      0.469800
     41 HB1C       -5.0720    5.8740    3.9730 h1        1 8R2      0.097700
     42 HB2C       -6.5980    4.8890    4.2470 h1        1 8R2      0.097700
     43 HG         -6.2910    7.5740    4.5540 ho        1 8R2      0.447000
     44 HN3        -8.2410    4.8590    2.1330 hn        1 8R2      0.469800
@<TRIPOS>BOND
     1    1    2 ar  
     2    1   12 ar  
     3    1   27 1   
     4    2    3 1   
     5    2    9 ar  
     6    3    4 1   
     7    3    6 2   
     8    4    5 3   
     9    6    7 1   
    10    6    8 1   
    11    7   28 1   
    12    7   29 1   
    13    8    9 1   
    14    8   30 1   
    15    9   10 ar  
    16   10   11 ar  
    17   10   31 1   
    18   11   12 ar  
    19   11   32 1   
    20   12   13 1   
    21   13   14 1   
    22   14   15 ar  
    23   14   17 ar  
    24   15   16 ar  
    25   15   33 1   
    26   16   19 ar  
    27   16   35 1   
    28   17   18 ar  
    29   17   34 1   
    30   18   19 ar  
    31   18   36 1   
    32   19   20 1   
    33   20   21 2   
    34   21   22 1   
    35   21   23 1   
    36   22   37 1   
    37   23   24 1   
    38   23   25 1   
    39   23   38 1   
    40   24   39 1   
    41   24   40 1   
    42   24   44 1   
    43   25   26 1   
    44   25   41 1   
    45   25   42 1   
    46   26   43 1   
@<TRIPOS>SUBSTRUCTURE
     1 8R2         1 TEMP              0 ****  ****    0 ROOT
