@<TRIPOS>MOLECULE
8SP
   74    70     1     0     0
SMALL
bcc


@<TRIPOS>ATOM
      1 N           4.0560    6.8680    4.5300 n3        1 8SP     -0.332000
      2 P           1.1220    3.1450    3.9260 p3        1 8SP      2.546000
      3 OG          1.9670    4.5080    3.8420 o         1 8SP     -0.749000
      4 C1A         1.5800   -1.9340    0.1720 c1        1 8SP      0.343000
      5 O1A         1.0840   -2.2670   -0.8860 o         1 8SP     -0.423000
      6 C1B        -1.9350    1.8800   -0.7990 c1        1 8SP      0.300000
      7 O1B        -1.0410    2.3060   -1.5040 o         1 8SP     -0.366000
      8 CB          2.9690    4.7650    4.8650 c3        1 8SP      0.007000
      9 C1G        -0.1600   -0.2870    0.4970 c3        1 8SP     -0.036000
     10 O1G         1.1910   -0.6860    0.7910 o         1 8SP     -0.262000
     11 C2A         2.6080   -2.8510    0.8650 c3        1 8SP     -0.214000
     12 C2B        -3.3800    1.7670   -1.3590 c2        1 8SP     -0.163000
     13 CA          2.9870    6.2500    5.2010 c3        1 8SP     -0.128000
     14 C2G        -0.3410    1.2020    0.8310 c3        1 8SP     -0.002000
     15 O2G        -1.6810    1.5850    0.5680 os        1 8SP     -0.272000
     16 O2P         1.9650    2.0750    4.5480 o         1 8SP     -1.159000
     17 C3A         2.7660   -4.1740    0.0440 c3        1 8SP     -0.124000
     18 C3B        -3.5170    2.6570   -2.6290 c3        1 8SP     -0.153000
     19 C           3.1620    6.4280    6.7060 c2        1 8SP      0.335000
     20 O           2.2150    6.9020    7.4000 o         1 8SP     -0.597000
     21 OXT         4.2760    6.2020    7.2370 o         1 8SP     -0.597000
     22 C3G        -0.0290    1.4320    2.2810 c3        1 8SP      0.038000
     23 O3G         0.6790    2.6840    2.4320 os        1 8SP     -0.738000
     24 O3P        -0.1020    3.3670    4.7620 o         1 8SP     -1.159000
     25 C4A         3.5580   -5.2130    0.8860 c3        1 8SP     -0.185000
     26 C4B        -4.8120    2.2880   -3.3790 c3        1 8SP     -0.162000
     27 C5A         3.4990   -6.5840    0.1970 c3        1 8SP     -0.145000
     28 C5B        -4.9970    3.2450   -4.6020 c3        1 8SP     -0.155000
     29 C6A         3.9100   -7.6810    1.1980 c3        1 8SP     -0.162000
     30 C6B        -6.0950    2.6740   -5.5480 c3        1 8SP     -0.159000
     31 C7A         3.7280   -9.0670    0.5480 c3        1 8SP     -0.157000
     32 C7B        -6.1520    3.5050   -6.8240 c3        1 8SP     -0.158000
     33 C8A         3.8440  -10.1340    1.6000 c3        1 8SP     -0.207000
     34 C8B        -7.0660    2.8020   -7.8580 c3        1 8SP     -0.209000
     35 HB3         2.7510    4.2470    5.6760 h1        1 8SP      0.073500
     36 HB2         3.8430    4.4960    4.5350 h1        1 8SP      0.073500
     37 H11G       -0.3410   -0.4310   -0.4460 h1        1 8SP      0.091500
     38 H21G       -0.7800   -0.8190    1.0310 h1        1 8SP      0.091500
     39 H           4.4900    6.2560    4.0270 hn        1 8SP      0.130000
     40 H12A        2.3010   -3.0610    1.7590 hc        1 8SP      0.197000
     41 H22A        3.4730   -2.3930    0.9160 hc        1 8SP      0.197000
     42 H12B       -3.5680    0.8270   -1.5950 ha        1 8SP      0.110000
     43 H22B       -4.0210    2.0690   -0.6760 ha        1 8SP      0.110000
     44 HA          2.1410    6.6610    4.9180 h1        1 8SP      0.091000
     45 H2G         0.2680    1.7380    0.2760 h1        1 8SP      0.142000
     46 H2          3.7320    7.5390    3.9870 hn        1 8SP      0.130000
     47 H13A        1.8820   -4.5340   -0.1690 hc        1 8SP      0.060500
     48 H23A        3.2580   -3.9860   -0.7970 hc        1 8SP      0.060500
     49 H13B       -2.7480    2.5120   -3.2150 hc        1 8SP      0.085000
     50 H23B       -3.5520    3.5980   -2.3650 hc        1 8SP      0.085000
     51 H13G       -0.8600    1.4650    2.7920 h1        1 8SP      0.085000
     52 H23G        0.5260    0.7040    2.6120 h1        1 8SP      0.085000
     53 H14A        3.1660   -5.2780    1.7690 hc        1 8SP      0.122000
     54 H24A        4.5000   -4.9250    0.9640 hc        1 8SP      0.122000
     55 H14B       -5.5710    2.3780   -2.7800 hc        1 8SP      0.088500
     56 H24B       -4.7530    1.3640   -3.6950 hc        1 8SP      0.088500
     57 H15A        4.1170   -6.5920   -0.5740 hc        1 8SP      0.059000
     58 H25A        2.5990   -6.7510   -0.1100 hc        1 8SP      0.059000
     59 H15B       -4.1460    3.3190   -5.0910 hc        1 8SP      0.074500
     60 H25B       -5.2690    4.1340   -4.2840 hc        1 8SP      0.074500
     61 H16A        3.3500   -7.6210    1.9980 hc        1 8SP      0.088500
     62 H26A        4.8560   -7.5590    1.4490 hc        1 8SP      0.088500
     63 H16B       -5.8810    1.7480   -5.7730 hc        1 8SP      0.083000
     64 H26B       -6.9600    2.7080   -5.1000 hc        1 8SP      0.083000
     65 H17A        2.8420   -9.1180    0.1280 hc        1 8SP      0.066500
     66 H27A        4.4230   -9.2020   -0.1350 hc        1 8SP      0.066500
     67 H17B       -5.2480    3.5970   -7.1950 hc        1 8SP      0.073500
     68 H27B       -6.5140    4.3940   -6.6190 hc        1 8SP      0.073500
     69 H18A        3.6930  -11.0180    1.1910 hc        1 8SP      0.063333
     70 H28A        3.1810   -9.9810    2.2920 hc        1 8SP      0.063333
     71 H38A        4.7410  -10.1060    1.9950 hc        1 8SP      0.063333
     72 H18B       -6.7040    1.9120   -8.0630 hc        1 8SP      0.068667
     73 H28B       -7.9710    2.7100   -7.4860 hc        1 8SP      0.068667
     74 H38B       -7.1030    3.3410   -8.6840 hc        1 8SP      0.068667
@<TRIPOS>BOND
     1    1   13 1   
     2    1   39 1   
     3    1   46 1   
     4    2   16 1   
     5    2   23 1   
     6    2   24 1   
     7    3    8 1   
     8    4    5 1   
     9    4   11 1   
    10    6    7 1   
    11    6   15 1   
    12    8   13 1   
    13    8   35 1   
    14    8   36 1   
    15    9   10 1   
    16    9   14 1   
    17    9   37 1   
    18    9   38 1   
    19   11   17 1   
    20   11   40 1   
    21   11   41 1   
    22   12   18 1   
    23   12   42 1   
    24   12   43 1   
    25   13   19 1   
    26   13   44 1   
    27   14   15 1   
    28   14   22 1   
    29   14   45 1   
    30   17   25 1   
    31   17   47 1   
    32   17   48 1   
    33   18   26 1   
    34   18   49 1   
    35   18   50 1   
    36   19   20 1   
    37   19   21 1   
    38   22   23 1   
    39   22   51 1   
    40   22   52 1   
    41   25   27 1   
    42   25   53 1   
    43   25   54 1   
    44   26   28 1   
    45   26   55 1   
    46   26   56 1   
    47   27   29 1   
    48   27   57 1   
    49   27   58 1   
    50   28   30 1   
    51   28   59 1   
    52   28   60 1   
    53   29   31 1   
    54   29   61 1   
    55   29   62 1   
    56   30   32 1   
    57   30   63 1   
    58   30   64 1   
    59   31   33 1   
    60   31   65 1   
    61   31   66 1   
    62   32   34 1   
    63   32   67 1   
    64   32   68 1   
    65   33   69 1   
    66   33   70 1   
    67   33   71 1   
    68   34   72 1   
    69   34   73 1   
    70   34   74 1   
@<TRIPOS>SUBSTRUCTURE
     1 8SP         1 TEMP              0 ****  ****    0 ROOT
