@<TRIPOS>MOLECULE
8SP
   74    73     1     0     0
SMALL
bcc


@<TRIPOS>ATOM
      1 N           2.5990    2.9240    1.0800 n3        1 8SP     -0.913800
      2 P           1.2210    2.0530   -2.5170 p5        1 8SP      1.431800
      3 OG          2.1290    1.2060   -1.4370 os        1 8SP     -0.610200
      4 C1A         1.2260   -2.3210   -0.8550 c         1 8SP      0.659100
      5 O1A         1.3790   -3.1490   -1.7580 o         1 8SP     -0.576000
      6 C1B        -3.7750   -1.0600   -0.7860 c         1 8SP      0.634100
      7 O1B        -4.0720   -1.6490   -1.8320 o         1 8SP     -0.578000
      8 CB          3.3520    1.7760   -1.0520 c3        1 8SP      0.166400
      9 C1G        -0.9130   -1.7910   -1.7930 c3        1 8SP      0.128400
     10 O1G        -0.0450   -1.8290   -0.6580 os        1 8SP     -0.450900
     11 C2A         2.2080   -1.7410    0.1050 c3        1 8SP     -0.153400
     12 C2B        -4.5980   -0.9590    0.4670 c3        1 8SP     -0.133400
     13 CA          3.4430    1.9090    0.4850 c3        1 8SP      0.028500
     14 C2G        -1.6650   -0.4620   -1.7790 c3        1 8SP      0.133100
     15 O2G        -2.5890   -0.4180   -0.6670 os        1 8SP     -0.415900
     16 O2P         0.5850    3.1660   -1.7820 o         1 8SP     -0.835000
     17 C3A         3.4570   -2.5830    0.2340 c3        1 8SP     -0.061400
     18 C3B        -6.0750   -0.8910    0.1460 c3        1 8SP     -0.077400
     19 C           4.9510    2.0920    0.8380 c         1 8SP      0.915600
     20 O           5.4350    3.2570    0.9190 o         1 8SP     -0.861800
     21 OXT         5.6360    1.0410    1.0240 o         1 8SP     -0.861800
     22 C3G        -0.7420    0.7490   -1.5660 c3        1 8SP      0.180400
     23 O3G         0.0460    0.8910   -2.7060 os        1 8SP     -0.563200
     24 O3P         1.9160    2.1710   -3.8110 o         1 8SP     -0.835000
     25 C4A         4.4270   -1.9290    1.1920 c3        1 8SP     -0.111400
     26 C4B        -6.9050   -0.9290    1.4110 c3        1 8SP     -0.078400
     27 C5A         5.7560   -2.6510    1.2220 c3        1 8SP     -0.054400
     28 C5B        -8.3840   -0.8420    1.0970 c3        1 8SP     -0.078400
     29 C6A         6.7450   -1.8970    2.0860 c3        1 8SP     -0.102400
     30 C6B        -9.2170   -0.8850    2.3590 c3        1 8SP     -0.079400
     31 C7A         8.1300   -2.5000    2.0010 c3        1 8SP     -0.071400
     32 C7B       -10.6960   -0.7960    2.0470 c3        1 8SP     -0.080400
     33 C8A         9.1090   -1.7520    2.8700 c3        1 8SP     -0.089100
     34 C8B       -11.5310   -0.8400    3.3010 c3        1 8SP     -0.091100
     35 HB3         4.1790    1.0840   -1.3830 h1        1 8SP      0.025700
     36 HB2         3.4820    2.7740   -1.5510 h1        1 8SP      0.025700
     37 H11G       -0.3260   -1.8640   -2.7460 h1        1 8SP      0.061200
     38 H21G       -1.6260   -2.6510   -1.7000 h1        1 8SP      0.061200
     39 H           3.1030    3.7920    1.1110 hn        1 8SP      0.347300
     40 H12A        2.4660   -0.7070   -0.2910 hc        1 8SP      0.115200
     41 H22A        1.7180   -1.5950    1.1020 hc        1 8SP      0.115200
     42 H12B       -4.3720   -1.8650    1.0890 hc        1 8SP      0.075200
     43 H22B       -4.2780   -0.0560    1.0500 hc        1 8SP      0.075200
     44 HA          3.1100    0.9210    0.9220 h1        1 8SP      0.039700
     45 H2G        -2.2350   -0.3650   -2.7420 h1        1 8SP      0.071700
     46 H2          1.7730    3.0590    0.5260 hn        1 8SP      0.347300
     47 H13A        3.1910   -3.6120    0.5920 hc        1 8SP      0.030200
     48 H23A        3.9310   -2.6980   -0.7760 hc        1 8SP      0.030200
     49 H13B       -6.2920    0.0530   -0.4220 hc        1 8SP      0.053700
     50 H23B       -6.3510   -1.7480   -0.5240 hc        1 8SP      0.053700
     51 H13G       -1.3530    1.6790   -1.4130 h1        1 8SP      0.053700
     52 H23G       -0.0860    0.5850   -0.6670 h1        1 8SP      0.053700
     53 H14A        4.6020   -0.8480    0.8950 hc        1 8SP      0.081700
     54 H24A        3.9860   -1.9140    2.2230 hc        1 8SP      0.081700
     55 H14B       -6.6960   -1.8790    1.9710 hc        1 8SP      0.039200
     56 H24B       -6.6120   -0.0780    2.0800 hc        1 8SP      0.039200
     57 H15A        5.6240   -3.6970    1.6070 hc        1 8SP      0.013200
     58 H25A        6.1590   -2.7330    0.1780 hc        1 8SP      0.013200
     59 H15B       -8.5930    0.1090    0.5390 hc        1 8SP      0.039700
     60 H25B       -8.6750   -1.6900    0.4230 hc        1 8SP      0.039700
     61 H16A        6.7670   -0.8170    1.7560 hc        1 8SP      0.075700
     62 H26A        6.3950   -1.9080    3.1510 hc        1 8SP      0.075700
     63 H16B       -9.0080   -1.8360    2.9160 hc        1 8SP      0.038700
     64 H26B       -8.9240   -0.0370    3.0320 hc        1 8SP      0.038700
     65 H17A        8.0970   -3.5780    2.3120 hc        1 8SP      0.019700
     66 H27A        8.4810   -2.4740    0.9360 hc        1 8SP      0.019700
     67 H17B      -10.9030    0.1550    1.4890 hc        1 8SP      0.037700
     68 H27B      -10.9870   -1.6440    1.3710 hc        1 8SP      0.037700
     69 H18A        8.8050   -1.8090    3.9430 hc        1 8SP      0.024367
     70 H28A       10.1340   -2.1830    2.7710 hc        1 8SP      0.024367
     71 H38A        9.1430   -0.6750    2.5750 hc        1 8SP      0.024367
     72 H18B      -11.2720    0.0120    3.9760 hc        1 8SP      0.028700
     73 H28B      -12.6170   -0.7720    3.0490 hc        1 8SP      0.028700
     74 H38B      -11.3560   -1.7920    3.8580 hc        1 8SP      0.028700
@<TRIPOS>BOND
     1    1   13 1   
     2    1   39 1   
     3    1   46 1   
     4    2    3 1   
     5    2   16 1   
     6    2   23 1   
     7    2   24 1   
     8    3    8 1   
     9    4    5 2   
    10    4   10 1   
    11    4   11 1   
    12    6    7 2   
    13    6   12 1   
    14    6   15 1   
    15    8   13 1   
    16    8   35 1   
    17    8   36 1   
    18    9   10 1   
    19    9   14 1   
    20    9   37 1   
    21    9   38 1   
    22   11   17 1   
    23   11   40 1   
    24   11   41 1   
    25   12   18 1   
    26   12   42 1   
    27   12   43 1   
    28   13   19 1   
    29   13   44 1   
    30   14   15 1   
    31   14   22 1   
    32   14   45 1   
    33   17   25 1   
    34   17   47 1   
    35   17   48 1   
    36   18   26 1   
    37   18   49 1   
    38   18   50 1   
    39   19   20 1   
    40   19   21 1   
    41   22   23 1   
    42   22   51 1   
    43   22   52 1   
    44   25   27 1   
    45   25   53 1   
    46   25   54 1   
    47   26   28 1   
    48   26   55 1   
    49   26   56 1   
    50   27   29 1   
    51   27   57 1   
    52   27   58 1   
    53   28   30 1   
    54   28   59 1   
    55   28   60 1   
    56   29   31 1   
    57   29   61 1   
    58   29   62 1   
    59   30   32 1   
    60   30   63 1   
    61   30   64 1   
    62   31   33 1   
    63   31   65 1   
    64   31   66 1   
    65   32   34 1   
    66   32   67 1   
    67   32   68 1   
    68   33   69 1   
    69   33   70 1   
    70   33   71 1   
    71   34   72 1   
    72   34   73 1   
    73   34   74 1   
@<TRIPOS>SUBSTRUCTURE
     1 8SP         1 TEMP              0 ****  ****    0 ROOT
