@<TRIPOS>MOLECULE
8ST
   40    42     1     0     0
SMALL
bcc


@<TRIPOS>ATOM
      1 CL16       -0.0110   -0.0820    0.8190 cl        1 8ST     -0.096400
      2 C13         1.6590    0.0010    0.5120 ca        1 8ST     -0.012600
      3 C12         2.5530    0.1900    1.5710 ca        1 8ST     -0.097500
      4 C11         3.9170    0.2610    1.3230 ca        1 8ST     -0.163500
      5 C14         2.1380   -0.1190   -0.7940 ca        1 8ST     -0.097500
      6 C15         3.5030   -0.0520   -1.0520 ca        1 8ST     -0.163500
      7 C10         4.4200    0.1400    0.0030 ca        1 8ST      0.071600
      8 N9          5.8090    0.2030   -0.1860 n         1 8ST     -0.465100
      9 C7          6.4960    0.2880   -1.3910 c         1 8ST      0.692700
     10 O8          5.9180    0.3240   -2.4950 o         1 8ST     -0.604100
     11 C2          7.9830    0.3380   -1.2770 ca        1 8ST     -0.223600
     12 C3          8.7250    1.3160   -1.9970 ca        1 8ST      0.218600
     13 C4         10.1390    1.2990   -1.8650 ca        1 8ST     -0.206000
     14 C5         10.7680    0.3550   -1.0670 ca        1 8ST     -0.066000
     15 C6         10.0270   -0.6060   -0.3770 ca        1 8ST     -0.185000
     16 C1          8.6420   -0.6070   -0.4850 ca        1 8ST     -0.066000
     17 N17         8.0730    2.3040   -2.7290 nh        1 8ST     -0.744600
     18 C18         8.8240    3.0750   -3.6940 c3        1 8ST      0.237100
     19 C19         7.9560    3.8810   -4.6150 ca        1 8ST     -0.066300
     20 C24         8.2080    3.8780   -5.9920 ca        1 8ST     -0.233300
     21 C23         7.4030    4.6790   -6.8230 ca        1 8ST      0.394200
     22 N22         6.3950    5.4470   -6.3680 nb        1 8ST     -0.659000
     23 C21         6.1620    5.4350   -5.0410 ca        1 8ST      0.394200
     24 C20         6.9120    4.6740   -4.1260 ca        1 8ST     -0.233300
     25 H12         2.1800    0.2860    2.6020 ha        1 8ST      0.148500
     26 H11         4.6030    0.4120    2.1720 ha        1 8ST      0.155500
     27 H14         1.4370   -0.2690   -1.6300 ha        1 8ST      0.148500
     28 H15         3.8550   -0.1500   -2.0930 ha        1 8ST      0.155500
     29 HN9         6.3560    0.2530    0.6460 hn        1 8ST      0.322500
     30 H4         10.7520    2.0430   -2.3950 ha        1 8ST      0.139000
     31 H5         11.8660    0.3630   -0.9830 ha        1 8ST      0.135000
     32 H6         10.5360   -1.3580    0.2430 ha        1 8ST      0.139000
     33 H1          8.0590   -1.3760    0.0460 ha        1 8ST      0.136000
     34 HN17        7.1390    2.0790   -3.0150 hn        1 8ST      0.439800
     35 H18         9.4880    3.7910   -3.1230 h1        1 8ST      0.051700
     36 H18A        9.4980    2.4080   -4.3100 h1        1 8ST      0.051700
     37 H24         9.0120    3.2670   -6.4230 ha        1 8ST      0.149500
     38 H23         7.5720    4.7050   -7.9150 h4        1 8ST      0.024600
     39 H21         5.3280    6.0710   -4.6940 h4        1 8ST      0.024600
     40 H20         6.6790    4.7090   -3.0530 ha        1 8ST      0.149500
@<TRIPOS>BOND
     1    1    2 1   
     2    2    3 ar  
     3    2    5 ar  
     4    3    4 ar  
     5    3   25 1   
     6    4    7 ar  
     7    4   26 1   
     8    5    6 ar  
     9    5   27 1   
    10    6    7 ar  
    11    6   28 1   
    12    7    8 1   
    13    8    9 1   
    14    8   29 1   
    15    9   10 2   
    16    9   11 1   
    17   11   12 ar  
    18   11   16 ar  
    19   12   13 ar  
    20   12   17 1   
    21   13   14 ar  
    22   13   30 1   
    23   14   15 ar  
    24   14   31 1   
    25   15   16 ar  
    26   15   32 1   
    27   16   33 1   
    28   17   18 1   
    29   17   34 1   
    30   18   19 1   
    31   18   35 1   
    32   18   36 1   
    33   19   20 ar  
    34   19   24 ar  
    35   20   21 ar  
    36   20   37 1   
    37   21   22 ar  
    38   21   38 1   
    39   22   23 ar  
    40   23   24 ar  
    41   23   39 1   
    42   24   40 1   
@<TRIPOS>SUBSTRUCTURE
     1 8ST         1 TEMP              0 ****  ****    0 ROOT
