@<TRIPOS>MOLECULE
8ST
   42    44     1     0     0
SMALL
bcc


@<TRIPOS>ATOM
      1 CL16        1.4600   -3.2230    0.0610 cl        1 8ST      0.035600
      2 C13         2.6240   -2.0210    0.1780 ca        1 8ST      0.075400
      3 C12         2.4710   -0.8210   -0.5360 ca        1 8ST     -0.101500
      4 C11         3.4300    0.1810   -0.4400 ca        1 8ST     -0.090500
      5 C14         3.7510   -2.2100    0.9960 ca        1 8ST     -0.101500
      6 C15         4.7180   -1.2180    1.1010 ca        1 8ST     -0.090500
      7 C10         4.5590   -0.0220    0.3760 ca        1 8ST     -0.102400
      8 N9          5.5450    1.0570    0.5300 n4        1 8ST     -0.519200
      9 C7          6.1550    1.4750   -0.7810 c         1 8ST      0.571700
     10 O8          5.6170    2.4540   -1.3010 o         1 8ST     -0.474100
     11 C2          7.3190    0.7460   -1.3050 ca        1 8ST     -0.180600
     12 C3          8.1200    1.3080   -2.3490 ca        1 8ST      0.031600
     13 C4          9.2300    0.6000   -2.8220 ca        1 8ST     -0.093000
     14 C5          9.5480   -0.6600   -2.2970 ca        1 8ST     -0.029000
     15 C6          8.7560   -1.2240   -1.3040 ca        1 8ST     -0.083000
     16 C1          7.6500   -0.5230   -0.8160 ca        1 8ST     -0.053000
     17 N17         7.7710    2.6090   -2.9270 n4        1 8ST     -0.650400
     18 C18         8.7120    3.1470   -3.9790 c3        1 8ST      0.179100
     19 C19         8.2420    4.4840   -4.4390 ca        1 8ST     -0.163300
     20 C24         7.3450    4.5890   -5.5090 ca        1 8ST     -0.223800
     21 C23         6.9760    5.8790   -5.9420 ca        1 8ST      0.425700
     22 N22         7.4390    7.0100   -5.3770 nb        1 8ST     -0.596000
     23 C21         8.3050    6.8920   -4.3530 ca        1 8ST      0.425700
     24 C20         8.7370    5.6510   -3.8430 ca        1 8ST     -0.223800
     25 H12         1.5800   -0.6630   -1.1720 ha        1 8ST      0.195500
     26 H11         3.2860    1.1240   -0.9960 ha        1 8ST      0.162500
     27 H14         3.8660   -3.1470    1.5710 ha        1 8ST      0.195500
     28 H15         5.5800   -1.3820    1.7710 ha        1 8ST      0.162500
     29 HN9         6.2810    0.7590    1.1830 hn        1 8ST      0.479300
     30 H4          9.8840    0.9990   -3.6190 ha        1 8ST      0.188000
     31 H5         10.4310   -1.2030   -2.6880 ha        1 8ST      0.204000
     32 H6          8.9940   -2.2260   -0.9000 ha        1 8ST      0.200000
     33 H1          7.0270   -1.0200   -0.0500 ha        1 8ST      0.165000
     34 HN17        6.8270    2.5360   -3.3430 hn        1 8ST      0.466300
     35 H18         8.7260    2.4140   -4.8380 hx        1 8ST      0.117700
     36 H18A        9.7410    3.2190   -3.5220 hx        1 8ST      0.117700
     37 H24         6.9530    3.7030   -6.0250 ha        1 8ST      0.153000
     38 H23         6.2770    6.0140   -6.7920 h4        1 8ST      0.063100
     39 H21         8.6770    7.8430   -3.9220 h4        1 8ST      0.063100
     40 H20         9.4630    5.6180   -3.0190 ha        1 8ST      0.153000
     41 H92         5.0510    1.8750    0.9310 hn        1 8ST      0.479300
     42 H172        7.7090    3.3050   -2.1670 hn        1 8ST      0.466300
@<TRIPOS>BOND
     1    1    2 1   
     2    2    3 ar  
     3    2    5 ar  
     4    3    4 ar  
     5    3   25 1   
     6    4    7 ar  
     7    4   26 1   
     8    5    6 ar  
     9    5   27 1   
    10    6    7 ar  
    11    6   28 1   
    12    7    8 1   
    13    8    9 1   
    14    8   29 1   
    15    8   41 1   
    16    9   10 2   
    17    9   11 1   
    18   11   12 ar  
    19   11   16 ar  
    20   12   13 ar  
    21   12   17 1   
    22   13   14 ar  
    23   13   30 1   
    24   14   15 ar  
    25   14   31 1   
    26   15   16 ar  
    27   15   32 1   
    28   16   33 1   
    29   17   18 1   
    30   17   34 1   
    31   17   42 1   
    32   18   19 1   
    33   18   35 1   
    34   18   36 1   
    35   19   20 ar  
    36   19   24 ar  
    37   20   21 ar  
    38   20   37 1   
    39   21   22 ar  
    40   21   38 1   
    41   22   23 ar  
    42   23   24 ar  
    43   23   39 1   
    44   24   40 1   
@<TRIPOS>SUBSTRUCTURE
     1 8ST         1 TEMP              0 ****  ****    0 ROOT
