@<TRIPOS>MOLECULE
8ST
   40    42     1     0     0
SMALL
bcc


@<TRIPOS>ATOM
      1 CL16       -6.4720    1.5950   -0.2030 cl        1 8ST     -0.094400
      2 C13        -5.0150    0.7220   -0.1530 ca        1 8ST     -0.010600
      3 C12        -4.9550   -0.4940    0.5350 ca        1 8ST     -0.097500
      4 C11        -3.7660   -1.2090    0.5780 ca        1 8ST     -0.161500
      5 C14        -3.8800    1.2170   -0.7970 ca        1 8ST     -0.097500
      6 C15        -2.6840    0.5070   -0.7610 ca        1 8ST     -0.161500
      7 C10        -2.6040   -0.7210   -0.0710 ca        1 8ST      0.069600
      8 N9         -1.4330   -1.4930   -0.0070 n         1 8ST     -0.463100
      9 C7         -0.1550   -1.1260   -0.4050 c         1 8ST      0.692700
     10 O8          0.1080   -0.0020   -0.8790 o         1 8ST     -0.614100
     11 C2          0.9000   -2.1660   -0.2280 ca        1 8ST     -0.223600
     12 C3          2.1470   -1.8210    0.3600 ca        1 8ST      0.205600
     13 C4          3.1360   -2.8360    0.4520 ca        1 8ST     -0.191000
     14 C5          2.8880   -4.1160   -0.0190 ca        1 8ST     -0.070000
     15 C6          1.6570   -4.4390   -0.5940 ca        1 8ST     -0.179000
     16 C1          0.6720   -3.4650   -0.6920 ca        1 8ST     -0.069000
     17 N17         2.3630   -0.5620    0.9240 nh        1 8ST     -0.731600
     18 C18         3.6890    0.0130    0.8660 c3        1 8ST      0.231100
     19 C19         3.7420    1.4470    0.4250 ca        1 8ST     -0.073300
     20 C24         2.9050    1.9560   -0.5740 ca        1 8ST     -0.241300
     21 C23         3.0550    3.3040   -0.9500 ca        1 8ST      0.395700
     22 N22         3.9620    4.1370   -0.4050 nb        1 8ST     -0.663000
     23 C21         4.7600    3.6320    0.5560 ca        1 8ST      0.395700
     24 C20         4.6880    2.3030    1.0060 ca        1 8ST     -0.241300
     25 H12        -5.8480   -0.8880    1.0450 ha        1 8ST      0.149000
     26 H11        -3.7410   -2.1630    1.1270 ha        1 8ST      0.155500
     27 H14        -3.9230    2.1750   -1.3400 ha        1 8ST      0.149000
     28 H15        -1.8020    0.9210   -1.2780 ha        1 8ST      0.155500
     29 HN9        -1.5290   -2.3860    0.4270 hn        1 8ST      0.323500
     30 H4          4.1100   -2.6110    0.9150 ha        1 8ST      0.141000
     31 H5          3.6720   -4.8850    0.0630 ha        1 8ST      0.136000
     32 H6          1.4710   -5.4550   -0.9700 ha        1 8ST      0.139000
     33 H1         -0.2910   -3.7170   -1.1630 ha        1 8ST      0.136000
     34 HN17        1.6330    0.1020    0.7480 hn        1 8ST      0.426800
     35 H18         4.1270   -0.0700    1.9050 h1        1 8ST      0.060200
     36 H18A        4.3590   -0.5750    0.1690 h1        1 8ST      0.060200
     37 H24         2.1390    1.3360   -1.0660 ha        1 8ST      0.156500
     38 H23         2.4100    3.7410   -1.7340 h4        1 8ST      0.024100
     39 H21         5.4940    4.3340    0.9890 h4        1 8ST      0.024100
     40 H20         5.3610    1.9480    1.7980 ha        1 8ST      0.156500
@<TRIPOS>BOND
     1    1    2 1   
     2    2    3 ar  
     3    2    5 ar  
     4    3    4 ar  
     5    3   25 1   
     6    4    7 ar  
     7    4   26 1   
     8    5    6 ar  
     9    5   27 1   
    10    6    7 ar  
    11    6   28 1   
    12    7    8 1   
    13    8    9 1   
    14    8   29 1   
    15    9   10 2   
    16    9   11 1   
    17   11   12 ar  
    18   11   16 ar  
    19   12   13 ar  
    20   12   17 1   
    21   13   14 ar  
    22   13   30 1   
    23   14   15 ar  
    24   14   31 1   
    25   15   16 ar  
    26   15   32 1   
    27   16   33 1   
    28   17   18 1   
    29   17   34 1   
    30   18   19 1   
    31   18   35 1   
    32   18   36 1   
    33   19   20 ar  
    34   19   24 ar  
    35   20   21 ar  
    36   20   37 1   
    37   21   22 ar  
    38   21   38 1   
    39   22   23 ar  
    40   23   24 ar  
    41   23   39 1   
    42   24   40 1   
@<TRIPOS>SUBSTRUCTURE
     1 8ST         1 TEMP              0 ****  ****    0 ROOT
