@<TRIPOS>MOLECULE
8ST
   40    42     1     0     0
SMALL
bcc


@<TRIPOS>ATOM
      1 Cl16       -0.0200   -0.4600    0.3520 cl        1 8ST     -0.094400
      2 C13         1.6580   -0.2950    0.1370 ca        1 8ST     -0.010600
      3 C12         2.5140   -0.3980    1.2370 ca        1 8ST     -0.097500
      4 C11         3.8850   -0.2630    1.0650 ca        1 8ST     -0.161500
      5 C14         2.1800   -0.0560   -1.1350 ca        1 8ST     -0.097500
      6 C15         3.5520    0.0790   -1.3190 ca        1 8ST     -0.161500
      7 C10         4.4320   -0.0210   -0.2200 ca        1 8ST      0.069600
      8 N9          5.8260    0.0920   -0.3380 ns        1 8ST     -0.463100
      9 C7          6.5510    0.5050   -1.4480 c         1 8ST      0.692700
     10 O8          6.0090    0.8500   -2.5180 o         1 8ST     -0.614100
     11 C2          8.0340    0.5150   -1.2840 ca        1 8ST     -0.223600
     12 C3          8.7890    1.6400   -1.7120 ca        1 8ST      0.205600
     13 C4         10.2020    1.5730   -1.5860 ca        1 8ST     -0.191000
     14 C5         10.8170    0.4460   -1.0640 ca        1 8ST     -0.070000
     15 C6         10.0600   -0.6520   -0.6470 ca        1 8ST     -0.179000
     16 C1          8.6760   -0.6090   -0.7560 ca        1 8ST     -0.069000
     17 N17         8.1670    2.8130   -2.1450 nu        1 8ST     -0.731600
     18 C18         8.8090    3.6090   -3.1700 c3        1 8ST      0.231100
     19 C19         7.9070    4.0580   -4.2830 ca        1 8ST     -0.073300
     20 C24         6.8990    3.2430   -4.8070 ca        1 8ST     -0.241300
     21 C23         6.1300    3.7340   -5.8790 ca        1 8ST      0.395700
     22 N22         6.3100    4.9470   -6.4350 nb        1 8ST     -0.663000
     23 C21         7.2850    5.7210   -5.9180 ca        1 8ST      0.395700
     24 C20         8.1040    5.3260   -4.8470 ca        1 8ST     -0.241300
     25 H12         2.1070   -0.5860    2.2430 ha        1 8ST      0.149000
     26 H11         4.5410   -0.3460    1.9460 ha        1 8ST      0.155500
     27 H14         1.5080    0.0260   -2.0050 ha        1 8ST      0.149000
     28 H15         3.9390    0.2670   -2.3350 ha        1 8ST      0.155500
     29 HN9         6.3460   -0.0930    0.4930 hn        1 8ST      0.323500
     30 H4         10.8200    2.4300   -1.8930 ha        1 8ST      0.141000
     31 H5         11.9140    0.4170   -0.9770 ha        1 8ST      0.136000
     32 H6         10.5570   -1.5440   -0.2390 ha        1 8ST      0.139000
     33 H1          8.0830   -1.4840   -0.4460 ha        1 8ST      0.136000
     34 HN17        7.1740    2.7370   -2.2630 hn        1 8ST      0.426800
     35 H18         9.2400    4.5180   -2.6540 h1        1 8ST      0.060200
     36 H18A        9.6700    3.0480   -3.6430 h1        1 8ST      0.060200
     37 H24         6.6920    2.2380   -4.4050 ha        1 8ST      0.156500
     38 H23         5.3230    3.1190   -6.3170 h4        1 8ST      0.024100
     39 H21         7.4120    6.7120   -6.3890 h4        1 8ST      0.024100
     40 H20         8.8790    6.0020   -4.4640 ha        1 8ST      0.156500
@<TRIPOS>BOND
     1    1    2 1   
     2    2    3 ar  
     3    2    5 ar  
     4    3    4 ar  
     5    3   25 1   
     6    4    7 ar  
     7    4   26 1   
     8    5    6 ar  
     9    5   27 1   
    10    6    7 ar  
    11    6   28 1   
    12    7    8 1   
    13    8    9 1   
    14    8   29 1   
    15    9   10 2   
    16    9   11 1   
    17   11   12 ar  
    18   11   16 ar  
    19   12   13 ar  
    20   12   17 1   
    21   13   14 ar  
    22   13   30 1   
    23   14   15 ar  
    24   14   31 1   
    25   15   16 ar  
    26   15   32 1   
    27   16   33 1   
    28   17   18 1   
    29   17   34 1   
    30   18   19 1   
    31   18   35 1   
    32   18   36 1   
    33   19   20 ar  
    34   19   24 ar  
    35   20   21 ar  
    36   20   37 1   
    37   21   22 ar  
    38   21   38 1   
    39   22   23 ar  
    40   23   24 ar  
    41   23   39 1   
    42   24   40 1   
@<TRIPOS>SUBSTRUCTURE
     1 8ST         1 TEMP              0 ****  ****    0 ROOT
