@<TRIPOS>MOLECULE
8ST
   40    36     1     0     0
SMALL
bcc


@<TRIPOS>ATOM
      1 CL16       -7.0320    0.2160    2.7710 cl        1 8ST     -0.016000
      2 C13        -5.2930    0.3450    2.7310 c2        1 8ST     -0.089000
      3 C12        -4.6300    1.0820    3.7020 c2        1 8ST     -0.097000
      4 C11        -3.2520    1.2390    3.6340 c1        1 8ST     -0.176000
      5 C14        -4.5800   -0.2350    1.6940 c1        1 8ST     -0.098000
      6 C15        -3.2000   -0.0780    1.6270 c1        1 8ST     -0.147000
      7 C10        -2.5380    0.6590    2.5970 c1        1 8ST      0.077000
      8 N9         -1.1010    0.7750    2.5580 n         1 8ST     -0.317000
      9 C7         -0.3530    0.1370    1.4990 c2        1 8ST      0.366000
     10 O8         -0.9350   -0.4980    0.6400 o         1 8ST     -0.375000
     11 C2          1.1740    0.3010    1.4310 c2        1 8ST     -0.203000
     12 C3          1.8500    0.0330    0.2470 c2        1 8ST      0.124000
     13 C4          3.2250    0.1880    0.1840 c1        1 8ST     -0.191000
     14 C5          3.9290    0.6110    1.3030 c1        1 8ST     -0.124500
     15 C6          3.2550    0.8790    2.4850 c1        1 8ST     -0.124500
     16 C1          1.8770    0.7230    2.5490 c1        1 8ST     -0.069000
     17 N17         1.1120   -0.2920   -0.9400 n3        1 8ST     -0.287000
     18 C18         1.5200   -1.4080   -1.7570 c3        1 8ST     -0.013000
     19 C19         1.4490   -1.0140   -3.2340 c2        1 8ST     -0.066000
     20 C24         0.2550   -0.6520   -3.7880 c2        1 8ST     -0.176000
     21 C23         0.1820   -0.3480   -5.1410 c1        1 8ST     -0.067000
     22 N22         1.3020   -0.4110   -5.9150 n1        1 8ST     -0.137000
     23 C21         2.4940   -0.7710   -5.3640 c1        1 8ST     -0.072000
     24 C20         2.5700   -1.0760   -4.0120 c1        1 8ST     -0.176000
     25 H12        -5.1340    1.4920    4.4340 ha        1 8ST      0.148000
     26 H11        -2.7870    1.7560    4.3150 ha        1 8ST      0.135000
     27 H14        -5.0480   -0.7560    1.0080 ha        1 8ST      0.150000
     28 H15        -2.7000   -0.4850    0.9000 ha        1 8ST      0.176000
     29 HN9        -0.6590    1.2150    3.2320 hn        1 8ST      0.237000
     30 H4          3.6990    0.0010   -0.6460 ha        1 8ST      0.141000
     31 H5          4.9020    0.7210    1.2580 ha        1 8ST      0.137500
     32 H6          3.7490    1.1760    3.2720 ha        1 8ST      0.137500
     33 H1          1.4050    0.9110    3.3780 ha        1 8ST      0.136000
     34 HN17        0.4330    0.2470   -1.2150 hn        1 8ST      0.222000
     35 H18         2.4390   -1.6600   -1.5300 h1        1 8ST      0.099500
     36 H18A        0.9190   -2.1740   -1.5920 h1        1 8ST      0.099500
     37 H24        -0.5430   -0.6080   -3.2360 ha        1 8ST      0.170000
     38 H23        -0.6760   -0.0890   -5.5390 ha        1 8ST      0.163000
     39 H21         3.2950   -0.8160   -5.9200 ha        1 8ST      0.159000
     40 H20         3.4240   -1.3340   -3.6170 ha        1 8ST      0.143000
@<TRIPOS>BOND
     1    1    2 1   
     2    2    3 1   
     3    2    5 1   
     4    3    4 1   
     5    3   25 1   
     6    4   26 1   
     7    5   27 1   
     8    6    7 1   
     9    6   28 1   
    10    7    8 1   
    11    8    9 1   
    12    8   29 1   
    13    9   10 1   
    14    9   11 1   
    15   11   12 1   
    16   11   16 1   
    17   12   13 1   
    18   12   17 1   
    19   13   30 1   
    20   14   15 1   
    21   14   31 1   
    22   15   32 1   
    23   16   33 1   
    24   17   18 1   
    25   17   34 1   
    26   18   19 1   
    27   18   35 1   
    28   18   36 1   
    29   19   20 1   
    30   19   24 1   
    31   20   21 1   
    32   20   37 1   
    33   21   38 1   
    34   22   23 1   
    35   23   39 1   
    36   24   40 1   
@<TRIPOS>SUBSTRUCTURE
     1 8ST         1 TEMP              0 ****  ****    0 ROOT
