@<TRIPOS>MOLECULE
8T3
   44    43     1     0     0
SMALL
bcc


@<TRIPOS>ATOM
      1 CL         -8.9450    1.1230    1.6150 cl        1 8T3      0.020000
      2 C21        -7.2040    1.1500    1.7300 c2        1 8T3     -0.099000
      3 C20        -6.4410    1.5520    0.6400 c2        1 8T3     -0.062000
      4 N10        -5.0770    1.5430    0.7190 n1        1 8T3     -0.124000
      5 C25        -6.5880    0.7450    2.8820 c1        1 8T3     -0.098000
      6 C18        -5.2230    0.7370    2.9600 c1        1 8T3     -0.111000
      7 C12        -4.4620    1.1400    1.8690 c1        1 8T3     -0.070000
      8 C8         -2.9380    1.1190    1.9510 c2        1 8T3      0.364000
      9 O16        -2.3890    0.7580    2.9760 o         1 8T3     -0.354000
     10 N11        -2.1540    1.5540    0.8350 n         1 8T3     -0.300000
     11 C15        -0.7240    1.5660    0.9240 c2        1 8T3      0.060000
     12 C22        -0.0960    2.2810    1.9390 c2        1 8T3     -0.127000
     13 C19         1.2920    2.2930    2.0260 c1        1 8T3     -0.144000
     14 C13         2.0540    1.5890    1.0970 c1        1 8T3      0.069000
     15 F23         3.3940    1.6080    1.1760 f         1 8T3     -0.114000
     16 C14         0.0380    0.8630   -0.0050 c1        1 8T3     -0.130000
     17 C7          1.4260    0.8740    0.0820 c1        1 8T3     -0.049000
     18 C2          2.4510   -0.1150   -1.1400 c3        1 8T3      0.031000
     19 C24         2.3500    0.6620   -2.4600 c3        1 8T3     -0.241000
     20 C9          1.5400   -2.0070   -1.1760 c3        1 8T3     -0.068000
     21 C4          2.6130   -3.2490   -1.6040 cx        1 8T3     -0.123000
     22 C6          3.8180   -3.2980   -1.3090 cx        1 8T3     -0.227000
     23 C3          3.4640   -2.8850   -2.5330 cx        1 8T3     -0.193000
     24 C5          4.2380   -1.4830   -2.3200 c2        1 8T3     -0.121000
     25 N1          2.9560   -0.1240   -0.9190 n2        1 8T3     -0.191000
     26 N17         5.6670   -1.4610   -2.2280 n3        1 8T3     -0.225000
     27 H20        -6.8830    1.8420   -0.1860 h4        1 8T3      0.179000
     28 H25        -7.1260    0.4600    3.6530 ha        1 8T3      0.161000
     29 H18        -4.7810    0.4470    3.7850 ha        1 8T3      0.178000
     30 H11        -2.5680    1.8540    0.0740 hn        1 8T3      0.254000
     31 H22        -0.6330    2.7770    2.5940 ha        1 8T3      0.178000
     32 H14        -0.4040    0.3590   -0.7190 ha        1 8T3      0.151000
     33 H19         1.7350    2.7970    2.7430 ha        1 8T3      0.152000
     34 H241        3.0690    1.3330   -2.5020 hc        1 8T3      0.106667
     35 H242        1.4790    1.1130   -2.5090 hc        1 8T3      0.106667
     36 H243        2.4400    0.0390   -3.2140 hc        1 8T3      0.106667
     37 H91C        1.1750   -2.1980   -0.2850 hc        1 8T3      0.090000
     38 H92C        0.8020   -1.9900   -1.8240 hc        1 8T3      0.090000
     39 H4          2.2030   -4.1220   -1.8030 hc        1 8T3      0.116000
     40 H61C        4.1340   -2.5980   -0.7000 hc        1 8T3      0.112500
     41 H62C        4.2090   -4.2020   -1.2590 hc        1 8T3      0.112500
     42 H3          3.8390   -3.5500   -3.1540 hc        1 8T3      0.141000
     43 H171        6.0970   -0.6980   -1.9530 hn        1 8T3      0.195500
     44 H172        6.1530   -2.1990   -2.4690 hn        1 8T3      0.195500
@<TRIPOS>BOND
     1    1    2 1   
     2    2    3 1   
     3    2    5 1   
     4    3    4 1   
     5    3   27 1   
     6    5   28 1   
     7    6    7 1   
     8    6   29 1   
     9    7    8 1   
    10    8    9 1   
    11    8   10 1   
    12   10   11 1   
    13   10   30 1   
    14   11   12 1   
    15   11   16 1   
    16   12   13 1   
    17   12   31 1   
    18   13   33 1   
    19   14   15 1   
    20   14   17 1   
    21   16   32 1   
    22   17   18 1   
    23   18   19 1   
    24   18   20 1   
    25   18   25 1   
    26   19   34 1   
    27   19   35 1   
    28   19   36 1   
    29   20   21 1   
    30   20   37 1   
    31   20   38 1   
    32   21   22 1   
    33   21   23 1   
    34   21   39 1   
    35   22   23 1   
    36   22   40 1   
    37   22   41 1   
    38   23   24 1   
    39   23   42 1   
    40   24   25 1   
    41   24   26 1   
    42   26   43 1   
    43   26   44 1   
@<TRIPOS>SUBSTRUCTURE
     1 8T3         1 TEMP              0 ****  ****    0 ROOT
