@<TRIPOS>MOLECULE
8T3
   46    49     1     0     0
SMALL
bcc


@<TRIPOS>ATOM
      1 CL          2.3340    0.3990   -2.9840 cl        1 8T3      0.038600
      2 C21         3.1220    0.0970   -1.5400 ca        1 8T3     -0.030900
      3 C20         4.0500    1.0550   -1.0220 ca        1 8T3      0.421200
      4 N10         4.7110    0.8850    0.1180 nb        1 8T3     -0.670000
      5 C25         2.8980   -1.0720   -0.8110 ca        1 8T3     -0.103000
      6 C18         3.5880   -1.2650    0.3940 ca        1 8T3     -0.112300
      7 C12         4.4820   -0.2660    0.8230 ca        1 8T3      0.273800
      8 C8          5.1880   -0.4870    2.0960 c         1 8T3      0.488600
      9 O16         5.1420   -1.4760    2.8170 o         1 8T3     -0.449100
     10 N11         6.0680    0.6410    2.6190 n4        1 8T3     -0.533200
     11 C15         7.4780    0.4300    2.2810 ca        1 8T3     -0.069400
     12 C22         8.0410    1.1310    1.2010 ca        1 8T3     -0.051000
     13 C19         9.3840    0.9500    0.9160 ca        1 8T3     -0.141000
     14 C13        10.1740    0.0760    1.6930 ca        1 8T3      0.195900
     15 F23        11.4800   -0.0310    1.3700 f         1 8T3     -0.098900
     16 C14         8.2530   -0.4570    3.0510 ca        1 8T3     -0.059000
     17 C7          9.6080   -0.6530    2.7740 ca        1 8T3     -0.104300
     18 C2         10.4830   -1.5810    3.6150 c3        1 8T3      0.208500
     19 C24        11.5570   -0.7160    4.3150 c3        1 8T3     -0.109100
     20 C9         11.1900   -2.5950    2.6710 c3        1 8T3     -0.098400
     21 C4         11.9000   -3.6890    3.4100 cx        1 8T3     -0.071700
     22 C6         11.2550   -5.0380    3.5310 cx        1 8T3     -0.083400
     23 C3         11.3250   -4.1400    4.7430 cx        1 8T3     -0.275000
     24 C5         10.1110   -3.3800    5.1390 c2        1 8T3      0.543200
     25 N1          9.6810   -2.2690    4.6450 n2        1 8T3     -0.560900
     26 N17         9.3260   -4.0300    6.2330 n4        1 8T3     -0.809600
     27 H20         4.2500    1.9980   -1.5730 h4        1 8T3      0.071100
     28 H25         2.1880   -1.8390   -1.1690 ha        1 8T3      0.195000
     29 H18         3.4300   -2.1780    0.9930 ha        1 8T3      0.183000
     30 H11         5.9780    0.6780    3.6440 hn        1 8T3      0.474800
     31 H22         7.4410    1.8210    0.5790 ha        1 8T3      0.185000
     32 H14         7.7690   -0.9970    3.8840 ha        1 8T3      0.165000
     33 H19         9.8560    1.4960    0.0780 ha        1 8T3      0.199000
     34 H241       12.1490   -0.1650    3.5450 hc        1 8T3      0.074033
     35 H242       12.2570   -1.3680    4.8930 hc        1 8T3      0.074033
     36 H243       11.0880    0.0260    5.0040 hc        1 8T3      0.074033
     37 H91C       10.4320   -3.0320    1.9690 hc        1 8T3      0.092700
     38 H92C       11.9420   -2.0380    2.0490 hc        1 8T3      0.092700
     39 H4         13.0070   -3.6400    3.3220 hc        1 8T3      0.131700
     40 H61C       11.8960   -5.9420    3.5200 hc        1 8T3      0.106200
     41 H62C       10.2800   -5.2180    3.0400 hc        1 8T3      0.106200
     42 H3         12.0120   -4.3950    5.5740 hc        1 8T3      0.134700
     43 H171        9.1200   -4.9960    5.9500 hn        1 8T3      0.475467
     44 H172        8.4490   -3.5360    6.4360 hn        1 8T3      0.475467
     45 H112        5.7600    1.5430    2.2270 hn        1 8T3      0.474800
     46 H173        9.9100   -4.0450    7.0790 hn        1 8T3      0.475467
@<TRIPOS>BOND
     1    1    2 1   
     2    2    3 ar  
     3    2    5 ar  
     4    3    4 ar  
     5    3   27 1   
     6    4    7 ar  
     7    5    6 ar  
     8    5   28 1   
     9    6    7 ar  
    10    6   29 1   
    11    7    8 1   
    12    8    9 2   
    13    8   10 1   
    14   10   11 1   
    15   10   30 1   
    16   10   45 1   
    17   11   12 ar  
    18   11   16 ar  
    19   12   13 ar  
    20   12   31 1   
    21   13   14 ar  
    22   13   33 1   
    23   14   15 1   
    24   14   17 ar  
    25   16   17 ar  
    26   16   32 1   
    27   17   18 1   
    28   18   19 1   
    29   18   20 1   
    30   18   25 1   
    31   19   34 1   
    32   19   35 1   
    33   19   36 1   
    34   20   21 1   
    35   20   37 1   
    36   20   38 1   
    37   21   22 1   
    38   21   23 1   
    39   21   39 1   
    40   22   23 1   
    41   22   40 1   
    42   22   41 1   
    43   23   24 1   
    44   23   42 1   
    45   24   25 2   
    46   24   26 1   
    47   26   43 1   
    48   26   44 1   
    49   26   46 1   
@<TRIPOS>SUBSTRUCTURE
     1 8T3         1 TEMP              0 ****  ****    0 ROOT
