@<TRIPOS>MOLECULE
8T3
   45    48     1     0     0
SMALL
bcc


@<TRIPOS>ATOM
      1 Cl         -0.0160   -0.0170    0.3120 cl        1 8T3     -0.040400
      2 C21         1.6640   -0.0060    0.1640 ca        1 8T3     -0.076900
      3 C20         2.4710   -0.5290    1.2050 ca        1 8T3      0.400200
      4 N10         3.8080   -0.5500    1.1560 nb        1 8T3     -0.663000
      5 C25         2.2890    0.5110   -0.9730 ca        1 8T3     -0.094000
      6 C18         3.6850    0.4910   -1.0360 ca        1 8T3     -0.166300
      7 C12         4.4090   -0.0450    0.0480 ca        1 8T3      0.337800
      8 C8          5.9120   -0.0560   -0.0840 c         1 8T3      0.584600
      9 O16         6.4330    0.1060   -1.2020 o         1 8T3     -0.575100
     10 N11         6.6590   -0.2270    1.0750 ns        1 8T3     -0.459100
     11 C15         8.0570   -0.2980    1.1530 ca        1 8T3      0.072600
     12 C22         8.9090    0.1780    0.1320 ca        1 8T3     -0.113000
     13 C19        10.2830    0.1100    0.2910 ca        1 8T3     -0.124000
     14 C13        10.8520   -0.4320    1.4580 ca        1 8T3      0.097900
     15 F23        12.2060   -0.4500    1.5530 f         1 8T3     -0.140900
     16 C14         8.6400   -0.8460    2.3210 ca        1 8T3     -0.152000
     17 C7         10.0230   -0.9300    2.4900 ca        1 8T3     -0.103300
     18 C2         10.6450   -1.5280    3.7480 c3        1 8T3      0.217500
     19 C24        11.4170   -0.4120    4.4880 c3        1 8T3     -0.102100
     20 C9         11.6470   -2.6370    3.3170 c3        1 8T3     -0.103400
     21 C4         12.0680   -3.5580    4.4210 cx        1 8T3     -0.066700
     22 C6         11.3960   -4.8940    4.5590 cx        1 8T3     -0.093400
     23 C3         11.0990   -3.8110    5.5660 cx        1 8T3     -0.267000
     24 C5          9.8420   -3.0330    5.4320 c2        1 8T3      0.514200
     25 N1          9.5990   -2.0460    4.6460 n2        1 8T3     -0.529900
     26 N17         8.7420   -3.4930    6.3380 nz        1 8T3     -0.808600
     27 H20         2.0110   -0.9500    2.1190 h4        1 8T3      0.041100
     28 H25         1.7000    0.9250   -1.8070 ha        1 8T3      0.170000
     29 H18         4.2220    0.8780   -1.9190 ha        1 8T3      0.182000
     30 H11         6.1690   -0.4120    1.9230 hn        1 8T3      0.336500
     31 H22         8.4950    0.6050   -0.8000 ha        1 8T3      0.191000
     32 H14         7.9650   -1.2020    3.1160 ha        1 8T3      0.135000
     33 H19        10.9500    0.4870   -0.5010 ha        1 8T3      0.168000
     34 H241       11.9560   -0.8320    5.3700 hc        1 8T3      0.067033
     35 H242       10.7260    0.3980    4.8210 hc        1 8T3      0.067033
     36 H243       12.1680    0.0300    3.7870 hc        1 8T3      0.067033
     37 H91C       12.5600   -2.1330    2.8980 hc        1 8T3      0.094700
     38 H92C       11.1860   -3.2310    2.4820 hc        1 8T3      0.094700
     39 H4         13.1450   -3.4820    4.6770 hc        1 8T3      0.118700
     40 H61C       10.6220   -5.1850    3.8250 hc        1 8T3      0.099200
     41 H62C       11.9940   -5.7630    4.8970 hc        1 8T3      0.099200
     42 H3         11.4870   -3.9010    6.5980 hc        1 8T3      0.119700
     43 H171        7.8740   -2.9620    6.1930 hn        1 8T3      0.467800
     44 H172        9.0530   -3.3760    7.3080 hn        1 8T3      0.467800
     45 H173        8.5700   -4.4870    6.1530 hn        1 8T3      0.467800
@<TRIPOS>BOND
     1    1    2 1   
     2    2    3 ar  
     3    2    5 ar  
     4    3    4 ar  
     5    3   27 1   
     6    4    7 ar  
     7    5    6 ar  
     8    5   28 1   
     9    6    7 ar  
    10    6   29 1   
    11    7    8 1   
    12    8    9 2   
    13    8   10 1   
    14   10   11 1   
    15   10   30 1   
    16   11   12 ar  
    17   11   16 ar  
    18   12   13 ar  
    19   12   31 1   
    20   13   14 ar  
    21   13   33 1   
    22   14   15 1   
    23   14   17 ar  
    24   16   17 ar  
    25   16   32 1   
    26   17   18 1   
    27   18   19 1   
    28   18   20 1   
    29   18   25 1   
    30   19   34 1   
    31   19   35 1   
    32   19   36 1   
    33   20   21 1   
    34   20   37 1   
    35   20   38 1   
    36   21   22 1   
    37   21   23 1   
    38   21   39 1   
    39   22   23 1   
    40   22   40 1   
    41   22   41 1   
    42   23   24 1   
    43   23   42 1   
    44   24   25 2   
    45   24   26 1   
    46   26   43 1   
    47   26   44 1   
    48   26   45 1   
@<TRIPOS>SUBSTRUCTURE
     1 8T3         1 TEMP              0 ****  ****    0 ROOT
