@<TRIPOS>MOLECULE
8T3
   45    48     1     0     0
SMALL
bcc


@<TRIPOS>ATOM
      1 CL         -0.0160    0.0030    0.3270 cl        1 8T3     -0.040400
      2 C21         1.6630    0.0070    0.1750 ca        1 8T3     -0.076900
      3 C20         2.4700   -0.5120    1.2170 ca        1 8T3      0.400200
      4 N10         3.8070   -0.5390    1.1640 nb        1 8T3     -0.663000
      5 C25         2.2870    0.5150   -0.9680 ca        1 8T3     -0.094000
      6 C18         3.6830    0.4890   -1.0350 ca        1 8T3     -0.166300
      7 C12         4.4070   -0.0430    0.0510 ca        1 8T3      0.337800
      8 C8          5.9100   -0.0600   -0.0850 c         1 8T3      0.584600
      9 O16         6.4280    0.0940   -1.2040 o         1 8T3     -0.575100
     10 N11         6.6600   -0.2280    1.0730 n         1 8T3     -0.459100
     11 C15         8.0580   -0.3040    1.1480 ca        1 8T3      0.072600
     12 C22         8.9080    0.1630    0.1220 ca        1 8T3     -0.113000
     13 C19        10.2820    0.0900    0.2780 ca        1 8T3     -0.124000
     14 C13        10.8530   -0.4470    1.4460 ca        1 8T3      0.097900
     15 F23        12.2070   -0.4690    1.5380 f         1 8T3     -0.140900
     16 C14         8.6410   -0.8480    2.3180 ca        1 8T3     -0.152000
     17 C7         10.0240   -0.9370    2.4830 ca        1 8T3     -0.103300
     18 C2         10.6480   -1.5300    3.7430 c3        1 8T3      0.217500
     19 C24        11.4260   -0.4130    4.4740 c3        1 8T3     -0.102100
     20 C9         11.6440   -2.6460    3.3150 c3        1 8T3     -0.103400
     21 C4         12.0650   -3.5630    4.4220 cx        1 8T3     -0.066700
     22 C6         11.3890   -4.8950    4.5690 cx        1 8T3     -0.093400
     23 C3         11.0980   -3.8050    5.5710 cx        1 8T3     -0.267000
     24 C5          9.8440   -3.0240    5.4370 c2        1 8T3      0.514200
     25 N1          9.6020   -2.0400    4.6460 n2        1 8T3     -0.529900
     26 N17         8.7450   -3.4740    6.3480 n4        1 8T3     -0.808600
     27 H20         2.0120   -0.9250    2.1350 h4        1 8T3      0.041100
     28 H25         1.6970    0.9260   -1.8020 ha        1 8T3      0.170000
     29 H18         4.2180    0.8680   -1.9200 ha        1 8T3      0.182000
     30 H11         6.1710   -0.4060    1.9240 hn        1 8T3      0.336500
     31 H22         8.4930    0.5860   -0.8100 ha        1 8T3      0.191000
     32 H14         7.9670   -1.1970    3.1160 ha        1 8T3      0.135000
     33 H19        10.9490    0.4610   -0.5180 ha        1 8T3      0.168000
     34 H241       12.1760    0.0230    3.7700 hc        1 8T3      0.067033
     35 H242       10.7380    0.4010    4.8050 hc        1 8T3      0.067033
     36 H243       11.9650   -0.8310    5.3580 hc        1 8T3      0.067033
     37 H91C       12.5580   -2.1470    2.8910 hc        1 8T3      0.094700
     38 H92C       11.1790   -3.2420    2.4840 hc        1 8T3      0.094700
     39 H4         13.1430   -3.4890    4.6750 hc        1 8T3      0.118700
     40 H61C       10.6110   -5.1870    3.8390 hc        1 8T3      0.099200
     41 H62C       11.9830   -5.7640    4.9100 hc        1 8T3      0.099200
     42 H3         11.4890   -3.8920    6.6030 hc        1 8T3      0.119700
     43 H171        9.0590   -3.3540    7.3160 hn        1 8T3      0.467800
     44 H172        8.5690   -4.4680    6.1690 hn        1 8T3      0.467800
     45 H173        7.8780   -2.9410    6.2030 hn        1 8T3      0.467800
@<TRIPOS>BOND
     1    1    2 1   
     2    2    3 ar  
     3    2    5 ar  
     4    3    4 ar  
     5    3   27 1   
     6    4    7 ar  
     7    5    6 ar  
     8    5   28 1   
     9    6    7 ar  
    10    6   29 1   
    11    7    8 1   
    12    8    9 2   
    13    8   10 1   
    14   10   11 1   
    15   10   30 1   
    16   11   12 ar  
    17   11   16 ar  
    18   12   13 ar  
    19   12   31 1   
    20   13   14 ar  
    21   13   33 1   
    22   14   15 1   
    23   14   17 ar  
    24   16   17 ar  
    25   16   32 1   
    26   17   18 1   
    27   18   19 1   
    28   18   20 1   
    29   18   25 1   
    30   19   34 1   
    31   19   35 1   
    32   19   36 1   
    33   20   21 1   
    34   20   37 1   
    35   20   38 1   
    36   21   22 1   
    37   21   23 1   
    38   21   39 1   
    39   22   23 1   
    40   22   40 1   
    41   22   41 1   
    42   23   24 1   
    43   23   42 1   
    44   24   25 2   
    45   24   26 1   
    46   26   43 1   
    47   26   44 1   
    48   26   45 1   
@<TRIPOS>SUBSTRUCTURE
     1 8T3         1 TEMP              0 ****  ****    0 ROOT
