@<TRIPOS>MOLECULE
8T3
   44    47     1     0     0
SMALL
bcc


@<TRIPOS>ATOM
      1 CL         -7.4280    1.9170    0.0270 cl        1 8T3     -0.061400
      2 C21        -6.0280    0.9730    0.0430 ca        1 8T3     -0.086900
      3 C20        -4.7900    1.5330   -0.3530 ca        1 8T3      0.402200
      4 N10        -3.6430    0.8410   -0.3610 nb        1 8T3     -0.649000
      5 C25        -6.0630   -0.3660    0.4430 ca        1 8T3     -0.099000
      6 C18        -4.8730   -1.0960    0.4340 ca        1 8T3     -0.178300
      7 C12        -3.6830   -0.4580    0.0280 ca        1 8T3      0.349800
      8 C8         -2.4290   -1.3060    0.0200 c         1 8T3      0.578600
      9 O16        -2.5490   -2.5470    0.0180 o         1 8T3     -0.595100
     10 N11        -1.2140   -0.6520    0.0530 n         1 8T3     -0.444100
     11 C15         0.0610   -1.2460    0.0100 ca        1 8T3      0.043600
     12 C22         0.2760   -2.6270    0.1800 ca        1 8T3     -0.132000
     13 C19         1.5680   -3.1300    0.1450 ca        1 8T3     -0.147000
     14 C13         2.6720   -2.2830   -0.0530 ca        1 8T3      0.091900
     15 F23         3.9030   -2.8560   -0.0750 f         1 8T3     -0.148900
     16 C14         1.1800   -0.4010   -0.1910 ca        1 8T3     -0.131000
     17 C7          2.4860   -0.8890   -0.2220 ca        1 8T3     -0.065300
     18 C2          3.6740    0.0490   -0.4400 c3        1 8T3      0.214500
     19 C24         4.4040   -0.3980   -1.7260 c3        1 8T3     -0.097100
     20 C9          4.6410   -0.1390    0.7640 c3        1 8T3     -0.083400
     21 C4          5.7280    0.8890    0.7810 cx        1 8T3     -0.104700
     22 C6          5.6160    2.0700    1.7070 cx        1 8T3     -0.102400
     23 C3          5.4020    2.2590    0.2300 cx        1 8T3     -0.224000
     24 C5          3.9970    2.4250   -0.2730 c2        1 8T3      0.631200
     25 N1          3.2130    1.4290   -0.5930 n2        1 8T3     -0.679900
     26 N17         3.5320    3.7530   -0.3110 nh        1 8T3     -0.888800
     27 H20        -4.7210    2.5870   -0.6790 h4        1 8T3      0.041100
     28 H25        -7.0060   -0.8400    0.7560 ha        1 8T3      0.160000
     29 H18        -4.8500   -2.1580    0.7270 ha        1 8T3      0.178000
     30 H11        -1.2170    0.3440   -0.0160 hn        1 8T3      0.339500
     31 H22        -0.5660   -3.3220    0.3360 ha        1 8T3      0.176000
     32 H14         1.0050    0.6810   -0.3310 ha        1 8T3      0.162000
     33 H19         1.7400   -4.2090    0.2740 ha        1 8T3      0.149000
     34 H241        3.7310   -0.3060   -2.6100 hc        1 8T3      0.046367
     35 H242        5.3080    0.2370   -1.8870 hc        1 8T3      0.046367
     36 H243        4.7290   -1.4600   -1.6310 hc        1 8T3      0.046367
     37 H91C        4.0480   -0.0860    1.7140 hc        1 8T3      0.064700
     38 H92C        5.0960   -1.1610    0.7060 hc        1 8T3      0.064700
     39 H4          6.7350    0.4750    0.5810 hc        1 8T3      0.085700
     40 H61C        4.7480    2.1420    2.3870 hc        1 8T3      0.079700
     41 H62C        6.5350    2.4810    2.1610 hc        1 8T3      0.079700
     42 H3          6.1590    2.8040   -0.3630 hc        1 8T3      0.092700
     43 H171        4.2430    4.4130   -0.5320 hn        1 8T3      0.397800
     44 H172        2.6800    3.9030   -0.8070 hn        1 8T3      0.397800
@<TRIPOS>BOND
     1    1    2 1   
     2    2    3 ar  
     3    2    5 ar  
     4    3    4 ar  
     5    3   27 1   
     6    4    7 ar  
     7    5    6 ar  
     8    5   28 1   
     9    6    7 ar  
    10    6   29 1   
    11    7    8 1   
    12    8    9 2   
    13    8   10 1   
    14   10   11 1   
    15   10   30 1   
    16   11   12 ar  
    17   11   16 ar  
    18   12   13 ar  
    19   12   31 1   
    20   13   14 ar  
    21   13   33 1   
    22   14   15 1   
    23   14   17 ar  
    24   16   17 ar  
    25   16   32 1   
    26   17   18 1   
    27   18   19 1   
    28   18   20 1   
    29   18   25 1   
    30   19   34 1   
    31   19   35 1   
    32   19   36 1   
    33   20   21 1   
    34   20   37 1   
    35   20   38 1   
    36   21   22 1   
    37   21   23 1   
    38   21   39 1   
    39   22   23 1   
    40   22   40 1   
    41   22   41 1   
    42   23   24 1   
    43   23   42 1   
    44   24   25 2   
    45   24   26 1   
    46   26   43 1   
    47   26   44 1   
@<TRIPOS>SUBSTRUCTURE
     1 8T3         1 TEMP              0 ****  ****    0 ROOT
