@<TRIPOS>MOLECULE
8TM
   32    34     1     0     0
SMALL
bcc


@<TRIPOS>ATOM
      1 C1         -0.0670    0.0790   -0.0070 ca        1 8TM     -0.136000
      2 C2          1.3420    0.0640   -0.0970 ca        1 8TM     -0.103000
      3 C3         -0.6870    0.0650    1.2220 ca        1 8TM     -0.097000
      4 C4          2.1160    0.0450    1.0370 ca        1 8TM     -0.175300
      5 C5         -2.2380    0.8660    6.1720 ca        1 8TM     -0.175500
      6 C6         -3.7370   -0.8150    5.2490 ca        1 8TM     -0.175500
      7 C7         -3.0060    0.8900    7.3300 ca        1 8TM     -0.032000
      8 C8         -4.4910   -0.7730    6.4120 ca        1 8TM     -0.032000
      9 C9          1.6540    0.0280    4.6280 ca        1 8TM      0.667900
     10 C10         0.0750    0.0300    2.4120 ca        1 8TM     -0.284600
     11 C11         1.5030    0.0340    2.3290 ca        1 8TM      0.432600
     12 C12        -2.5880    0.0040    5.1090 ca        1 8TM      0.202600
     13 C13        -4.1330    0.0710    7.4710 ca        1 8TM     -0.097100
     14 C14        -0.4980    0.0050    3.7620 ca        1 8TM      0.697200
     15 C15        -6.3940    1.1980    8.7290 c3        1 8TM      0.699000
     16 N16         2.2970    0.0320    3.4640 nb        1 8TM     -0.705000
     17 N17         0.2950    0.0060    4.8530 nb        1 8TM     -0.763000
     18 N18        -1.8940   -0.0010    3.8870 nu        1 8TM     -0.735300
     19 F19        -6.0580    2.5020    8.4850 f         1 8TM     -0.226300
     20 F20        -7.1510    1.2380    9.8680 f         1 8TM     -0.226300
     21 F21        -7.2790    0.8860    7.7310 f         1 8TM     -0.226300
     22 S22        -4.9610    0.0110    8.9420 ss        1 8TM     -0.185000
     23 H1         -0.6640    0.1070   -0.9310 ha        1 8TM      0.140000
     24 H2          1.8150    0.0720   -1.0920 ha        1 8TM      0.141000
     25 H3         -1.7860    0.0980    1.2560 ha        1 8TM      0.131000
     26 H4          3.2160    0.0410    0.9710 ha        1 8TM      0.158000
     27 H5         -1.3630    1.5290    6.0970 ha        1 8TM      0.151000
     28 H7         -2.7220    1.5690    8.1520 ha        1 8TM      0.153000
     29 H6         -4.0420   -1.4930    4.4370 ha        1 8TM      0.151000
     30 H8         -5.3810   -1.4180    6.5080 ha        1 8TM      0.153000
     31 H9          2.2720    0.0300    5.5520 h5        1 8TM      0.057100
     32 H18        -2.3750   -0.4440    3.1320 hn        1 8TM      0.438800
@<TRIPOS>BOND
     1    1    2 ar  
     2    1    3 ar  
     3    1   23 1   
     4    2    4 ar  
     5    2   24 1   
     6    3   10 ar  
     7    3   25 1   
     8    4   11 ar  
     9    4   26 1   
    10    5    7 ar  
    11    5   12 ar  
    12    5   27 1   
    13    6    8 ar  
    14    6   12 ar  
    15    6   29 1   
    16    7   13 ar  
    17    7   28 1   
    18    8   13 ar  
    19    8   30 1   
    20    9   16 ar  
    21    9   17 ar  
    22    9   31 1   
    23   10   11 ar  
    24   10   14 ar  
    25   11   16 ar  
    26   12   18 1   
    27   13   22 1   
    28   14   17 ar  
    29   14   18 1   
    30   15   19 1   
    31   15   20 1   
    32   15   21 1   
    33   15   22 1   
    34   18   32 1   
@<TRIPOS>SUBSTRUCTURE
     1 8TM         1 TEMP              0 ****  ****    0 ROOT
