@<TRIPOS>MOLECULE
8TM
   32    34     1     0     0
SMALL
bcc


@<TRIPOS>ATOM
      1 C1         -0.1370    0.0330   -0.0290 ca        1 8TM     -0.136000
      2 C2          1.2600   -0.1160   -0.1680 ca        1 8TM     -0.103000
      3 C3         -0.7120    0.0860    1.2200 ca        1 8TM     -0.097000
      4 C4          2.0680   -0.2000    0.9390 ca        1 8TM     -0.175300
      5 C5         -2.0060    1.0650    6.2120 ca        1 8TM     -0.176000
      6 C6         -3.6880   -0.4720    5.3580 ca        1 8TM     -0.176000
      7 C7         -2.7270    1.1710    7.3950 ca        1 8TM     -0.032000
      8 C8         -4.3930   -0.3510    6.5460 ca        1 8TM     -0.032000
      9 C9          1.7340   -0.1490    4.5440 ca        1 8TM      0.667900
     10 C10         0.0840   -0.0120    2.3840 ca        1 8TM     -0.284600
     11 C11         1.5030   -0.1440    2.2520 ca        1 8TM      0.432600
     12 C12        -2.4720    0.2330    5.1700 ca        1 8TM      0.202600
     13 C13        -3.9200    0.4630    7.5830 ca        1 8TM     -0.097100
     14 C14        -0.4400    0.0270    3.7520 ca        1 8TM      0.697200
     15 C15        -6.0130    1.8160    8.9090 c3        1 8TM      0.699000
     16 N16         2.3330   -0.2130    3.3580 nb        1 8TM     -0.705000
     17 N17         0.3880   -0.0400    4.8150 nb        1 8TM     -0.763000
     18 N18        -1.8250    0.1530    3.9260 nh        1 8TM     -0.735300
     19 F19        -6.9580    1.5910    7.9440 f         1 8TM     -0.226300
     20 F20        -5.5560    3.0790    8.6450 f         1 8TM     -0.226300
     21 F21        -6.7220    1.9350   10.0730 f         1 8TM     -0.226300
     22 S22        -4.6990    0.4930    9.0820 ss        1 8TM     -0.185000
     23 H1         -0.7610    0.1110   -0.9330 ha        1 8TM      0.140000
     24 H2          1.6960   -0.1600   -1.1780 ha        1 8TM      0.141000
     25 H3         -1.8020    0.2220    1.2920 ha        1 8TM      0.131000
     26 H4          3.1600   -0.3090    0.8350 ha        1 8TM      0.158000
     27 H5         -1.0740    1.6410    6.1000 ha        1 8TM      0.151000
     28 H7         -2.3510    1.8250    8.2000 ha        1 8TM      0.153000
     29 H6         -4.0850   -1.1240    4.5640 ha        1 8TM      0.151000
     30 H8         -5.3370   -0.9070    6.6790 ha        1 8TM      0.153000
     31 H9          2.3810   -0.1980    5.4460 h5        1 8TM      0.057100
     32 H18        -2.3720   -0.2480    3.1920 hn        1 8TM      0.438800
@<TRIPOS>BOND
     1    1    2 ar  
     2    1    3 ar  
     3    1   23 1   
     4    2    4 ar  
     5    2   24 1   
     6    3   10 ar  
     7    3   25 1   
     8    4   11 ar  
     9    4   26 1   
    10    5    7 ar  
    11    5   12 ar  
    12    5   27 1   
    13    6    8 ar  
    14    6   12 ar  
    15    6   29 1   
    16    7   13 ar  
    17    7   28 1   
    18    8   13 ar  
    19    8   30 1   
    20    9   16 ar  
    21    9   17 ar  
    22    9   31 1   
    23   10   11 ar  
    24   10   14 ar  
    25   11   16 ar  
    26   12   18 1   
    27   13   22 1   
    28   14   17 ar  
    29   14   18 1   
    30   15   19 1   
    31   15   20 1   
    32   15   21 1   
    33   15   22 1   
    34   18   32 1   
@<TRIPOS>SUBSTRUCTURE
     1 8TM         1 TEMP              0 ****  ****    0 ROOT
