@<TRIPOS>MOLECULE
8TX
   16    17     1     0     0
SMALL
bcc


@<TRIPOS>ATOM
      1 N1         -2.4590    0.6460   -0.0000 n         1 8TX     -0.580500
      2 C2         -2.5000   -0.7570   -0.0010 c         1 8TX      0.819500
      3 O2         -3.5800   -1.3800   -0.0010 o         1 8TX     -0.618500
      4 N3         -1.2880   -1.4980   -0.0010 n         1 8TX     -0.457100
      5 C4         -0.0970   -0.8010   -0.0000 cc        1 8TX      0.150200
      6 C5         -0.0600    0.6150   -0.0000 cd        1 8TX     -0.223600
      7 C6         -1.2760    1.4120   -0.0000 c         1 8TX      0.756700
      8 O6         -1.3350    2.6510   -0.0000 o         1 8TX     -0.595500
      9 N7          1.2870    1.0080   -0.0000 n         1 8TX     -0.353100
     10 C8          2.1020   -0.1300   -0.0000 c         1 8TX      0.503400
     11 S8          3.6810   -0.2090   -0.0000 s         1 8TX     -0.471400
     12 N9          1.2270   -1.2580   -0.0000 n         1 8TX     -0.415100
     13 HN1        -3.3400    1.1180   -0.0010 hn        1 8TX      0.364500
     14 HN3        -1.3380   -2.4900   -0.0010 hn        1 8TX      0.364500
     15 HN7         1.6100    1.9440   -0.0000 hn        1 8TX      0.384500
     16 HN9         1.5420   -2.1960   -0.0000 hn        1 8TX      0.371500
@<TRIPOS>BOND
     1    1    2 1   
     2    1    7 1   
     3    1   13 1   
     4    2    3 2   
     5    2    4 1   
     6    4    5 1   
     7    4   14 1   
     8    5    6 2   
     9    5   12 1   
    10    6    7 1   
    11    6    9 1   
    12    7    8 2   
    13    9   10 1   
    14    9   15 1   
    15   10   11 2   
    16   10   12 1   
    17   12   16 1   
@<TRIPOS>SUBSTRUCTURE
     1 8TX         1 TEMP              0 ****  ****    0 ROOT
