@<TRIPOS>MOLECULE
8TX
   16    17     1     0     0
SMALL
bcc


@<TRIPOS>ATOM
      1 N1         -0.0310   -0.0050   -0.0040 n         1 8TX     -0.580500
      2 C2          1.3720    0.0010   -0.0440 c         1 8TX      0.819500
      3 O2          1.9950    0.0070   -1.1240 o         1 8TX     -0.618500
      4 N3          2.1120    0.0010    1.1680 n         1 8TX     -0.457100
      5 C4          1.4150   -0.0060    2.3590 cc        1 8TX      0.150200
      6 C5         -0.0010   -0.0120    2.3960 cd        1 8TX     -0.223600
      7 C6         -0.7970   -0.0120    1.1800 c         1 8TX      0.756700
      8 O6         -2.0360   -0.0170    1.1200 o         1 8TX     -0.595500
      9 N7         -0.3930   -0.0170    3.7430 n         1 8TX     -0.353100
     10 C8          0.7440   -0.0150    4.5580 c         1 8TX      0.503400
     11 S8          0.8240   -0.0190    6.1370 s         1 8TX     -0.471400
     12 N9          1.8730   -0.0070    3.6830 n         1 8TX     -0.415100
     13 HN1        -0.5030   -0.0040   -0.8840 hn        1 8TX      0.364500
     14 HN3         3.1050    0.0050    1.1190 hn        1 8TX      0.364500
     15 HN7        -1.3290   -0.0220    4.0660 hn        1 8TX      0.384500
     16 HN9         2.8100   -0.0040    3.9990 hn        1 8TX      0.371500
@<TRIPOS>BOND
     1    1    2 1   
     2    1    7 1   
     3    1   13 1   
     4    2    3 2   
     5    2    4 1   
     6    4    5 1   
     7    4   14 1   
     8    5    6 2   
     9    5   12 1   
    10    6    7 1   
    11    6    9 1   
    12    7    8 2   
    13    9   10 1   
    14    9   15 1   
    15   10   11 2   
    16   10   12 1   
    17   12   16 1   
@<TRIPOS>SUBSTRUCTURE
     1 8TX         1 TEMP              0 ****  ****    0 ROOT
