@<TRIPOS>MOLECULE
8TX
   16    16     1     0     0
SMALL
bcc


@<TRIPOS>ATOM
      1 N1         -0.7140   -0.0010   -2.1640 n         1 8TX     -0.513500
      2 C2          0.7000   -0.0010   -2.1640 c         1 8TX      0.783100
      3 O2          1.3080   -0.0290   -3.2160 o         1 8TX     -0.582100
      4 N3          1.4200   -0.0010   -0.9190 n         1 8TX     -0.457100
      5 C4          0.6890   -0.0010    0.3500 c2        1 8TX      0.087100
      6 C5         -0.6540   -0.0010    0.3520 c1        1 8TX     -0.143900
      7 C6         -1.4110   -0.0010   -0.9560 c1        1 8TX      0.628500
      8 O6         -2.6240   -0.0530   -0.9540 o         1 8TX     -0.553500
      9 N7         -1.2080   -0.0010    1.6020 n         1 8TX     -0.350500
     10 C8          0.0210   -0.0010    2.5570 c         1 8TX      0.503400
     11 S8          0.0230   -0.4870    4.1590 s         1 8TX     -0.471400
     12 N9          1.2470   -0.0010    1.6000 n         1 8TX     -0.415100
     13 HN1        -1.1700    0.0310   -2.9530 hn        1 8TX      0.364500
     14 HN3         2.3320   -0.0010   -0.9190 hn        1 8TX      0.364500
     15 HN7        -2.0520    0.2730    1.8150 hn        1 8TX      0.384500
     16 HN9         2.0920    0.2730    1.8100 hn        1 8TX      0.371500
@<TRIPOS>BOND
     1    1    2 1   
     2    1    7 2   
     3    1   13 1   
     4    2    3 2   
     5    2    4 1   
     6    4    5 1   
     7    4   14 1   
     8    5    6 2   
     9    5   12 1   
    10    6    9 2   
    11    7    8 2   
    12    9   10 1   
    13    9   15 1   
    14   10   11 2   
    15   10   12 1   
    16   12   16 1   
@<TRIPOS>SUBSTRUCTURE
     1 8TX         1 TEMP              0 ****  ****    0 ROOT
