@<TRIPOS>MOLECULE
8TX
   16    17     1     0     0
SMALL
bcc


@<TRIPOS>ATOM
      1 N1         -0.0300   -0.0050   -0.0040 n         1 8TX     -0.580500
      2 C2          1.3740    0.0050   -0.0430 c         1 8TX      0.819500
      3 O2          1.9970    0.0130   -1.1230 o         1 8TX     -0.618500
      4 N3          2.1130    0.0050    1.1690 n         1 8TX     -0.457100
      5 C4          1.4150   -0.0040    2.3600 cc        1 8TX      0.150200
      6 C5         -0.0010   -0.0130    2.3950 cd        1 8TX     -0.223600
      7 C6         -0.7970   -0.0140    1.1790 c         1 8TX      0.756700
      8 O6         -2.0350   -0.0220    1.1180 o         1 8TX     -0.595500
      9 N7         -0.3950   -0.0210    3.7420 n         1 8TX     -0.353100
     10 C8          0.7420   -0.0170    4.5580 c         1 8TX      0.503400
     11 S8          0.8210   -0.0220    6.1370 s         1 8TX     -0.471400
     12 N9          1.8720   -0.0060    3.6840 n         1 8TX     -0.415100
     13 HN1        -0.5000   -0.0040   -0.8850 hn        1 8TX      0.364500
     14 HN3         3.1060    0.0110    1.1200 hn        1 8TX      0.364500
     15 HN7        -1.3310   -0.0280    4.0640 hn        1 8TX      0.384500
     16 HN9         2.8090   -0.0020    4.0000 hn        1 8TX      0.371500
@<TRIPOS>BOND
     1    1    2 1   
     2    1    7 1   
     3    1   13 1   
     4    2    3 2   
     5    2    4 1   
     6    4    5 1   
     7    4   14 1   
     8    5    6 2   
     9    5   12 1   
    10    6    7 1   
    11    6    9 1   
    12    7    8 2   
    13    9   10 1   
    14    9   15 1   
    15   10   11 2   
    16   10   12 1   
    17   12   16 1   
@<TRIPOS>SUBSTRUCTURE
     1 8TX         1 TEMP              0 ****  ****    0 ROOT
