@<TRIPOS>MOLECULE
8UP
   38    39     1     0     0
SMALL
bcc


@<TRIPOS>ATOM
      1 Br          0.3720   -0.0720   -0.6580 br        1 8UP     -0.146400
      2 C14         1.9200    0.7630    0.1180 c3        1 8UP     -0.021000
      3 C13         2.6940   -0.1680    1.0150 c3        1 8UP     -0.089400
      4 C12         3.9300    0.5440    1.5450 c3        1 8UP      0.135400
      5 O2          4.5470   -0.3880    2.4540 os        1 8UP     -0.340900
      6 C11         5.8850   -0.2060    2.7180 ca        1 8UP      0.119100
      7 C2          6.5640    1.0180    2.7210 ca        1 8UP      0.082100
      8 O1          5.8360    2.1320    2.3600 os        1 8UP     -0.329900
      9 C1          6.5080    3.3890    2.4310 c3        1 8UP      0.108700
     10 C10         6.5770   -1.3990    3.0950 ca        1 8UP     -0.049000
     11 C5          7.9480   -1.3280    3.4560 ca        1 8UP     -0.020000
     12 C4          8.6100   -0.0780    3.4300 ca        1 8UP     -0.118000
     13 C3          7.9350    1.0660    3.0710 ca        1 8UP     -0.122000
     14 C9          5.9100   -2.6540    3.1320 ca        1 8UP     -0.019000
     15 C8          6.5960   -3.7890    3.5090 ca        1 8UP     -0.280900
     16 C15         5.8900   -5.0810    3.5830 ce        1 8UP      0.599800
     17 N2          6.4440   -6.0670    2.5830 nz        1 8UP     -0.826600
     18 N1          4.9280   -5.4930    4.3140 n2        1 8UP     -0.718100
     19 C7          7.9700   -3.7250    3.8730 ca        1 8UP     -0.146000
     20 C6          8.6240   -2.5210    3.8470 ca        1 8UP     -0.075000
     21 H14         2.5520    1.1140   -0.7310 h1        1 8UP      0.080200
     22 H13         1.5540    1.6490    0.6890 h1        1 8UP      0.080200
     23 H12         2.0610   -0.5010    1.8790 hc        1 8UP      0.064700
     24 H11         3.0080   -1.0880    0.4550 hc        1 8UP      0.064700
     25 H9          4.6380    0.8090    0.7190 h1        1 8UP      0.062700
     26 H10         3.6580    1.4660    2.1240 h1        1 8UP      0.062700
     27 H2          6.8640    3.5880    3.4700 h1        1 8UP      0.057700
     28 H3          7.3550    3.4220    1.7030 h1        1 8UP      0.057700
     29 H1          5.7080    4.1180    2.1400 h1        1 8UP      0.057700
     30 H5          9.6750   -0.0300    3.7060 ha        1 8UP      0.156000
     31 H4          8.4660    2.0320    3.0640 ha        1 8UP      0.161000
     32 H8          4.8420   -2.6840    2.8570 ha        1 8UP      0.165000
     33 H17         6.2310   -5.7200    1.6420 hn        1 8UP      0.468467
     34 H15         7.4620   -6.1030    2.7050 hn        1 8UP      0.468467
     35 H16         4.5450   -4.8680    4.9930 hn        1 8UP      0.490400
     36 H7          8.4910   -4.6330    4.2080 ha        1 8UP      0.132000
     37 H6          9.6850   -2.4520    4.1370 ha        1 8UP      0.159000
     38 H23         6.0460   -7.0070    2.6990 hn        1 8UP      0.468467
@<TRIPOS>BOND
     1    1    2 1   
     2    2    3 1   
     3    2   21 1   
     4    2   22 1   
     5    3    4 1   
     6    3   23 1   
     7    3   24 1   
     8    4    5 1   
     9    4   25 1   
    10    4   26 1   
    11    5    6 1   
    12    6    7 ar  
    13    6   10 ar  
    14    7    8 1   
    15    7   13 ar  
    16    8    9 1   
    17    9   27 1   
    18    9   28 1   
    19    9   29 1   
    20   10   11 ar  
    21   10   14 ar  
    22   11   12 ar  
    23   11   20 ar  
    24   12   13 ar  
    25   12   30 1   
    26   13   31 1   
    27   14   15 ar  
    28   14   32 1   
    29   15   16 1   
    30   15   19 ar  
    31   16   17 1   
    32   16   18 2   
    33   17   33 1   
    34   17   34 1   
    35   17   38 1   
    36   18   35 1   
    37   19   20 ar  
    38   19   36 1   
    39   20   37 1   
@<TRIPOS>SUBSTRUCTURE
     1 8UP         1 TEMP              0 ****  ****    0 ROOT
