@<TRIPOS>MOLECULE
8UP
   37    38     1     0     0
SMALL
bcc


@<TRIPOS>ATOM
      1 BR         -5.1060   -0.4140   -0.1610 br        1 8UP     -0.168400
      2 C14        -3.4470    0.2900   -0.8370 c3        1 8UP     -0.011000
      3 C13        -2.3180    0.2030    0.1570 c3        1 8UP     -0.087400
      4 C12        -1.0570    0.7910   -0.4560 c3        1 8UP      0.126400
      5 O2         -0.0440    0.6750    0.5590 os        1 8UP     -0.330900
      6 C11         1.1960    1.1480    0.1650 ca        1 8UP      0.079100
      7 C2          1.4450    2.5050   -0.0360 ca        1 8UP      0.094100
      8 O1          0.3500    3.3480    0.0170 os        1 8UP     -0.324900
      9 C1          0.6320    4.7410    0.0850 c3        1 8UP      0.113700
     10 C10         2.2630    0.2030    0.0820 ca        1 8UP     -0.021000
     11 C5          3.5730    0.6670   -0.1960 ca        1 8UP     -0.048000
     12 C4          3.7950    2.0550   -0.3940 ca        1 8UP     -0.097000
     13 C3          2.7610    2.9550   -0.3200 ca        1 8UP     -0.166000
     14 C9          2.0440   -1.1880    0.2830 ca        1 8UP     -0.079000
     15 C8          3.0910   -2.0750    0.2000 ca        1 8UP     -0.184900
     16 C15         2.8560   -3.5370    0.4300 ce        1 8UP      0.639800
     17 N2          3.1750   -4.3540   -0.6730 nh        1 8UP     -0.894800
     18 N1          2.3390   -4.0290    1.5180 n2        1 8UP     -0.834100
     19 C7          4.4040   -1.6120   -0.0800 ca        1 8UP     -0.120000
     20 C6          4.6370   -0.2740   -0.2700 ca        1 8UP     -0.111000
     21 H14        -3.2100   -0.2920   -1.7580 h1        1 8UP      0.072700
     22 H13        -3.6470    1.3510   -1.1170 h1        1 8UP      0.072700
     23 H12        -2.5670    0.7670    1.0950 hc        1 8UP      0.071700
     24 H11        -2.1260   -0.8620    0.4500 hc        1 8UP      0.071700
     25 H9         -0.7390    0.2160   -1.3640 h1        1 8UP      0.046200
     26 H10        -1.1970    1.8720   -0.7220 h1        1 8UP      0.046200
     27 H2          1.3300    4.9690    0.9260 h1        1 8UP      0.046367
     28 H3          1.0540    5.1010   -0.8850 h1        1 8UP      0.046367
     29 H1         -0.3730    5.1990    0.2690 h1        1 8UP      0.046367
     30 H5          4.8180    2.4010   -0.6110 ha        1 8UP      0.138000
     31 H4          2.9480    4.0270   -0.4770 ha        1 8UP      0.142000
     32 H8          1.0180   -1.5280    0.5050 ha        1 8UP      0.159000
     33 H17         3.9450   -4.0210   -1.2060 hn        1 8UP      0.399300
     34 H15         3.2030   -5.3340   -0.4910 hn        1 8UP      0.399300
     35 H16         2.0600   -3.3420    2.1840 hn        1 8UP      0.397400
     36 H7          5.2310   -2.3360   -0.1310 ha        1 8UP      0.133000
     37 H6          5.6520    0.0960   -0.4820 ha        1 8UP      0.136000
@<TRIPOS>BOND
     1    1    2 1   
     2    2    3 1   
     3    2   21 1   
     4    2   22 1   
     5    3    4 1   
     6    3   23 1   
     7    3   24 1   
     8    4    5 1   
     9    4   25 1   
    10    4   26 1   
    11    5    6 1   
    12    6    7 ar  
    13    6   10 ar  
    14    7    8 1   
    15    7   13 ar  
    16    8    9 1   
    17    9   27 1   
    18    9   28 1   
    19    9   29 1   
    20   10   11 ar  
    21   10   14 ar  
    22   11   12 ar  
    23   11   20 ar  
    24   12   13 ar  
    25   12   30 1   
    26   13   31 1   
    27   14   15 ar  
    28   14   32 1   
    29   15   16 1   
    30   15   19 ar  
    31   16   17 1   
    32   16   18 2   
    33   17   33 1   
    34   17   34 1   
    35   18   35 1   
    36   19   20 ar  
    37   19   36 1   
    38   20   37 1   
@<TRIPOS>SUBSTRUCTURE
     1 8UP         1 TEMP              0 ****  ****    0 ROOT
