@<TRIPOS>MOLECULE
8UP
   38    39     1     0     0
SMALL
bcc


@<TRIPOS>ATOM
      1 BR          0.4030   -0.0570   -0.7070 br        1 8UP     -0.146400
      2 C14         1.9460    0.7740    0.0840 c3        1 8UP     -0.021000
      3 C13         2.7100   -0.1610    0.9860 c3        1 8UP     -0.089400
      4 C12         3.9420    0.5480    1.5280 c3        1 8UP      0.135400
      5 O2          4.5490   -0.3860    2.4410 os        1 8UP     -0.340900
      6 C11         5.8850   -0.2070    2.7200 ca        1 8UP      0.119100
      7 C2          6.5660    1.0160    2.7300 ca        1 8UP      0.081100
      8 O1          5.8440    2.1310    2.3620 os        1 8UP     -0.329900
      9 C1          6.5170    3.3870    2.4410 c3        1 8UP      0.108700
     10 C10         6.5700   -1.4010    3.1030 ca        1 8UP     -0.049000
     11 C5          7.9380   -1.3330    3.4780 ca        1 8UP     -0.020000
     12 C4          8.6020   -0.0840    3.4590 ca        1 8UP     -0.118000
     13 C3          7.9330    1.0620    3.0950 ca        1 8UP     -0.122000
     14 C9          5.9020   -2.6550    3.1310 ca        1 8UP     -0.019000
     15 C8          6.5810   -3.7920    3.5150 ca        1 8UP     -0.280900
     16 C15         5.8720   -5.0820    3.5800 ce        1 8UP      0.599800
     17 N2          6.4360   -6.0690    2.5860 n4        1 8UP     -0.826600
     18 N1          4.9020   -5.4930    4.3000 n2        1 8UP     -0.718100
     19 C7          7.9520   -3.7300    3.8920 ca        1 8UP     -0.146000
     20 C6          8.6070   -2.5270    3.8740 ca        1 8UP     -0.075000
     21 H14         1.5760    1.6600    0.6530 h1        1 8UP      0.080200
     22 H13         2.5860    1.1250   -0.7590 h1        1 8UP      0.080200
     23 H12         3.0270   -1.0800    0.4270 hc        1 8UP      0.064700
     24 H11         2.0680   -0.4940    1.8440 hc        1 8UP      0.064700
     25 H9          3.6670    1.4700    2.1060 h1        1 8UP      0.062700
     26 H10         4.6580    0.8120    0.7090 h1        1 8UP      0.062700
     27 H2          5.7220    4.1170    2.1420 h1        1 8UP      0.057700
     28 H3          7.3720    3.4190    1.7220 h1        1 8UP      0.057700
     29 H1          6.8630    3.5850    3.4840 h1        1 8UP      0.057700
     30 H5          9.6650   -0.0390    3.7470 ha        1 8UP      0.156000
     31 H4          8.4660    2.0260    3.0940 ha        1 8UP      0.161000
     32 H8          4.8360   -2.6830    2.8460 ha        1 8UP      0.165000
     33 H17         7.4520   -6.1080    2.7200 hn        1 8UP      0.468467
     34 H15         6.0340   -7.0080    2.6970 hn        1 8UP      0.468467
     35 H16         4.5120   -4.8670    4.9750 hn        1 8UP      0.490400
     36 H7          8.4680   -4.6400    4.2320 ha        1 8UP      0.132000
     37 H6          9.6660   -2.4600    4.1760 ha        1 8UP      0.159000
     38 H23         6.2340   -5.7210    1.6430 hn        1 8UP      0.468467
@<TRIPOS>BOND
     1    1    2 1   
     2    2    3 1   
     3    2   21 1   
     4    2   22 1   
     5    3    4 1   
     6    3   23 1   
     7    3   24 1   
     8    4    5 1   
     9    4   25 1   
    10    4   26 1   
    11    5    6 1   
    12    6    7 ar  
    13    6   10 ar  
    14    7    8 1   
    15    7   13 ar  
    16    8    9 1   
    17    9   27 1   
    18    9   28 1   
    19    9   29 1   
    20   10   11 ar  
    21   10   14 ar  
    22   11   12 ar  
    23   11   20 ar  
    24   12   13 ar  
    25   12   30 1   
    26   13   31 1   
    27   14   15 ar  
    28   14   32 1   
    29   15   16 1   
    30   15   19 ar  
    31   16   17 1   
    32   16   18 2   
    33   17   33 1   
    34   17   34 1   
    35   17   38 1   
    36   18   35 1   
    37   19   20 ar  
    38   19   36 1   
    39   20   37 1   
@<TRIPOS>SUBSTRUCTURE
     1 8UP         1 TEMP              0 ****  ****    0 ROOT
