@<TRIPOS>MOLECULE
8UP
   37    31     1     0     0
SMALL
bcc


@<TRIPOS>ATOM
      1 BR         -5.6160    2.3540   -2.1030 br        1 8UP     -0.041000
      2 C14        -3.7390    1.9600   -2.2350 c3        1 8UP     -0.217000
      3 C13        -3.2460    1.3590   -0.8900 c3        1 8UP     -0.166000
      4 C12        -1.7280    1.0190   -0.9870 c3        1 8UP     -0.024000
      5 O2         -1.2020    0.8950    0.2930 os        1 8UP     -0.214000
      6 C11         0.1640    0.6680    0.3160 c2        1 8UP      0.033000
      7 C2          0.7750    1.9180    0.5320 c1        1 8UP      0.011500
      8 O1         -0.0170    2.9360    1.1210 o         1 8UP     -0.209000
      9 C1          0.5140    4.2810    0.9320 c3        1 8UP     -0.076000
     10 C10         0.9360   -0.5100    0.3380 c1        1 8UP      0.011500
     11 C5          2.2880   -0.4400    0.5700 c1        1 8UP     -0.045000
     12 C4          2.9150    0.8400    0.7910 c1        1 8UP     -0.108500
     13 C3          2.1550    1.9930    0.7690 c1        1 8UP     -0.127500
     14 C9          0.3030   -1.7750    0.1900 c1        1 8UP     -0.127500
     15 C8          1.0490   -2.9330    0.2800 c1        1 8UP     -0.108000
     16 C15         0.4400   -4.2970    0.1560 c1        1 8UP      0.115000
     17 N2          0.1600   -5.0600    1.3220 n2        1 8UP     -0.330000
     18 N1          0.1670   -4.7860   -1.0240 n1        1 8UP     -0.301000
     19 C7          2.4220   -2.8630    0.5150 c1        1 8UP     -0.104000
     20 C6          3.0450   -1.6200    0.6600 c1        1 8UP     -0.108500
     21 H14        -3.2750    2.7350   -2.4140 h1        1 8UP      0.112500
     22 H13        -3.5910    1.3240   -2.9480 h1        1 8UP      0.112500
     23 H12        -3.3870    2.0000   -0.1810 hc        1 8UP      0.110000
     24 H11        -3.7650    0.5210   -0.6910 hc        1 8UP      0.110000
     25 H9         -1.2370    1.7750   -1.4880 h1        1 8UP      0.085500
     26 H10        -1.6020    0.1180   -1.5060 h1        1 8UP      0.085500
     27 H2         -0.2340    4.9130    0.7790 h1        1 8UP      0.085333
     28 H3          1.1190    4.2900    0.1500 h1        1 8UP      0.085333
     29 H1          1.0270    4.5600    1.7560 h1        1 8UP      0.085333
     30 H5          3.8580    0.8910    0.9530 ha        1 8UP      0.138000
     31 H4          2.5950    2.8930    0.9230 ha        1 8UP      0.149000
     32 H8         -0.6750   -1.8270    0.1120 ha        1 8UP      0.149000
     33 H17        -0.1810   -5.9400    1.2400 hn        1 8UP      0.193500
     34 H15         0.2660   -4.6760    2.1690 hn        1 8UP      0.193500
     35 H16         0.3540   -4.2760   -1.8030 DU        1 8UP      0.150000
     36 H7          2.9400   -3.6700    0.5770 ha        1 8UP      0.151000
     37 H6          4.0040   -1.5710    0.8260 ha        1 8UP      0.138000
@<TRIPOS>BOND
     1    1    2 1   
     2    2    3 1   
     3    2   21 1   
     4    2   22 1   
     5    3    4 1   
     6    3   23 1   
     7    3   24 1   
     8    4    5 1   
     9    4   25 1   
    10    4   26 1   
    11    5    6 1   
    12    6    7 1   
    13    6   10 1   
    14    7   13 1   
    15    8    9 1   
    16    9   27 1   
    17    9   28 1   
    18    9   29 1   
    19   10   14 1   
    20   11   12 1   
    21   11   20 1   
    22   12   30 1   
    23   13   31 1   
    24   14   32 1   
    25   15   16 1   
    26   15   19 1   
    27   16   18 1   
    28   17   33 1   
    29   17   34 1   
    30   19   36 1   
    31   20   37 1   
@<TRIPOS>SUBSTRUCTURE
     1 8UP         1 TEMP              0 ****  ****    0 ROOT
