@<TRIPOS>MOLECULE
8UP
   38    39     1     0     0
SMALL
bcc


@<TRIPOS>ATOM
      1 BR          0.3840   -0.0890   -0.6860 br        1 8UP     -0.146400
      2 C14         1.9240    0.7510    0.1020 c3        1 8UP     -0.021000
      3 C13         2.6980   -0.1800    0.9990 c3        1 8UP     -0.089400
      4 C12         3.9270    0.5370    1.5390 c3        1 8UP      0.135400
      5 O2          4.5440   -0.3940    2.4480 os        1 8UP     -0.340900
      6 C11         5.8790   -0.2070    2.7220 ca        1 8UP      0.119100
      7 C2          6.5510    1.0210    2.7330 ca        1 8UP      0.081100
      8 O1          5.8190    2.1320    2.3700 os        1 8UP     -0.329900
      9 C1          6.4840    3.3930    2.4490 c3        1 8UP      0.108700
     10 C10         6.5750   -1.3970    3.0990 ca        1 8UP     -0.049000
     11 C5          7.9440   -1.3190    3.4690 ca        1 8UP     -0.020000
     12 C4          8.5990   -0.0660    3.4510 ca        1 8UP     -0.118000
     13 C3          7.9200    1.0760    3.0920 ca        1 8UP     -0.122000
     14 C9          5.9150   -2.6550    3.1270 ca        1 8UP     -0.019000
     15 C8          6.6050   -3.7880    3.5050 ca        1 8UP     -0.280900
     16 C15         5.9050   -5.0840    3.5710 ce        1 8UP      0.599800
     17 N2          6.4710   -6.0640    2.5710 n4        1 8UP     -0.826600
     18 N1          4.9410   -5.5040    4.2940 n2        1 8UP     -0.718100
     19 C7          7.9760   -3.7170    3.8770 ca        1 8UP     -0.146000
     20 C6          8.6230   -2.5100    3.8600 ca        1 8UP     -0.075000
     21 H14         2.5580    1.1100   -0.7420 h1        1 8UP      0.080200
     22 H13         1.5490    1.6330    0.6740 h1        1 8UP      0.080200
     23 H12         2.0620   -0.5200    1.8590 hc        1 8UP      0.064700
     24 H11         3.0210   -1.0950    0.4370 hc        1 8UP      0.064700
     25 H9          4.6380    0.8090    0.7180 h1        1 8UP      0.062700
     26 H10         3.6470    1.4550    2.1200 h1        1 8UP      0.062700
     27 H2          6.8330    3.5910    3.4910 h1        1 8UP      0.057700
     28 H3          7.3350    3.4320    1.7270 h1        1 8UP      0.057700
     29 H1          5.6830    4.1180    2.1550 h1        1 8UP      0.057700
     30 H5          9.6620   -0.0130    3.7340 ha        1 8UP      0.156000
     31 H4          8.4450    2.0450    3.0910 ha        1 8UP      0.161000
     32 H8          4.8480   -2.6910    2.8460 ha        1 8UP      0.165000
     33 H17         6.2630   -5.7150    1.6300 hn        1 8UP      0.468467
     34 H15         7.4880   -6.0950    2.7000 hn        1 8UP      0.468467
     35 H16         4.5500   -4.8830    4.9720 hn        1 8UP      0.490400
     36 H7          8.5000   -4.6240    4.2130 ha        1 8UP      0.132000
     37 H6          9.6820   -2.4360    4.1570 ha        1 8UP      0.159000
     38 H23         6.0780   -7.0060    2.6820 hn        1 8UP      0.468467
@<TRIPOS>BOND
     1    1    2 1   
     2    2    3 1   
     3    2   21 1   
     4    2   22 1   
     5    3    4 1   
     6    3   23 1   
     7    3   24 1   
     8    4    5 1   
     9    4   25 1   
    10    4   26 1   
    11    5    6 1   
    12    6    7 ar  
    13    6   10 ar  
    14    7    8 1   
    15    7   13 ar  
    16    8    9 1   
    17    9   27 1   
    18    9   28 1   
    19    9   29 1   
    20   10   11 ar  
    21   10   14 ar  
    22   11   12 ar  
    23   11   20 ar  
    24   12   13 ar  
    25   12   30 1   
    26   13   31 1   
    27   14   15 ar  
    28   14   32 1   
    29   15   16 1   
    30   15   19 ar  
    31   16   17 1   
    32   16   18 2   
    33   17   33 1   
    34   17   34 1   
    35   17   38 1   
    36   18   35 1   
    37   19   20 ar  
    38   19   36 1   
    39   20   37 1   
@<TRIPOS>SUBSTRUCTURE
     1 8UP         1 TEMP              0 ****  ****    0 ROOT
