@<TRIPOS>MOLECULE
8V1
   56    60     1     0     0
SMALL
bcc


@<TRIPOS>ATOM
      1 O1         -1.2980   -0.8700    0.6040 o         1 8V1     -0.602100
      2 C15        -0.0530   -0.9020    0.5810 c         1 8V1      0.669100
      3 C16         0.7020   -1.0130    1.9240 c3        1 8V1      0.092500
      4 N2          1.8770   -1.8820    1.8550 n3        1 8V1     -0.819200
      5 C19         3.0620   -1.1040    2.2000 c3        1 8V1      0.149800
      6 C18         2.6390    0.3040    2.6500 c3        1 8V1     -0.103400
      7 C17         1.1410    0.3960    2.3850 c3        1 8V1     -0.091400
      8 N1          0.7000   -0.7800   -0.5720 n         1 8V1     -0.449100
      9 C12         0.2150   -0.7260   -1.8910 ca        1 8V1      0.045600
     10 C11        -1.1320   -0.4380   -2.2030 ca        1 8V1     -0.146000
     11 C10        -1.5520   -0.3670   -3.5250 ca        1 8V1     -0.136000
     12 C13         1.1270   -0.9380   -2.9530 ca        1 8V1     -0.146000
     13 C14         0.7100   -0.8560   -4.2750 ca        1 8V1     -0.136000
     14 C9         -0.6290   -0.5710   -4.5610 ca        1 8V1      0.080100
     15 O          -1.1150   -0.3790   -5.8510 os        1 8V1     -0.249200
     16 C7         -0.5240   -1.1420   -6.8570 ca        1 8V1      0.074100
     17 C6         -0.3550   -0.4690   -8.0890 ca        1 8V1     -0.121000
     18 C5          0.1140   -1.1490   -9.1990 ca        1 8V1     -0.126000
     19 C4          0.4300   -2.5100   -9.0600 ca        1 8V1     -0.059200
     20 N           0.8940   -3.4400  -10.0020 na        1 8V1     -0.073400
     21 C           1.2940   -3.1460  -11.3360 c3        1 8V1      0.031600
     22 C8         -0.2220   -2.4920   -6.6940 ca        1 8V1     -0.122000
     23 C3          0.2720   -3.1920   -7.7930 ca        1 8V1     -0.059800
     24 C2          0.6860   -4.5670   -8.0090 cc        1 8V1     -0.042400
     25 C1          1.0630   -4.6680   -9.3540 cd        1 8V1     -0.101100
     26 C20         0.7090   -5.6220   -7.0600 cc        1 8V1     -0.179100
     27 C22         0.6440   -7.0080   -7.3070 cd        1 8V1     -0.150300
     28 N4          0.7260   -7.6440   -6.0620 na        1 8V1      0.083400
     29 C23         0.6330   -9.0700   -5.8710 c3        1 8V1      0.042600
     30 N3          0.8260   -6.7580   -5.0560 nd        1 8V1     -0.509800
     31 C21         0.8250   -5.5240   -5.6150 cc        1 8V1      0.308200
     32 H16        -0.0630   -1.4270    2.6460 h1        1 8V1      0.078700
     33 H1          1.6820   -0.9380   -0.4900 hn        1 8V1      0.328500
     34 H2          1.7660   -2.6720    2.4600 hn        1 8V1      0.371800
     35 H171        0.5830    0.6840    3.3080 hc        1 8V1      0.062200
     36 H172        0.9180    1.1610    1.6010 hc        1 8V1      0.062200
     37 H191        3.6970   -1.0370    1.2730 h1        1 8V1      0.046700
     38 H192        3.6720   -1.6100    2.9950 h1        1 8V1      0.046700
     39 H181        2.8610    0.4510    3.7360 hc        1 8V1      0.053200
     40 H182        3.1990    1.0830    2.0800 hc        1 8V1      0.053200
     41 H11        -1.8710   -0.2750   -1.3990 ha        1 8V1      0.153500
     42 H13         2.1840   -1.1680   -2.7450 ha        1 8V1      0.153500
     43 H10        -2.6010   -0.1440   -3.7670 ha        1 8V1      0.150000
     44 H14         1.4250   -1.0200   -5.0950 ha        1 8V1      0.150000
     45 H6         -0.6170    0.5980   -8.1510 ha        1 8V1      0.149000
     46 H8         -0.3720   -2.9890   -5.7240 ha        1 8V1      0.154000
     47 H5          0.2370   -0.6360  -10.1620 ha        1 8V1      0.135000
     48 HC1         0.5910   -2.3930  -11.7830 h1        1 8V1      0.048700
     49 HC2         2.3360   -2.7220  -11.3570 h1        1 8V1      0.048700
     50 HC3         1.2720   -4.0840  -11.9520 h1        1 8V1      0.048700
     51 HA          1.4330   -5.5380   -9.8990 h4        1 8V1      0.164000
     52 H22         0.5480   -7.5600   -8.2390 h4        1 8V1      0.171000
     53 H21         0.9100   -4.6170   -5.0160 h4        1 8V1      0.046100
     54 H231       -0.3840   -9.3410   -5.4790 h1        1 8V1      0.056033
     55 H232        1.4090   -9.4140   -5.1360 h1        1 8V1      0.056033
     56 H233        0.8010   -9.5760   -6.8570 h1        1 8V1      0.056033
@<TRIPOS>BOND
     1    1    2 2   
     2    2    3 1   
     3    2    8 1   
     4    3    4 1   
     5    3    7 1   
     6    3   32 1   
     7    4    5 1   
     8    4   34 1   
     9    5    6 1   
    10    5   37 1   
    11    5   38 1   
    12    6    7 1   
    13    6   39 1   
    14    6   40 1   
    15    7   35 1   
    16    7   36 1   
    17    8    9 1   
    18    8   33 1   
    19    9   10 ar  
    20    9   12 ar  
    21   10   11 ar  
    22   10   41 1   
    23   11   14 ar  
    24   11   43 1   
    25   12   13 ar  
    26   12   42 1   
    27   13   14 ar  
    28   13   44 1   
    29   14   15 1   
    30   15   16 1   
    31   16   17 ar  
    32   16   22 ar  
    33   17   18 ar  
    34   17   45 1   
    35   18   19 ar  
    36   18   47 1   
    37   19   20 1   
    38   19   23 ar  
    39   20   21 1   
    40   20   25 1   
    41   21   48 1   
    42   21   49 1   
    43   21   50 1   
    44   22   23 ar  
    45   22   46 1   
    46   23   24 1   
    47   24   25 2   
    48   24   26 1   
    49   25   51 1   
    50   26   27 2   
    51   26   31 1   
    52   27   28 1   
    53   27   52 1   
    54   28   29 1   
    55   28   30 1   
    56   29   54 1   
    57   29   55 1   
    58   29   56 1   
    59   30   31 2   
    60   31   53 1   
@<TRIPOS>SUBSTRUCTURE
     1 8V1         1 TEMP              0 ****  ****    0 ROOT
