@<TRIPOS>MOLECULE
8V1
   56    60     1     0     0
SMALL
bcc


@<TRIPOS>ATOM
      1 O1         -1.3240   -1.0130    0.6470 o         1 8V1     -0.602100
      2 C15        -0.0800   -0.9860    0.6090 c         1 8V1      0.669100
      3 C16         0.6950   -1.0720    1.9430 c3        1 8V1      0.092500
      4 N2          1.9090   -1.8840    1.8530 n7        1 8V1     -0.819200
      5 C19         3.0590   -1.0530    2.1920 c3        1 8V1      0.149800
      6 C18         2.5750    0.3290    2.6590 c3        1 8V1     -0.103400
      7 C17         1.0720    0.3520    2.4120 c3        1 8V1     -0.091400
      8 N1          0.6530   -0.8190   -0.5510 ns        1 8V1     -0.449100
      9 C12         0.1510   -0.7760   -1.8640 ca        1 8V1      0.044600
     10 C11        -1.2120   -0.5490   -2.1580 ca        1 8V1     -0.146000
     11 C10        -1.6490   -0.4870   -3.4750 ca        1 8V1     -0.136500
     12 C13         1.0600   -0.9350   -2.9380 ca        1 8V1     -0.146000
     13 C14         0.6250   -0.8610   -4.2550 ca        1 8V1     -0.136500
     14 C9         -0.7300   -0.6370   -4.5220 ca        1 8V1      0.080100
     15 O          -1.2380   -0.4570   -5.8050 os        1 8V1     -0.249200
     16 C7         -0.6210   -1.1780   -6.8260 ca        1 8V1      0.074100
     17 C6         -0.4960   -0.4830   -8.0510 ca        1 8V1     -0.121000
     18 C5         -0.0050   -1.1270   -9.1730 ca        1 8V1     -0.127000
     19 C4          0.3760   -2.4730   -9.0550 ca        1 8V1     -0.059200
     20 N           0.8760   -3.3680  -10.0120 na        1 8V1     -0.073400
     21 C           1.2490   -3.0380  -11.3460 c3        1 8V1      0.031600
     22 C8         -0.2540   -2.5140   -6.6820 ca        1 8V1     -0.122000
     23 C3          0.2620   -3.1760   -7.7950 ca        1 8V1     -0.059800
     24 C2          0.7390   -4.5270   -8.0320 cc        1 8V1     -0.042400
     25 C1          1.1080   -4.5940   -9.3810 cd        1 8V1     -0.101100
     26 C20         0.8210   -5.5920   -7.0960 cc        1 8V1     -0.179100
     27 C22         0.8180   -6.9760   -7.3600 cd        1 8V1     -0.150300
     28 N4          0.9420   -7.6230   -6.1250 na        1 8V1      0.083400
     29 C23         0.9180   -9.0540   -5.9510 c3        1 8V1      0.042600
     30 N3          1.0090   -6.7460   -5.1080 nd        1 8V1     -0.509800
     31 C21         0.9440   -5.5070   -5.6510 cc        1 8V1      0.308200
     32 H16        -0.0410   -1.5280    2.6700 h1        1 8V1      0.078700
     33 H1          1.6420   -0.9310   -0.4810 hn        1 8V1      0.328500
     34 H2          1.8430   -2.6830    2.4520 hn        1 8V1      0.371800
     35 H171        0.8040    1.1120    1.6380 hc        1 8V1      0.062200
     36 H172        0.5110    0.6050    3.3440 hc        1 8V1      0.062200
     37 H191        3.7020   -1.5360    2.9760 h1        1 8V1      0.046700
     38 H192        3.6800   -0.9480    1.2590 h1        1 8V1      0.046700
     39 H181        2.8030    0.4780    3.7430 hc        1 8V1      0.053200
     40 H182        3.0910    1.1390    2.0900 hc        1 8V1      0.053200
     41 H11        -1.9480   -0.4290   -1.3450 ha        1 8V1      0.153500
     42 H13         2.1290   -1.1170   -2.7440 ha        1 8V1      0.153500
     43 H10        -2.7110   -0.3110   -3.7030 ha        1 8V1      0.150000
     44 H14         1.3370   -0.9840   -5.0840 ha        1 8V1      0.150000
     45 H6         -0.8080    0.5710   -8.0970 ha        1 8V1      0.149000
     46 H8         -0.3710   -3.0300   -5.7180 ha        1 8V1      0.154000
     47 H5          0.0850   -0.5960  -10.1310 ha        1 8V1      0.135000
     48 HC1         1.2650   -3.9690  -11.9730 h1        1 8V1      0.048700
     49 HC2         0.5060   -2.3140  -11.7770 h1        1 8V1      0.048700
     50 HC3         2.2690   -2.5660  -11.3700 h1        1 8V1      0.048700
     51 HA          1.5140   -5.4390   -9.9400 h4        1 8V1      0.164000
     52 H22         0.7410   -7.5210   -8.2990 h4        1 8V1      0.171000
     53 H21         0.9930   -4.6040   -5.0410 h4        1 8V1      0.046100
     54 H231       -0.0830   -9.3770   -5.5560 h1        1 8V1      0.056033
     55 H232        1.7140   -9.3700   -5.2260 h1        1 8V1      0.056033
     56 H233        1.1010   -9.5390   -6.9450 h1        1 8V1      0.056033
@<TRIPOS>BOND
     1    1    2 2   
     2    2    3 1   
     3    2    8 1   
     4    3    4 1   
     5    3    7 1   
     6    3   32 1   
     7    4    5 1   
     8    4   34 1   
     9    5    6 1   
    10    5   37 1   
    11    5   38 1   
    12    6    7 1   
    13    6   39 1   
    14    6   40 1   
    15    7   35 1   
    16    7   36 1   
    17    8    9 1   
    18    8   33 1   
    19    9   10 ar  
    20    9   12 ar  
    21   10   11 ar  
    22   10   41 1   
    23   11   14 ar  
    24   11   43 1   
    25   12   13 ar  
    26   12   42 1   
    27   13   14 ar  
    28   13   44 1   
    29   14   15 1   
    30   15   16 1   
    31   16   17 ar  
    32   16   22 ar  
    33   17   18 ar  
    34   17   45 1   
    35   18   19 ar  
    36   18   47 1   
    37   19   20 1   
    38   19   23 ar  
    39   20   21 1   
    40   20   25 1   
    41   21   48 1   
    42   21   49 1   
    43   21   50 1   
    44   22   23 ar  
    45   22   46 1   
    46   23   24 1   
    47   24   25 2   
    48   24   26 1   
    49   25   51 1   
    50   26   27 2   
    51   26   31 1   
    52   27   28 1   
    53   27   52 1   
    54   28   29 1   
    55   28   30 1   
    56   29   54 1   
    57   29   55 1   
    58   29   56 1   
    59   30   31 2   
    60   31   53 1   
@<TRIPOS>SUBSTRUCTURE
     1 8V1         1 TEMP              0 ****  ****    0 ROOT
