@<TRIPOS>MOLECULE
8VJ
   45    47     1     0     0
SMALL
bcc


@<TRIPOS>ATOM
      1 C29         0.0570    0.0880    0.1210 c3        1 8VJ      0.081100
      2 N28         1.5280   -0.0850    0.2000 nx        1 8VJ     -0.687400
      3 C30         1.9400   -0.4800    1.5700 c3        1 8VJ      0.081100
      4 C27         2.0090   -1.0910   -0.8270 c3        1 8VJ      0.189100
      5 C26         5.7290   -1.7360   -0.6950 ca        1 8VJ     -0.185000
      6 C25         4.3730   -1.8210   -0.4340 ca        1 8VJ     -0.060500
      7 C24         3.4660   -0.9600   -1.0740 ca        1 8VJ     -0.246300
      8 C23         3.9400   -0.0130   -1.9900 ca        1 8VJ     -0.060500
      9 C22         5.2990    0.0910   -2.2640 ca        1 8VJ     -0.185000
     10 C21         6.2010   -0.7710   -1.6180 ca        1 8VJ      0.196100
     11 O12         7.5530   -0.7700   -1.7980 os        1 8VJ     -0.302900
     12 C11         8.0770    0.1650   -2.7670 c3        1 8VJ      0.176700
     13 C10        11.4990   -1.5190   -2.9150 ca        1 8VJ      0.444600
     14 C09        10.0810   -1.3230   -2.8130 ca        1 8VJ     -0.147300
     15 C08         9.5520   -0.0530   -2.8280 ca        1 8VJ     -0.097300
     16 C07        10.3910    1.0860   -2.9410 ca        1 8VJ     -0.146000
     17 C06        11.7510    0.9270   -3.0470 ca        1 8VJ     -0.081000
     18 C05        12.3300   -0.3650   -3.0370 ca        1 8VJ     -0.183300
     19 C04        13.7360   -0.5690   -3.1440 ca        1 8VJ     -0.053000
     20 C03        14.2460   -1.8350   -3.1350 ca        1 8VJ     -0.270300
     21 C02        13.3320   -2.9630   -3.0170 ca        1 8VJ      0.665200
     22 N02        13.8610   -4.2490   -3.1080 nv        1 8VJ     -0.939500
     23 N01        11.9980   -2.7990   -2.8900 nb        1 8VJ     -0.744000
     24 H291       -0.4470   -0.9020    0.2790 hx        1 8VJ      0.103033
     25 H292       -0.2190    0.4900   -0.8910 hx        1 8VJ      0.103033
     26 H293       -0.2790    0.8090    0.9140 hx        1 8VJ      0.103033
     27 H301        1.3910   -1.4110    1.8750 hx        1 8VJ      0.103033
     28 H302        3.0470   -0.6800    1.5740 hx        1 8VJ      0.103033
     29 H303        1.7000    0.3490    2.2880 hx        1 8VJ      0.103033
     30 H271        1.7470   -2.1170   -0.4430 hx        1 8VJ      0.101700
     31 H272        1.4290   -0.8960   -1.7760 hx        1 8VJ      0.101700
     32 H23         3.2340    0.6510   -2.5140 ha        1 8VJ      0.136500
     33 H22         5.6530    0.8380   -2.9910 ha        1 8VJ      0.169000
     34 H111        7.6050   -0.0450   -3.7640 h1        1 8VJ      0.055700
     35 H112        7.8280    1.2070   -2.4330 h1        1 8VJ      0.055700
     36 H09         9.4230   -2.2010   -2.7160 ha        1 8VJ      0.155000
     37 H07         9.9430    2.0900   -2.9450 ha        1 8VJ      0.132000
     38 H06        12.4120    1.8030   -3.1400 ha        1 8VJ      0.140000
     39 H04        14.3960    0.3090   -3.2350 ha        1 8VJ      0.144000
     40 H03        15.3260   -2.0170   -3.2250 ha        1 8VJ      0.150000
     41 H021       14.8110   -4.3410   -2.8350 hn        1 8VJ      0.419800
     42 H022       13.2670   -5.0110   -2.8720 hn        1 8VJ      0.419800
     43 H26         6.4520   -2.4090   -0.2080 ha        1 8VJ      0.169000
     44 H281        1.9790    0.8140   -0.0190 hn        1 8VJ      0.450800
     45 H25         4.0050   -2.5840    0.2710 ha        1 8VJ      0.136500
@<TRIPOS>BOND
     1    1    2 1   
     2    1   24 1   
     3    1   25 1   
     4    1   26 1   
     5    2    3 1   
     6    2    4 1   
     7    2   44 1   
     8    3   27 1   
     9    3   28 1   
    10    3   29 1   
    11    4    7 1   
    12    4   30 1   
    13    4   31 1   
    14    5    6 ar  
    15    5   10 ar  
    16    5   43 1   
    17    6    7 ar  
    18    6   45 1   
    19    7    8 ar  
    20    8    9 ar  
    21    8   32 1   
    22    9   10 ar  
    23    9   33 1   
    24   10   11 1   
    25   11   12 1   
    26   12   15 1   
    27   12   34 1   
    28   12   35 1   
    29   13   14 ar  
    30   13   18 ar  
    31   13   23 ar  
    32   14   15 ar  
    33   14   36 1   
    34   15   16 ar  
    35   16   17 ar  
    36   16   37 1   
    37   17   18 ar  
    38   17   38 1   
    39   18   19 ar  
    40   19   20 ar  
    41   19   39 1   
    42   20   21 ar  
    43   20   40 1   
    44   21   22 1   
    45   21   23 ar  
    46   22   41 1   
    47   22   42 1   
@<TRIPOS>SUBSTRUCTURE
     1 8VJ         1 TEMP              0 ****  ****    0 ROOT
