@<TRIPOS>MOLECULE
8VJ
   45    47     1     0     0
SMALL
bcc


@<TRIPOS>ATOM
      1 C29         0.0770    0.1100    0.1670 c3        1 8VJ      0.081100
      2 N28         1.5490   -0.0680    0.2240 n4        1 8VJ     -0.687400
      3 C30         1.9840   -0.4380    1.5930 c3        1 8VJ      0.081100
      4 C27         2.0090   -1.0940   -0.7930 c3        1 8VJ      0.189100
      5 C26         5.7290   -1.7440   -0.7070 ca        1 8VJ     -0.185000
      6 C25         4.3780   -1.8210   -0.4230 ca        1 8VJ     -0.061000
      7 C24         3.4620   -0.9730   -1.0680 ca        1 8VJ     -0.246300
      8 C23         3.9220   -0.0480   -2.0130 ca        1 8VJ     -0.061000
      9 C22         5.2770    0.0470   -2.3110 ca        1 8VJ     -0.185000
     10 C21         6.1880   -0.8010   -1.6580 ca        1 8VJ      0.196100
     11 O12         7.5370   -0.8060   -1.8580 os        1 8VJ     -0.301900
     12 C11         8.0510    0.1180   -2.8430 c3        1 8VJ      0.176700
     13 C10        11.4960   -1.5220   -2.9300 ca        1 8VJ      0.444600
     14 C09        10.0750   -1.3430   -2.8530 ca        1 8VJ     -0.147300
     15 C08         9.5300   -0.0810   -2.8930 ca        1 8VJ     -0.098300
     16 C07        10.3550    1.0670   -3.0100 ca        1 8VJ     -0.146000
     17 C06        11.7180    0.9250   -3.0940 ca        1 8VJ     -0.082000
     18 C05        12.3140   -0.3590   -3.0550 ca        1 8VJ     -0.182300
     19 C04        13.7240   -0.5460   -3.1360 ca        1 8VJ     -0.053000
     20 C03        14.2510   -1.8050   -3.0860 ca        1 8VJ     -0.270300
     21 C02        13.3520   -2.9420   -2.9460 ca        1 8VJ      0.663200
     22 N02        13.9130   -4.2090   -2.7980 nh        1 8VJ     -0.937500
     23 N01        12.0100   -2.7960   -2.8900 nb        1 8VJ     -0.743000
     24 H291       -0.2410    0.8470    0.9520 hx        1 8VJ      0.103033
     25 H292       -0.2150    0.4930   -0.8480 hx        1 8VJ      0.103033
     26 H293       -0.4260   -0.8760    0.3530 hx        1 8VJ      0.103033
     27 H301        1.7580    0.4050    2.2990 hx        1 8VJ      0.103033
     28 H302        1.4390   -1.3610    1.9250 hx        1 8VJ      0.103033
     29 H303        3.0910   -0.6400    1.5820 hx        1 8VJ      0.103033
     30 H271        1.7500   -2.1120   -0.3850 hx        1 8VJ      0.101700
     31 H272        1.4130   -0.9160   -1.7340 hx        1 8VJ      0.101700
     32 H23         3.2090    0.6040   -2.5410 ha        1 8VJ      0.136500
     33 H22         5.6200    0.7750   -3.0610 ha        1 8VJ      0.169000
     34 H111        7.5860   -0.1200   -3.8380 h1        1 8VJ      0.055200
     35 H112        7.7870    1.1630   -2.5320 h1        1 8VJ      0.055200
     36 H09         9.4270   -2.2290   -2.7520 ha        1 8VJ      0.155000
     37 H07         9.8940    2.0650   -3.0340 ha        1 8VJ      0.132000
     38 H06        12.3700    1.8080   -3.1890 ha        1 8VJ      0.140000
     39 H04        14.3740    0.3380   -3.2380 ha        1 8VJ      0.144000
     40 H03        15.3360   -1.9730   -3.1390 ha        1 8VJ      0.150000
     41 H021       13.3040   -4.9920   -2.8660 hn        1 8VJ      0.418800
     42 H022       14.8100   -4.3270   -3.2070 hn        1 8VJ      0.418800
     43 H26         6.4600   -2.4060   -0.2150 ha        1 8VJ      0.169000
     44 H281        1.9990    0.8260   -0.0210 hn        1 8VJ      0.450800
     45 H25         4.0190   -2.5670    0.3040 ha        1 8VJ      0.136500
@<TRIPOS>BOND
     1    1    2 1   
     2    1   24 1   
     3    1   25 1   
     4    1   26 1   
     5    2    3 1   
     6    2    4 1   
     7    2   44 1   
     8    3   27 1   
     9    3   28 1   
    10    3   29 1   
    11    4    7 1   
    12    4   30 1   
    13    4   31 1   
    14    5    6 ar  
    15    5   10 ar  
    16    5   43 1   
    17    6    7 ar  
    18    6   45 1   
    19    7    8 ar  
    20    8    9 ar  
    21    8   32 1   
    22    9   10 ar  
    23    9   33 1   
    24   10   11 1   
    25   11   12 1   
    26   12   15 1   
    27   12   34 1   
    28   12   35 1   
    29   13   14 ar  
    30   13   18 ar  
    31   13   23 ar  
    32   14   15 ar  
    33   14   36 1   
    34   15   16 ar  
    35   16   17 ar  
    36   16   37 1   
    37   17   18 ar  
    38   17   38 1   
    39   18   19 ar  
    40   19   20 ar  
    41   19   39 1   
    42   20   21 ar  
    43   20   40 1   
    44   21   22 1   
    45   21   23 ar  
    46   22   41 1   
    47   22   42 1   
@<TRIPOS>SUBSTRUCTURE
     1 8VJ         1 TEMP              0 ****  ****    0 ROOT
