@<TRIPOS>MOLECULE
8WS
   41    39     1     0     0
SMALL
bcc


@<TRIPOS>ATOM
      1 C1        -63.5740  509.9870   22.1370 c3        1 8WS     -0.198100
      2 N1        -63.3790  510.4720   19.6270 ny        1 8WS     -0.706800
      3 O1        -61.7280  509.2500   20.7000 o         1 8WS     -0.474100
      4 C01       -60.1010  507.6930   17.2710 c3        1 8WS      0.079100
      5 C02       -61.9160  509.1890   18.0830 c         1 8WS      0.508100
      6 N02        97.4390 -724.1640  -26.1510 n2        1 8WS     -0.424800
      7 O02        96.1460 -726.7980  -26.0580 os        1 8WS     -0.175900
      8 C03       -62.4130  510.5910   18.4770 c3        1 8WS      0.071500
      9 C04       -61.3130  511.6050   18.7450 c3        1 8WS     -0.164100
     10 C05        95.3060 -723.2890  -25.1220 c3        1 8WS     -0.093200
     11 C06        95.8790 -721.8950  -25.1210 c3        1 8WS     -0.114100
     12 C07        96.2500 -724.3190  -25.6870 ce        1 8WS     -0.007200
     13 C08        95.6530 -725.6740  -25.6700 c2        1 8WS      0.333100
     14 C09        97.4750 -726.9840  -26.6290 c3        1 8WS      0.106700
     15 C10       -62.7880  509.8280   20.8920 c         1 8WS      0.606100
     16 H1        -62.9730  510.6040   22.8660 hc        1 8WS      0.145367
     17 H1A       -64.5760  510.4650   21.9970 hc        1 8WS      0.145367
     18 H1B       -63.7180  508.9680   22.6010 hc        1 8WS      0.145367
     19 HN1       -64.1900  509.9080   19.3280 hn        1 8WS      0.491300
     20 H01       -60.4380  507.7960   16.2030 hx        1 8WS      0.133700
     21 H01A      -59.9720  509.7370   17.5960 hn        1 8WS      0.485300
     22 H01B      -60.6130  506.8070   17.7380 hx        1 8WS      0.133700
     23 HN01      -58.9840  507.5550   17.3120 hx        1 8WS      0.133700
     24 HN02       97.8210 -723.2370  -26.1520 hn        1 8WS      0.425800
     25 H03       -63.0230  510.9540   17.5780 hx        1 8WS      0.172700
     26 H04        95.1260 -721.1880  -24.6900 hc        1 8WS      0.066033
     27 H04A      -61.7480  512.6000   19.0310 hc        1 8WS      0.106700
     28 H05       -60.7290  511.7840   17.8040 hc        1 8WS      0.106700
     29 H05A      -60.6250  511.2810   19.5640 hc        1 8WS      0.106700
     30 H06        94.3580 -723.3030  -25.7290 hc        1 8WS      0.085700
     31 H06A       95.0410 -723.5850  -24.0690 hc        1 8WS      0.085700
     32 H07        96.1180 -721.5520  -26.1570 hc        1 8WS      0.066033
     33 H07A       96.8020 -721.8350  -24.4950 hc        1 8WS      0.066033
     34 H09        97.4800 -728.0930  -26.8130 h1        1 8WS      0.116033
     35 H09A       94.6110 -725.7930  -25.2660 h4        1 8WS      0.234000
     36 H09B       97.5510 -726.4020  -27.5790 h1        1 8WS      0.116033
     37 N01       -60.4480  508.9310   18.0270 ny        1 8WS     -0.645800
     38 O01       -62.6870  508.2810   17.8110 o         1 8WS     -0.359100
     39 H12       -63.7140  511.4190   19.8630 hn        1 8WS      0.491300
     40 H022       98.2440 -726.6800  -25.8790 h1        1 8WS      0.116033
     41 H012      -60.1120  508.8390   19.0030 hn        1 8WS      0.485300
@<TRIPOS>BOND
     1    1   15 1   
     2    1   16 1   
     3    1   17 1   
     4    1   18 1   
     5    2    8 1   
     6    2   15 1   
     7    2   19 1   
     8    2   39 1   
     9    3   15 2   
    10    4   20 1   
    11    4   22 1   
    12    4   23 1   
    13    4   37 1   
    14    5    8 1   
    15    5   37 1   
    16    5   38 2   
    17    6   12 1   
    18    6   24 1   
    19    7   13 1   
    20    7   14 1   
    21    8    9 1   
    22    8   25 1   
    23    9   27 1   
    24    9   28 1   
    25    9   29 1   
    26   10   11 1   
    27   10   12 1   
    28   10   30 1   
    29   10   31 1   
    30   11   26 1   
    31   11   32 1   
    32   11   33 1   
    33   12   13 2   
    34   13   35 1   
    35   14   34 1   
    36   14   36 1   
    37   14   40 1   
    38   21   37 1   
    39   37   41 1   
@<TRIPOS>SUBSTRUCTURE
     1 8WS         1 TEMP              0 ****  ****    0 ROOT
