@<TRIPOS>MOLECULE
8WS
   41    40     1     0     0
SMALL
bcc


@<TRIPOS>ATOM
      1 C1         -0.1900    0.5270   -0.0090 c3        1 8WS     -0.195100
      2 N1          2.0430    0.0140    1.1310 n4        1 8WS     -0.714800
      3 O1          1.8820   -0.0400   -1.2080 o         1 8WS     -0.397100
      4 C01         5.8830    2.8980    0.7060 c3        1 8WS      0.075100
      5 C02         4.0620    1.2480    0.3450 c         1 8WS      0.508100
      6 N02         4.6480   -6.2790    0.6040 n4        1 8WS     -0.699800
      7 O02         3.2390   -7.3940    2.0980 o         1 8WS     -0.385100
      8 C03         3.5410   -0.0280    1.0320 c3        1 8WS      0.074500
      9 C04         4.0790   -1.2880    0.3270 c3        1 8WS     -0.113400
     10 C05         3.7020   -2.5760    1.0410 c3        1 8WS     -0.088400
     11 C06         4.4450   -3.7610    0.4370 c3        1 8WS     -0.103400
     12 C07         3.9880   -5.0490    1.1190 c3        1 8WS      0.100800
     13 C08         4.1300   -7.5690    1.2910 c         1 8WS      0.573100
     14 C09         4.8030   -8.8210    0.8610 c3        1 8WS     -0.193100
     15 C10         1.2340    0.1580   -0.2020 c         1 8WS      0.591100
     16 H1         -0.3000    1.6400   -0.1500 hc        1 8WS      0.146033
     17 H1A        -0.6120    0.2400    0.9860 hc        1 8WS      0.146033
     18 H1B        -0.7960    0.0230   -0.8190 hc        1 8WS      0.146033
     19 HN1         1.7370   -0.8580    1.5840 hn        1 8WS      0.478300
     20 H01         5.5960    3.0920    1.7740 hx        1 8WS      0.139367
     21 H01A        5.3360    3.6110    0.0250 hx        1 8WS      0.139367
     22 H01B        6.9950    3.0380    0.5790 hx        1 8WS      0.139367
     23 HN01        5.8870    1.3160   -0.6230 hn        1 8WS      0.481800
     24 HN02        4.4820   -6.3690   -0.4050 hn        1 8WS      0.460800
     25 H03         3.9290   -0.0240    2.1040 hx        1 8WS      0.139700
     26 H04         3.7190   -1.3250   -0.7390 hc        1 8WS      0.100200
     27 H04A        5.2000   -1.2130    0.3030 hc        1 8WS      0.100200
     28 H05         2.5990   -2.7640    0.9500 hc        1 8WS      0.066700
     29 H05A        3.9500   -2.5010    2.1330 hc        1 8WS      0.066700
     30 H06         5.5510   -3.6210    0.5720 hc        1 8WS      0.079700
     31 H06A        4.2380   -3.8100   -0.6670 hc        1 8WS      0.079700
     32 H07         2.8730   -5.1840    0.9850 hx        1 8WS      0.119700
     33 H07A        4.1940   -4.9940    2.2290 hx        1 8WS      0.119700
     34 H09         5.3300   -9.2660    1.7530 hc        1 8WS      0.135033
     35 H09A        5.5380   -8.6930    0.0300 hc        1 8WS      0.135033
     36 H09B        4.0100   -9.5550    0.5380 hc        1 8WS      0.135033
     37 N01         5.5390    1.4900    0.3370 n4        1 8WS     -0.651800
     38 O01         3.3490    2.0910   -0.1780 o         1 8WS     -0.356100
     39 H12         1.7710    0.8030    1.7340 hn        1 8WS      0.478300
     40 H022        5.6610   -6.2230    0.7530 hn        1 8WS      0.460800
     41 H012        6.0160    0.8440    0.9780 hn        1 8WS      0.481800
@<TRIPOS>BOND
     1    1   15 1   
     2    1   16 1   
     3    1   17 1   
     4    1   18 1   
     5    2    8 1   
     6    2   15 1   
     7    2   19 1   
     8    2   39 1   
     9    3   15 2   
    10    4   20 1   
    11    4   21 1   
    12    4   22 1   
    13    4   37 1   
    14    5    8 1   
    15    5   37 1   
    16    5   38 2   
    17    6   12 1   
    18    6   13 1   
    19    6   24 1   
    20    6   40 1   
    21    7   13 2   
    22    8    9 1   
    23    8   25 1   
    24    9   10 1   
    25    9   26 1   
    26    9   27 1   
    27   10   11 1   
    28   10   28 1   
    29   10   29 1   
    30   11   12 1   
    31   11   30 1   
    32   11   31 1   
    33   12   32 1   
    34   12   33 1   
    35   13   14 1   
    36   14   34 1   
    37   14   35 1   
    38   14   36 1   
    39   23   37 1   
    40   37   41 1   
@<TRIPOS>SUBSTRUCTURE
     1 8WS         1 TEMP              0 ****  ****    0 ROOT
