@<TRIPOS>MOLECULE
8XA
   35    37     1     0     0
SMALL
bcc


@<TRIPOS>ATOM
      1 P           0.3980    0.4050   -0.6550 p5        1 8XA      1.437800
      2 OP1         1.5690    0.9890    0.0370 o         1 8XA     -0.853500
      3 OP2        -0.2800   -0.8360   -0.2200 o         1 8XA     -0.853500
      4 O5'        -0.7550    1.5910   -0.7430 os        1 8XA     -0.590200
      5 C5'        -0.3300    2.8600   -1.1380 c3        1 8XA      0.187400
      6 C4'        -1.0940    3.2860   -2.3950 c3        1 8XA      0.022100
      7 O4'        -1.5600    4.6460   -2.2200 os        1 8XA     -0.436600
      8 C1'        -1.1350    5.4750   -3.2970 c3        1 8XA      0.219800
      9 N9         -0.0310    6.3350   -2.8900 na        1 8XA     -0.251000
     10 C4         -0.0910    7.6910   -2.5610 ca        1 8XA      0.429800
     11 N3         -1.1160    8.5970   -2.5850 nb        1 8XA     -0.709000
     12 C2         -0.7430    9.8270   -2.1750 ca        1 8XA      0.627900
     13 N1          0.4690   10.2900   -1.7570 nb        1 8XA     -0.802000
     14 C6          1.5100    9.3980   -1.7590 ca        1 8XA      0.672200
     15 N6          2.8110    9.8170   -1.4430 nh        1 8XA     -0.920500
     16 C5          1.2750    8.0480   -2.1500 ca        1 8XA     -0.192200
     17 N7          2.1010    6.9180   -2.2210 nc        1 8XA     -0.618100
     18 C8          1.3010    5.9230   -2.6480 cd        1 8XA      0.460700
     19 C2'        -0.7470    4.5220   -4.4650 c3        1 8XA      0.013100
     20 O2'        -1.8880    4.3400   -5.2810 oh        1 8XA     -0.621800
     21 C3'        -0.2670    3.2030   -3.7280 c3        1 8XA      0.363800
     22 O3'         1.0400    3.1590   -3.5890 o         1 8XA     -0.857500
     23 O1          0.7500    0.2920   -2.2370 oh        1 8XA     -0.807400
     24 H5'        -0.5660    3.5900   -0.3110 h1        1 8XA      0.037700
     25 H5''        0.7790    2.8670   -1.3340 h1        1 8XA      0.037700
     26 H4'        -2.0340    2.6750   -2.4850 h1        1 8XA      0.038700
     27 H1'        -2.0140    6.1390   -3.5420 h2        1 8XA      0.076700
     28 H2         -1.5510   10.5880   -2.1680 h5        1 8XA      0.022100
     29 H61         3.4090    9.0630   -1.1800 hn        1 8XA      0.396800
     30 H62         2.8660   10.6040   -0.8360 hn        1 8XA      0.396800
     31 H8          1.5710    4.8390   -2.8310 h5        1 8XA      0.177800
     32 H2'         0.0470    4.9310   -5.1330 h1        1 8XA      0.076700
     33 HO2'       -2.4280    3.6690   -4.8450 ho        1 8XA      0.396000
     34 H3'        -0.6930    2.3330   -4.3210 h1        1 8XA     -0.041300
     35 H3          1.0050    1.1140   -2.6560 ho        1 8XA      0.464000
@<TRIPOS>BOND
     1    1    2 1   
     2    1    3 1   
     3    1    4 1   
     4    1   23 1   
     5    4    5 1   
     6    5    6 1   
     7    5   24 1   
     8    5   25 1   
     9    6    7 1   
    10    6   21 1   
    11    6   26 1   
    12    7    8 1   
    13    8    9 1   
    14    8   19 1   
    15    8   27 1   
    16    9   10 1   
    17    9   18 1   
    18   10   11 ar  
    19   10   16 ar  
    20   11   12 ar  
    21   12   13 ar  
    22   12   28 1   
    23   13   14 ar  
    24   14   15 1   
    25   14   16 ar  
    26   15   29 1   
    27   15   30 1   
    28   16   17 1   
    29   17   18 2   
    30   18   31 1   
    31   19   20 1   
    32   19   21 1   
    33   19   32 1   
    34   20   33 1   
    35   21   22 1   
    36   21   34 1   
    37   23   35 1   
@<TRIPOS>SUBSTRUCTURE
     1 8XA         1 TEMP              0 ****  ****    0 ROOT
