@<TRIPOS>MOLECULE
8XA
   35    37     1     0     0
SMALL
bcc


@<TRIPOS>ATOM
      1 P           0.3970    0.3920   -0.6940 p5        1 8XA      1.437800
      2 OP1         1.5570    0.9740    0.0170 o         1 8XA     -0.853500
      3 OP2        -0.2820   -0.8550   -0.2770 o         1 8XA     -0.853500
      4 O5'        -0.7600    1.5750   -0.7840 os        1 8XA     -0.590200
      5 C5'        -0.3360    2.8490   -1.1630 c3        1 8XA      0.187400
      6 C4'        -1.0870    3.2830   -2.4250 c3        1 8XA      0.022100
      7 O4'        -1.5590    4.6390   -2.2430 os        1 8XA     -0.436600
      8 C1'        -1.1260    5.4800   -3.3070 c3        1 8XA      0.219800
      9 N9         -0.0290    6.3400   -2.8810 na        1 8XA     -0.251000
     10 C4         -0.0980    7.6930   -2.5400 ca        1 8XA      0.429800
     11 N3         -1.1270    8.5950   -2.5670 nb        1 8XA     -0.709000
     12 C2         -0.7630    9.8230   -2.1420 ca        1 8XA      0.627900
     13 N1          0.4430   10.2860   -1.7060 nb        1 8XA     -0.802000
     14 C6          1.4860    9.3990   -1.7040 ca        1 8XA      0.672200
     15 N6          2.7820    9.8190   -1.3700 nv        1 8XA     -0.920500
     16 C5          1.2620    8.0510   -2.1100 ca        1 8XA     -0.192200
     17 N7          2.0930    6.9250   -2.1830 nc        1 8XA     -0.618100
     18 C8          1.3020    5.9310   -2.6270 cd        1 8XA      0.460700
     19 C2'        -0.7210    4.5380   -4.4790 c3        1 8XA      0.013100
     20 O2'        -1.8510    4.3600   -5.3110 oh        1 8XA     -0.621800
     21 C3'        -0.2440    3.2140   -3.7490 c3        1 8XA      0.363800
     22 O3'         1.0610    3.1750   -3.5950 o         1 8XA     -0.857500
     23 O1          0.7670    0.2940   -2.2720 oh        1 8XA     -0.807400
     24 H5'        -0.5830    3.5700   -0.3330 h1        1 8XA      0.037700
     25 H5''        0.7760    2.8610   -1.3470 h1        1 8XA      0.037700
     26 H4'        -2.0230    2.6700   -2.5310 h1        1 8XA      0.038700
     27 H1'        -2.0040    6.1420   -3.5570 h2        1 8XA      0.076700
     28 H2         -1.5740   10.5800   -2.1370 h5        1 8XA      0.022100
     29 H61         2.8280   10.6010   -0.7550 hn        1 8XA      0.396800
     30 H62         3.3800    9.0650   -1.1070 hn        1 8XA      0.396800
     31 H8          1.5780    4.8500   -2.8170 h5        1 8XA      0.177800
     32 H2'         0.0800    4.9560   -5.1350 h1        1 8XA      0.076700
     33 HO2'       -2.3940    3.6830   -4.8860 ho        1 8XA      0.396000
     34 H3'        -0.6600    2.3490   -4.3550 h1        1 8XA     -0.041300
     35 H3          1.0240    1.1210   -2.6810 ho        1 8XA      0.464000
@<TRIPOS>BOND
     1    1    2 1   
     2    1    3 1   
     3    1    4 1   
     4    1   23 1   
     5    4    5 1   
     6    5    6 1   
     7    5   24 1   
     8    5   25 1   
     9    6    7 1   
    10    6   21 1   
    11    6   26 1   
    12    7    8 1   
    13    8    9 1   
    14    8   19 1   
    15    8   27 1   
    16    9   10 1   
    17    9   18 1   
    18   10   11 ar  
    19   10   16 ar  
    20   11   12 ar  
    21   12   13 ar  
    22   12   28 1   
    23   13   14 ar  
    24   14   15 1   
    25   14   16 ar  
    26   15   29 1   
    27   15   30 1   
    28   16   17 1   
    29   17   18 2   
    30   18   31 1   
    31   19   20 1   
    32   19   21 1   
    33   19   32 1   
    34   20   33 1   
    35   21   22 1   
    36   21   34 1   
    37   23   35 1   
@<TRIPOS>SUBSTRUCTURE
     1 8XA         1 TEMP              0 ****  ****    0 ROOT
