@<TRIPOS>MOLECULE
8XC
   34    35     1     0     0
SMALL
bcc


@<TRIPOS>ATOM
      1 P           0.0000    0.0000    0.0000 p5        1 8XC      0.806900
      2 OP1         1.6090    0.0000    0.0000 o         1 8XC     -0.516833
      3 OP2        -0.5370    0.0000    1.5170 o         1 8XC     -0.516833
      4 O5'        -0.5370    1.3130   -0.7590 os        1 8XC     -0.488200
      5 C5'        -1.9220    1.5520   -1.0170 c3        1 8XC      0.297400
      6 C4'        -2.0820    2.8860   -1.7520 c3        1 8XC      0.160100
      7 O4'        -1.5620    2.7850   -3.0960 os        1 8XC     -0.343600
      8 C1'        -2.1870    3.8630   -3.8270 c3        1 8XC      0.214500
      9 N1         -2.1430    3.5950   -5.2660 n         1 8XC      0.053000
     10 C6         -1.6170    4.5240   -6.1130 cc        1 8XC     -0.140400
     11 C2         -2.6170    2.4290   -5.7450 c         1 8XC      0.710900
     12 O2         -3.0800    1.6070   -4.9720 o         1 8XC     -0.666500
     13 N3         -2.5890    2.1600   -7.0490 nc        1 8XC     -0.665100
     14 C4         -2.0920    3.0370   -7.9110 cd        1 8XC     -0.003500
     15 N4         -2.0680    2.7480   -9.2560 nz        1 8XC      0.293400
     16 C5         -1.5820    4.2650   -7.4410 cd        1 8XC     -0.300600
     17 C2'        -3.6490    3.8820   -3.3270 c3        1 8XC      0.094100
     18 O2'        -4.1260    5.2250   -3.2280 oh        1 8XC     -0.596800
     19 C3'        -3.5780    3.2250   -1.9310 c3        1 8XC      0.140100
     20 O3'        -4.3690    2.0350   -1.8970 oh        1 8XC     -0.540800
     21 O1         -0.4930   -1.2090   -0.6980 o         1 8XC     -0.516833
     22 H5''       -2.4630    1.5900   -0.0790 h1        1 8XC      0.000700
     23 H5'        -2.3180    0.7520   -1.6310 h1        1 8XC      0.000700
     24 H4'        -1.5790    3.6810   -1.2150 h1        1 8XC      0.015700
     25 H1'        -1.7010    4.8030   -3.5970 h2        1 8XC      0.025700
     26 H6         -1.2320    5.4610   -5.7280 h4        1 8XC      0.121000
     27 H41        -1.1210    2.7550   -9.5820 hn        1 8XC      0.150133
     28 H42        -2.5970    3.4350   -9.7550 hn        1 8XC      0.150133
     29 H5         -1.1730    4.9910   -8.1330 ha        1 8XC      0.094000
     30 H2'        -4.2800    3.2980   -3.9860 h1        1 8XC      0.059700
     31 HO2'       -5.0170    5.2660   -3.5330 ho        1 8XC      0.383000
     32 H3'        -3.9000    3.9240   -1.1690 h1        1 8XC      0.007700
     33 HO3'       -5.1810    2.2090   -1.4510 ho        1 8XC      0.366000
     34 H43        -2.4660    1.8420   -9.4090 hn        1 8XC      0.150133
@<TRIPOS>BOND
     1    1    2 1   
     2    1    3 1   
     3    1    4 1   
     4    1   21 1   
     5    4    5 1   
     6    5    6 1   
     7    5   22 1   
     8    5   23 1   
     9    6    7 1   
    10    6   19 1   
    11    6   24 1   
    12    7    8 1   
    13    8    9 1   
    14    8   17 1   
    15    8   25 1   
    16    9   10 1   
    17    9   11 1   
    18   10   16 2   
    19   10   26 1   
    20   11   12 2   
    21   11   13 1   
    22   13   14 2   
    23   14   15 1   
    24   14   16 1   
    25   15   27 1   
    26   15   28 1   
    27   15   34 1   
    28   16   29 1   
    29   17   18 1   
    30   17   19 1   
    31   17   30 1   
    32   18   31 1   
    33   19   20 1   
    34   19   32 1   
    35   20   33 1   
@<TRIPOS>SUBSTRUCTURE
     1 8XC         1 TEMP              0 ****  ****    0 ROOT
