@<TRIPOS>MOLECULE
8XG
   37    39     1     0     0
SMALL
bcc


@<TRIPOS>ATOM
      1 P           0.0000    0.0000    0.0000 p5        1 8XG      0.804900
      2 OP1         1.6090    0.0000    0.0000 o         1 8XG     -0.516167
      3 OP2        -0.5370    0.0000    1.5180 o         1 8XG     -0.516167
      4 O5'        -0.5370    1.3140   -0.7590 os        1 8XG     -0.485200
      5 C5'        -1.9230    1.5530   -1.0170 c3        1 8XG      0.296400
      6 C4'        -2.0830    2.8860   -1.7500 c3        1 8XG      0.164100
      7 O4'        -1.5440    2.7990   -3.0870 os        1 8XG     -0.360600
      8 C1'        -2.1580    3.8460   -3.8570 c3        1 8XG      0.148800
      9 N9         -2.3460    3.4030   -5.2390 na        1 8XG      0.255100
     10 C4         -2.4600    4.2090   -6.3400 cc        1 8XG     -0.124200
     11 N3         -2.4420    5.5330   -6.5310 nc        1 8XG     -0.508100
     12 C2         -2.5770    6.0470   -7.7340 cd        1 8XG     -0.254200
     13 N2         -2.5530    7.4110   -7.8810 nz        1 8XG      0.311400
     14 N1         -2.7400    5.2650   -8.8370 ns        1 8XG     -0.013400
     15 C6         -2.7680    3.9180   -8.7220 c         1 8XG      0.567000
     16 O6         -2.9130    3.2110   -9.7040 o         1 8XG     -0.697500
     17 C5         -2.6240    3.3520   -7.4340 cd        1 8XG      0.127800
     18 N7         -2.6030    2.0830   -6.9580 nd        1 8XG     -0.530000
     19 C8         -2.4350    2.1100   -5.6680 cc        1 8XG      0.253400
     20 C2'        -3.5250    4.1460   -3.2110 c3        1 8XG      0.105100
     21 O2'        -3.5940    5.5120   -2.7950 oh        1 8XG     -0.575800
     22 C3'        -3.5820    3.2050   -1.9810 c3        1 8XG      0.125100
     23 O3'        -4.3130    2.0140   -2.2830 oh        1 8XG     -0.554800
     24 O1         -0.4930   -1.2090   -0.6980 o         1 8XG     -0.516167
     25 H5'        -2.3180    0.7530   -1.6320 h1        1 8XG     -0.004300
     26 H5''       -2.4640    1.5890   -0.0790 h1        1 8XG     -0.004300
     27 H4'        -1.6060    3.6890   -1.2010 h1        1 8XG      0.029700
     28 H1'        -1.5370    4.7340   -3.8300 h2        1 8XG      0.047700
     29 H21        -3.4460    7.7280   -8.2040 hn        1 8XG      0.142133
     30 H22        -2.3480    7.8380   -6.9990 hn        1 8XG      0.142133
     31 H1         -2.8400    5.6900   -9.7380 hn        1 8XG      0.142500
     32 H8         -2.3760    1.2370   -5.0290 h5        1 8XG      0.050100
     33 H2'        -4.3270    3.9130   -3.9010 h1        1 8XG      0.026700
     34 HO2'       -4.4680    5.8380   -2.9330 ho        1 8XG      0.383000
     35 H3'        -4.0020    3.7180   -1.1240 h1        1 8XG      0.016700
     36 H3         -5.1610    2.0540   -1.8740 ho        1 8XG      0.380000
     37 H23        -1.8490    7.6630   -8.5460 hn        1 8XG      0.142133
@<TRIPOS>BOND
     1    1    2 1   
     2    1    3 1   
     3    1    4 1   
     4    1   24 1   
     5    4    5 1   
     6    5    6 1   
     7    5   25 1   
     8    5   26 1   
     9    6    7 1   
    10    6   22 1   
    11    6   27 1   
    12    7    8 1   
    13    8    9 1   
    14    8   20 1   
    15    8   28 1   
    16    9   10 1   
    17    9   19 1   
    18   10   11 1   
    19   10   17 2   
    20   11   12 2   
    21   12   13 1   
    22   12   14 1   
    23   13   29 1   
    24   13   30 1   
    25   13   37 1   
    26   14   15 1   
    27   14   31 1   
    28   15   16 2   
    29   15   17 1   
    30   17   18 1   
    31   18   19 2   
    32   19   32 1   
    33   20   21 1   
    34   20   22 1   
    35   20   33 1   
    36   21   34 1   
    37   22   23 1   
    38   22   35 1   
    39   23   36 1   
@<TRIPOS>SUBSTRUCTURE
     1 8XG         1 TEMP              0 ****  ****    0 ROOT
