@<TRIPOS>MOLECULE
8XQ
   20    20     1     0     0
SMALL
bcc


@<TRIPOS>ATOM
      1 OAA         1.0020    0.7350   -0.8100 o         1 8XQ     -0.555500
      2 OAB         1.4920   -1.4150   -0.4180 o         1 8XQ     -0.555500
      3 CAD         5.3740    0.2630   -0.2540 c2        1 8XQ     -0.225000
      4 CAE         6.6740    0.2100    2.8750 c1        1 8XQ      0.066000
      5 CAF         1.8710    1.0160    3.5590 c3        1 8XQ     -0.180000
      6 CAG         1.2740    0.5690    2.3060 c1        1 8XQ     -0.053000
      7 CAH         4.2900   -0.3370    0.2360 c2        1 8XQ     -0.119000
      8 NAI         5.5050    0.3430    2.7720 n2        1 8XQ     -0.264000
      9 CAJ         1.4720   -0.1920   -0.1020 c2        1 8XQ      0.387000
     10 CAK         3.3550    0.9330    3.6740 c2        1 8XQ      0.046000
     11 CAL         2.1210    0.1880    1.2370 c2        1 8XQ     -0.188000
     12 CAM         3.4880    0.1240    1.3650 c2        1 8XQ      0.062000
     13 CAN         4.1360    0.4790    2.6330 c2        1 8XQ     -0.066000
     14 HOAC        4.7730    1.2880    4.9340 ho        1 8XQ      0.215000
     15 HAD         5.8060    1.1810    0.1640 ha        1 8XQ      0.101500
     16 HAE         5.8910   -0.1270   -1.1400 ha        1 8XQ      0.101500
     17 HAF         1.5450    2.0840    3.7260 hc        1 8XQ      0.151500
     18 HAG         1.4140    0.4060    4.3920 hc        1 8XQ      0.151500
     19 HAH         3.8470   -1.2280   -0.2620 ha        1 8XQ      0.184000
     20 OAC         3.8080    1.3410    4.9010 oh        1 8XQ     -0.260000
@<TRIPOS>BOND
     1    1    9 1   
     2    2    9 1   
     3    3    7 1   
     4    3   15 1   
     5    3   16 1   
     6    4    8 1   
     7    5    6 1   
     8    5   10 1   
     9    5   17 1   
    10    5   18 1   
    11    6   11 1   
    12    7   12 1   
    13    7   19 1   
    14    8   13 1   
    15    9   11 1   
    16   10   13 1   
    17   10   20 1   
    18   11   12 1   
    19   12   13 1   
    20   14   20 1   
@<TRIPOS>SUBSTRUCTURE
     1 8XQ         1 TEMP              0 ****  ****    0 ROOT
