@<TRIPOS>MOLECULE
8XQ
   20    21     1     0     0
SMALL
bcc


@<TRIPOS>ATOM
      1 OAA         3.4520   -0.6840    0.4200 o         1 8XQ     -0.826300
      2 OAB         2.8220    1.1780   -0.6260 o         1 8XQ     -0.826300
      3 CAD        -0.9800    2.6430    0.1110 ca        1 8XQ     -0.297300
      4 CAE        -2.2610    2.0130    0.1670 ca        1 8XQ      0.399200
      5 CAF        -0.3640   -2.3600    0.0020 ca        1 8XQ     -0.164000
      6 CAG         0.9250   -1.8040   -0.0390 ca        1 8XQ     -0.099000
      7 CAH         0.1380    1.8530    0.0400 ca        1 8XQ     -0.044000
      8 NAI        -2.4440    0.7060    0.1530 nb        1 8XQ     -0.709000
      9 CAJ         2.5690    0.0660   -0.0810 c         1 8XQ      0.911200
     10 CAK        -1.4740   -1.5330    0.0620 ca        1 8XQ      0.043800
     11 CAL         1.1280   -0.4350   -0.0330 ca        1 8XQ     -0.121600
     12 CAM         0.0050    0.4300    0.0260 ca        1 8XQ     -0.097300
     13 CAN        -1.3240   -0.1050    0.0820 ca        1 8XQ      0.319600
     14 HOAC       -3.3920   -1.4840    0.1440 ho        1 8XQ      0.428000
     15 HAD        -0.9160    3.7370    0.1210 ha        1 8XQ      0.126000
     16 HAE        -3.1740    2.6320    0.2250 h4        1 8XQ     -0.005900
     17 HAF        -0.5010   -3.4500   -0.0090 ha        1 8XQ      0.129000
     18 HAG         1.8060   -2.4670   -0.0610 ha        1 8XQ      0.156000
     19 HAH         1.1610    2.2770   -0.0260 ha        1 8XQ      0.203000
     20 OAC        -2.7030   -2.1600    0.1010 oh        1 8XQ     -0.523100
@<TRIPOS>BOND
     1    1    9 1   
     2    2    9 1   
     3    3    4 ar  
     4    3    7 ar  
     5    3   15 1   
     6    4    8 ar  
     7    4   16 1   
     8    5    6 ar  
     9    5   10 ar  
    10    5   17 1   
    11    6   11 ar  
    12    6   18 1   
    13    7   12 ar  
    14    7   19 1   
    15    8   13 ar  
    16    9   11 1   
    17   10   13 ar  
    18   10   20 1   
    19   11   12 ar  
    20   12   13 ar  
    21   14   20 1   
@<TRIPOS>SUBSTRUCTURE
     1 8XQ         1 TEMP              0 ****  ****    0 ROOT
