@<TRIPOS>MOLECULE
8XQ
   20    27     1     0     0
SMALL
bcc


@<TRIPOS>ATOM
      1 OAA         0.0000    0.0000    0.0000 o         1 8XQ     -0.552500
      2 OAB         1.9550   -0.2500   -1.0230 o         1 8XQ     -0.552500
      3 CAD         5.6390   -0.3050    0.2850 c3        1 8XQ     -0.078000
      4 CAE         6.2460    0.0000    1.4990 c3        1 8XQ     -0.311000
      5 CAF         2.0980    0.9860    3.5490 c3        1 8XQ     -0.367000
      6 CAG         1.4050    0.7030    2.3840 c2        1 8XQ     -0.220000
      7 CAH         4.2790   -0.2180    0.1620 c2        1 8XQ     -0.144000
      8 NAI         5.5480    0.3740    2.5450 n2        1 8XQ     -0.089000
      9 CAJ         1.3470    0.0000    0.0000 c2        1 8XQ      0.395000
     10 CAK         3.4700    0.8820    3.6190 DU        1 8XQ      0.134000
     11 CAL         2.0830    0.3000    1.2380 c2        1 8XQ      0.003000
     12 CAM         3.5390    0.1830    1.2850 c3        1 8XQ     -0.372000
     13 CAN         4.2180    0.4780    2.4890 c2        1 8XQ     -0.213000
     14 HOAC        3.8330    1.8030    4.1400 DU        1 8XQ      0.268000
     15 HAD         5.1990    0.2570    1.1000 DU        1 8XQ      0.231500
     16 HAE         6.2450   -0.3080    0.4610 DU        1 8XQ      0.231500
     17 HAF         3.0940    0.7840    3.1750 DU        1 8XQ      0.219000
     18 HAG         1.4760    1.0050    3.4220 DU        1 8XQ      0.268000
     19 HAH         3.3550    0.0190    0.6760 DU        1 8XQ      0.383000
     20 OAC         4.1080    1.1680    4.7810 oh        1 8XQ     -0.235000
@<TRIPOS>BOND
     1    1    9 1   
     2    2    9 1   
     3    3    4 1   
     4    3    7 1   
     5    3   15 1   
     6    3   16 1   
     7    4    8 1   
     8    4   15 1   
     9    4   16 1   
    10    5    6 1   
    11    5   10 1   
    12    5   17 1   
    13    5   18 1   
    14    6   11 1   
    15    6   18 1   
    16    7   12 1   
    17    7   19 1   
    18    8   13 1   
    19    9   11 1   
    20   10   13 1   
    21   10   14 1   
    22   10   17 1   
    23   10   20 1   
    24   11   12 1   
    25   12   13 1   
    26   12   19 1   
    27   14   20 1   
@<TRIPOS>SUBSTRUCTURE
     1 8XQ         1 TEMP              0 ****  ****    0 ROOT
