@<TRIPOS>MOLECULE
8XQ
   20    18     1     0     0
SMALL
bcc


@<TRIPOS>ATOM
      1 OAA        -0.7680    1.6230   -3.1280 o         1 8XQ     -0.561000
      2 OAB        -2.6360    1.3290   -2.0420 o         1 8XQ     -0.561000
      3 OAC         1.1250   -2.7970    1.1040 oh        1 8XQ     -0.277000
      4 CAD         0.3590    2.0380    1.7670 c1        1 8XQ     -0.149000
      5 CAE         0.9850    1.0320    2.4980 c1        1 8XQ     -0.149000
      6 CAF        -0.0080   -2.1240   -0.9870 c1        1 8XQ     -0.164000
      7 CAG        -0.6340   -1.1200   -1.7190 c1        1 8XQ     -0.099000
      8 CAH        -0.1930    1.7560    0.5490 c1        1 8XQ     -0.044000
      9 NAI         1.0470   -0.2380    1.9980 n1        1 8XQ     -0.183000
     10 CAJ        -1.4080    1.0900   -2.1850 c2        1 8XQ      0.360000
     11 CAK         0.5520   -1.8360    0.2500 c2        1 8XQ      0.064000
     12 CAL        -0.6980    0.1720   -1.2130 c2        1 8XQ     -0.101000
     13 CAM        -0.1300    0.4660    0.0410 c2        1 8XQ     -0.032000
     14 CAN         0.4880   -0.5260    0.7650 c2        1 8XQ     -0.074000
     15 HOAC        1.8390   -3.1530    0.7120 ho        1 8XQ      0.227000
     16 HAD         0.3150    2.9450    2.1250 ha        1 8XQ      0.128500
     17 HAE         1.3790    1.2340    3.3670 ha        1 8XQ      0.128500
     18 HAF         0.0370   -3.0320   -1.3430 ha        1 8XQ      0.129000
     19 HAG        -1.0190   -1.3210   -2.5940 ha        1 8XQ      0.156000
     20 HAH        -0.6320    2.4610    0.0360 ha        1 8XQ      0.203000
@<TRIPOS>BOND
     1    1   10 1   
     2    2   10 1   
     3    3   11 1   
     4    3   15 1   
     5    4    5 1   
     6    4   16 1   
     7    5   17 1   
     8    6   11 1   
     9    6   18 1   
    10    7   12 1   
    11    7   19 1   
    12    8   13 1   
    13    8   20 1   
    14    9   14 1   
    15   10   12 1   
    16   11   14 1   
    17   12   13 1   
    18   13   14 1   
@<TRIPOS>SUBSTRUCTURE
     1 8XQ         1 TEMP              0 ****  ****    0 ROOT
