@<TRIPOS>MOLECULE
8XU
   32    33     1     0     0
SMALL
bcc


@<TRIPOS>ATOM
      1 P          -0.9790    0.6420   -0.1870 p5        1 8XU      1.437800
      2 OP1         0.0420    1.0970    0.7840 o         1 8XU     -0.853000
      3 OP2        -2.0400   -0.3370    0.1320 o         1 8XU     -0.853000
      4 O5'        -1.7230    2.0010   -0.7760 os        1 8XU     -0.589200
      5 C5'        -0.8990    3.0720   -1.1200 c3        1 8XU      0.187400
      6 C4'        -1.1150    3.4310   -2.5930 c3        1 8XU      0.022100
      7 O4'        -1.2350    4.8700   -2.7050 os        1 8XU     -0.437600
      8 C1'        -0.3360    5.3900   -3.6760 c3        1 8XU      0.269500
      9 N1          0.7640    6.1280   -3.0250 n         1 8XU     -0.353000
     10 C6          1.7060    5.4680   -2.2600 cc        1 8XU      0.081600
     11 C2          0.7640    7.5390   -3.0740 c         1 8XU      0.797500
     12 O2         -0.0730    8.2070   -3.7310 o         1 8XU     -0.694500
     13 N3          1.7780    8.2360   -2.3870 ns        1 8XU     -0.598500
     14 C4          2.7670    7.5870   -1.6230 c         1 8XU      0.720700
     15 O4          3.6220    8.3020   -1.0530 o         1 8XU     -0.697500
     16 C5          2.6920    6.1370   -1.5880 cd        1 8XU     -0.396200
     17 C2'         0.1610    4.1890   -4.5290 c3        1 8XU      0.013100
     18 O2'        -0.6450    4.1100   -5.6890 oh        1 8XU     -0.620800
     19 C3'         0.0190    2.9400   -3.5620 c3        1 8XU      0.360800
     20 O3'         1.1610    2.6310   -2.9880 o         1 8XU     -0.855500
     21 O1         -0.2150    0.1790   -1.5420 oh        1 8XU     -0.807400
     22 H5''        0.1830    2.8190   -0.9340 h1        1 8XU      0.036700
     23 H5'        -1.1850    3.9620   -0.4900 h1        1 8XU      0.036700
     24 H4'        -2.1110    3.0360   -2.9320 h1        1 8XU      0.039700
     25 H1'        -0.9280    6.1360   -4.2820 h2        1 8XU      0.088700
     26 H6          1.6110    4.3330   -2.2530 h4        1 8XU      0.280000
     27 H3          1.7540    9.2280   -2.4330 hn        1 8XU      0.321500
     28 H5          3.4430    5.6060   -0.9940 ha        1 8XU      0.168000
     29 H2'         1.2100    4.3010   -4.8930 h1        1 8XU      0.076700
     30 HO2'       -1.4520    3.6490   -5.4270 ho        1 8XU      0.395000
     31 H3'        -0.4240    2.1010   -4.1860 h1        1 8XU     -0.040300
     32 H2          0.3500    0.8440   -1.9370 ho        1 8XU      0.465000
@<TRIPOS>BOND
     1    1    2 1   
     2    1    3 1   
     3    1    4 1   
     4    1   21 1   
     5    4    5 1   
     6    5    6 1   
     7    5   22 1   
     8    5   23 1   
     9    6    7 1   
    10    6   19 1   
    11    6   24 1   
    12    7    8 1   
    13    8    9 1   
    14    8   17 1   
    15    8   25 1   
    16    9   10 1   
    17    9   11 1   
    18   10   16 2   
    19   10   26 1   
    20   11   12 2   
    21   11   13 1   
    22   13   14 1   
    23   13   27 1   
    24   14   15 2   
    25   14   16 1   
    26   16   28 1   
    27   17   18 1   
    28   17   19 1   
    29   17   29 1   
    30   18   30 1   
    31   19   20 1   
    32   19   31 1   
    33   21   32 1   
@<TRIPOS>SUBSTRUCTURE
     1 8XU         1 TEMP              0 ****  ****    0 ROOT
