@<TRIPOS>MOLECULE
8XU
   32    33     1     0     0
SMALL
bcc


@<TRIPOS>ATOM
      1 P          -1.3120    0.1210   -0.6880 p5        1 8XU      1.317900
      2 OP1        -0.5760   -0.8950   -1.5130 o         1 8XU     -0.924833
      3 OP2        -1.6990   -0.2570    0.7090 o         1 8XU     -0.924833
      4 O5'        -0.0590    1.3260   -0.4460 os        1 8XU     -0.552200
      5 C5'         0.5450    1.7480   -1.5940 c3        1 8XU      0.247400
      6 C4'        -0.2800    2.8540   -2.2910 c3        1 8XU     -0.015900
      7 O4'         0.0510    4.1580   -1.7450 os        1 8XU     -0.416600
      8 C1'        -0.3740    5.1470   -2.6750 c3        1 8XU      0.258500
      9 N1          0.5210    6.3130   -2.5950 n         1 8XU     -0.343000
     10 C6          0.2170    7.2950   -1.6690 cc        1 8XU      0.086600
     11 C2          1.8270    6.2920   -3.1550 c         1 8XU      0.806500
     12 O2          2.2390    5.3890   -3.9110 o         1 8XU     -0.627500
     13 N3          2.6870    7.3840   -2.8960 n         1 8XU     -0.595500
     14 C4          2.3550    8.4330   -2.0280 c         1 8XU      0.722700
     15 O4          3.1770    9.3560   -1.8520 o         1 8XU     -0.670500
     16 C5          1.0400    8.3470   -1.3980 cd        1 8XU     -0.371200
     17 C2'        -0.4990    4.4640   -4.0800 c3        1 8XU      0.075100
     18 O2'        -1.8260    4.6080   -4.5380 oh        1 8XU     -0.616800
     19 C3'        -0.1120    2.9840   -3.8080 c3        1 8XU      0.104100
     20 O3'         1.1840    2.7340   -4.3010 oh        1 8XU     -0.595800
     21 O1         -2.2970    0.9690   -1.4660 o         1 8XU     -0.924833
     22 H5''        1.5680    2.1610   -1.3620 h1        1 8XU      0.006700
     23 H5'         0.6280    0.9010   -2.3370 h1        1 8XU      0.006700
     24 H4'        -1.3670    2.6040   -2.0250 h1        1 8XU      0.181700
     25 H1'        -1.3960    5.5240   -2.3590 h2        1 8XU      0.059700
     26 H6         -0.7660    7.1880   -1.1670 h4        1 8XU      0.170000
     27 H3          3.5950    7.3440   -3.3030 hn        1 8XU      0.336500
     28 H5          0.7690    9.1400   -0.6960 ha        1 8XU      0.161000
     29 H2'         0.1500    4.9320   -4.8620 h1        1 8XU      0.094700
     30 HO2'       -2.3660    3.9650   -4.0530 ho        1 8XU      0.425000
     31 H3'        -0.7830    2.2680   -4.3530 h1        1 8XU      0.105700
     32 H2          1.8060    3.1030   -3.6600 ho        1 8XU      0.413000
@<TRIPOS>BOND
     1    1    2 1   
     2    1    3 1   
     3    1    4 1   
     4    1   21 1   
     5    4    5 1   
     6    5    6 1   
     7    5   22 1   
     8    5   23 1   
     9    6    7 1   
    10    6   19 1   
    11    6   24 1   
    12    7    8 1   
    13    8    9 1   
    14    8   17 1   
    15    8   25 1   
    16    9   10 1   
    17    9   11 1   
    18   10   16 2   
    19   10   26 1   
    20   11   12 2   
    21   11   13 1   
    22   13   14 1   
    23   13   27 1   
    24   14   15 2   
    25   14   16 1   
    26   16   28 1   
    27   17   18 1   
    28   17   19 1   
    29   17   29 1   
    30   18   30 1   
    31   19   20 1   
    32   19   31 1   
    33   20   32 1   
@<TRIPOS>SUBSTRUCTURE
     1 8XU         1 TEMP              0 ****  ****    0 ROOT
