@<TRIPOS>MOLECULE
8Y6
   49    54     1     0     0
SMALL
bcc


@<TRIPOS>ATOM
      1 C1         -0.1270    0.1690   -0.1160 ca        1 8Y6     -0.153300
      2 C2          1.1310   -0.3970    0.0890 ca        1 8Y6      0.000000
      3 C3          1.7870   -0.2350    1.3130 ca        1 8Y6     -0.202600
      4 C4          1.1910    0.5170    2.3660 ca        1 8Y6      0.188400
      5 C5         -0.0730    1.0990    2.1540 ca        1 8Y6     -0.179000
      6 C6         -0.7210    0.9200    0.9230 ca        1 8Y6      0.161900
      7 C7         -0.8080   -4.6520   -3.3080 cc        1 8Y6     -0.091200
      8 C8         -2.3160   -3.3580   -1.6660 ca        1 8Y6     -0.056800
      9 C9         -2.3040   -2.0020   -1.1510 ca        1 8Y6     -0.036200
     10 N1         -1.2340   -1.3320   -1.7530 na        1 8Y6     -0.049400
     11 C10        -0.5660   -2.2170   -2.6180 cd        1 8Y6     -0.050300
     12 C11        -1.1980   -3.4740   -2.5740 cc        1 8Y6     -0.095200
     13 C12        -4.2870   -2.3650    0.1830 ca        1 8Y6      0.147900
     14 C13        -3.2630   -1.5150   -0.2410 ca        1 8Y6     -0.189000
     15 C14         0.6100   -1.7400   -3.4720 c         1 8Y6      0.930800
     16 C15        -0.8130    0.0050   -1.4460 c3        1 8Y6      0.085600
     17 O1          0.5500   -1.9500   -4.7100 o         1 8Y6     -0.806300
     18 C16        -0.5980   -5.9090   -2.5670 c         1 8Y6      0.693700
     19 N2         -0.2480   -7.0430   -3.3330 ns        1 8Y6     -0.453100
     20 C17        -0.0560   -6.9710   -4.6930 cc        1 8Y6     -0.028400
     21 C18        -0.2240   -5.7960   -5.3750 cd        1 8Y6     -0.227000
     22 C19        -0.6020   -4.6180   -4.6610 cd        1 8Y6     -0.039000
     23 O2         -0.6810   -6.0860   -1.3350 o         1 8Y6     -0.650500
     24 O3          1.5420   -1.1260   -2.8830 o         1 8Y6     -0.806300
     25 F1         -1.9370    1.4950    0.7470 f         1 8Y6     -0.144900
     26 C20         3.1110   -0.8480    1.5330 c         1 8Y6      0.708100
     27 O4          3.7550   -1.5240    0.7170 o         1 8Y6     -0.591500
     28 N3          3.6860   -0.6280    2.8070 ns        1 8Y6     -0.512400
     29 N4          1.8360    0.6890    3.6050 nc        1 8Y6     -0.628100
     30 C21         3.0090    0.1230    3.7560 cd        1 8Y6      0.485800
     31 F2         -5.2200   -1.9150    1.0590 f         1 8Y6     -0.156900
     32 C22        -4.3520   -3.6870   -0.3060 ca        1 8Y6     -0.181800
     33 C23        -3.3640   -4.1550   -1.2220 ca        1 8Y6      0.138100
     34 O5         -3.6420   -5.4740   -1.5830 os        1 8Y6     -0.180200
     35 C25        -5.2630   -4.7960   -0.1010 cc        1 8Y6     -0.162200
     36 C24        -4.8020   -5.8310   -0.8770 cd        1 8Y6     -0.052900
     37 H2          1.6120   -0.9680   -0.7420 ha        1 8Y6      0.237000
     38 H151       -1.7210    0.6750   -1.4790 h1        1 8Y6      0.089200
     39 H152       -0.0800    0.3250   -2.2520 h1        1 8Y6      0.089200
     40 H5         -0.5600    1.6870    2.9460 ha        1 8Y6      0.156000
     41 H19        -0.6850   -3.6590   -5.2090 ha        1 8Y6      0.194000
     42 H13        -3.2070   -0.4830    0.1330 ha        1 8Y6      0.146000
     43 HA         -0.0790   -7.8970   -2.8540 hn        1 8Y6      0.313500
     44 H17         0.2390   -7.9100   -5.1930 h4        1 8Y6      0.127000
     45 H18        -0.0600   -5.7430   -6.4570 ha        1 8Y6      0.138000
     46 HB          4.5700   -1.0300    3.0130 hn        1 8Y6      0.329500
     47 H21         3.5200    0.2510    4.7340 h5        1 8Y6      0.037800
     48 H25        -6.1320   -4.7790    0.5490 ha        1 8Y6      0.152000
     49 H24        -5.1220   -6.8500   -1.0620 h4        1 8Y6      0.175000
@<TRIPOS>BOND
     1    1    2 ar  
     2    1    6 ar  
     3    1   16 1   
     4    2    3 ar  
     5    2   37 1   
     6    3    4 ar  
     7    3   26 1   
     8    4    5 ar  
     9    4   29 1   
    10    5    6 ar  
    11    5   40 1   
    12    6   25 1   
    13    7   12 1   
    14    7   18 1   
    15    7   22 2   
    16    8    9 ar  
    17    8   12 1   
    18    8   33 ar  
    19    9   10 1   
    20    9   14 ar  
    21   10   11 1   
    22   10   16 1   
    23   11   12 2   
    24   11   15 1   
    25   13   14 ar  
    26   13   31 1   
    27   13   32 ar  
    28   14   42 1   
    29   15   17 1   
    30   15   24 1   
    31   16   38 1   
    32   16   39 1   
    33   18   19 1   
    34   18   23 2   
    35   19   20 1   
    36   19   43 1   
    37   20   21 2   
    38   20   44 1   
    39   21   22 1   
    40   21   45 1   
    41   22   41 1   
    42   26   27 2   
    43   26   28 1   
    44   28   30 1   
    45   28   46 1   
    46   29   30 2   
    47   30   47 1   
    48   32   33 ar  
    49   32   35 1   
    50   33   34 1   
    51   34   36 1   
    52   35   36 2   
    53   35   48 1   
    54   36   49 1   
@<TRIPOS>SUBSTRUCTURE
     1 8Y6         1 TEMP              0 ****  ****    0 ROOT
