@<TRIPOS>MOLECULE
8Y6
   49    38     1     0     0
SMALL
bcc


@<TRIPOS>ATOM
      1 C1          0.4050   -0.0020    2.5370 c1        1 8Y6     -0.144000
      2 C2          1.6980    0.4890    2.6520 c1        1 8Y6     -0.008000
      3 C3          2.3570    0.4460    3.8920 c1        1 8Y6     -0.179000
      4 C4          1.7220   -0.0820    4.9890 c1        1 8Y6      0.049000
      5 C5          0.4120   -0.5790    4.8700 c1        1 8Y6     -0.177000
      6 C6         -0.2380   -0.5360    3.6460 c1        1 8Y6      0.128000
      7 C7         -1.4890    1.1810   -2.9310 c1        1 8Y6     -0.069000
      8 C8         -0.6970   -0.9520   -1.6490 c1        1 8Y6      0.025500
      9 C9         -0.4190   -1.2400   -0.3350 c1        1 8Y6      0.008000
     10 N1         -0.7030   -0.1150    0.4180 n1        1 8Y6     -0.140000
     11 C10        -1.1530    0.8600   -0.4290 c1        1 8Y6     -0.001000
     12 C11        -1.1510    0.3470   -1.7110 c1        1 8Y6     -0.113000
     13 C12         0.2410   -3.4860   -0.9570 c1        1 8Y6      0.112000
     14 C13         0.0550   -2.5180    0.0200 c1        1 8Y6     -0.189000
     15 C14        -2.0740    2.0310   -0.1600 c1        1 8Y6      0.372000
     16 C15        -0.7290    0.5210    1.6870 c2        1 8Y6      0.005000
     17 O1         -3.2860    1.8280    0.1150 o         1 8Y6     -0.534500
     18 C16        -2.8670    1.0940   -3.5500 c2        1 8Y6      0.332000
     19 N2         -3.2490    2.0190   -4.6150 n         1 8Y6     -0.297000
     20 C17        -2.2530    2.9120   -5.2010 c2        1 8Y6     -0.033000
     21 C18        -0.8750    3.0180   -4.5830 c1        1 8Y6     -0.225000
     22 C19        -0.5090    2.1450   -3.4570 c1        1 8Y6     -0.048000
     23 O2         -3.6740    0.2910   -3.1250 o         1 8Y6     -0.376000
     24 O3         -1.6260    3.2070   -0.2030 o         1 8Y6     -0.534500
     25 F1         -1.4240   -1.0930    3.9210 f         1 8Y6     -0.107000
     26 C20         3.7640    0.9710    4.0180 c2        1 8Y6      0.341000
     27 O4          4.3380    1.4100    3.0420 o         1 8Y6     -0.308000
     28 N3          4.4290    0.9020    5.2500 n         1 8Y6     -0.352000
     29 N4          2.4170   -0.1520    6.2690 n2        1 8Y6     -0.201000
     30 C21         3.7730    0.3330    6.3850 c2        1 8Y6      0.062000
     31 F2          0.6960   -4.7060   -0.6400 f         1 8Y6     -0.123000
     32 C22        -0.0440   -3.1920   -2.3030 c1        1 8Y6     -0.169000
     33 C23        -0.5060   -1.9450   -2.6510 c1        1 8Y6      0.025500
     34 O5         -0.6430   -1.9080   -4.0330 o         1 8Y6     -0.089000
     35 C25         0.1070   -3.9310   -3.4650 c1        1 8Y6     -0.175000
     36 C24        -0.2660   -3.1310   -4.5310 c1        1 8Y6     -0.096000
     37 H2          2.1400    0.8860    1.8780 ha        1 8Y6      0.219000
     38 H151       -1.5820    0.3330    2.1290 ha        1 8Y6      0.138000
     39 H152       -0.6290    1.4890    1.5690 ha        1 8Y6      0.138000
     40 H5         -0.0390   -0.9550    5.6500 ha        1 8Y6      0.158000
     41 H19         0.3510    2.2600   -3.0100 ha        1 8Y6      0.198000
     42 H13         0.3360   -2.7900    0.9150 ha        1 8Y6      0.145000
     43 HA         -4.1070    2.0280   -4.9250 hn        1 8Y6      0.227000
     44 H17        -2.4770    3.4460   -5.9870 h4        1 8Y6      0.127000
     45 H18        -0.2100    3.6160   -4.9740 ha        1 8Y6      0.139000
     46 HB          5.2850    1.2080    5.3240 hn        1 8Y6      0.244000
     47 H21         4.2360    0.2850    7.2420 h5        1 8Y6      0.169000
     48 H25         0.3890   -4.8630   -3.5200 DU        1 8Y6      0.163500
     49 H24        -0.2330   -3.3800   -5.4740 DU        1 8Y6      0.163500
@<TRIPOS>BOND
     1    1    6 1   
     2    1   16 1   
     3    2    3 1   
     4    2   37 1   
     5    3   26 1   
     6    4    5 1   
     7    4   29 1   
     8    5   40 1   
     9    6   25 1   
    10    7   18 1   
    11    7   22 1   
    12    8   33 1   
    13    9   14 1   
    14   10   11 1   
    15   11   12 1   
    16   13   31 1   
    17   13   32 1   
    18   14   42 1   
    19   15   17 1   
    20   15   24 1   
    21   16   38 1   
    22   16   39 1   
    23   18   19 1   
    24   18   23 1   
    25   19   20 1   
    26   19   43 1   
    27   20   21 1   
    28   20   44 1   
    29   21   45 1   
    30   22   41 1   
    31   26   27 1   
    32   26   28 1   
    33   28   30 1   
    34   28   46 1   
    35   29   30 1   
    36   30   47 1   
    37   34   36 1   
    38   35   36 1   
@<TRIPOS>SUBSTRUCTURE
     1 8Y6         1 TEMP              0 ****  ****    0 ROOT
