@<TRIPOS>MOLECULE
8Y6
   49    54     1     0     0
SMALL
bcc


@<TRIPOS>ATOM
      1 C1         -0.1450    0.1720   -0.1120 ca        1 8Y6     -0.153300
      2 C2          1.1200   -0.3840    0.0810 ca        1 8Y6      0.000000
      3 C3          1.7840   -0.2190    1.3010 ca        1 8Y6     -0.202600
      4 C4          1.1900    0.5240    2.3610 ca        1 8Y6      0.188400
      5 C5         -0.0810    1.0950    2.1610 ca        1 8Y6     -0.179000
      6 C6         -0.7370    0.9140    0.9340 ca        1 8Y6      0.161900
      7 C7         -0.8080   -4.6460   -3.3140 cc        1 8Y6     -0.091200
      8 C8         -2.3140   -3.3710   -1.6560 ca        1 8Y6     -0.056800
      9 C9         -2.3110   -2.0160   -1.1360 ca        1 8Y6     -0.036200
     10 N1         -1.2510   -1.3340   -1.7440 na        1 8Y6     -0.049400
     11 C10        -0.5830   -2.2110   -2.6180 cd        1 8Y6     -0.050300
     12 C11        -1.2020   -3.4740   -2.5730 cc        1 8Y6     -0.095200
     13 C12        -4.2790   -2.4010    0.2120 ca        1 8Y6      0.147900
     14 C13        -3.2670   -1.5410   -0.2170 ca        1 8Y6     -0.189000
     15 C14         0.5830   -1.7200   -3.4800 c         1 8Y6      0.930800
     16 C15        -0.8400    0.0060   -1.4380 c3        1 8Y6      0.085600
     17 O1          0.5140   -1.9270   -4.7180 o         1 8Y6     -0.806300
     18 C16        -0.5800   -5.9030   -2.5780 c         1 8Y6      0.693700
     19 N2         -0.2260   -7.0320   -3.3510 n         1 8Y6     -0.453100
     20 C17        -0.0460   -6.9540   -4.7120 cc        1 8Y6     -0.028400
     21 C18        -0.2300   -5.7780   -5.3890 cd        1 8Y6     -0.227000
     22 C19        -0.6130   -4.6050   -4.6680 cd        1 8Y6     -0.039000
     23 O2         -0.6520   -6.0850   -1.3470 o         1 8Y6     -0.650500
     24 O3          1.5130   -1.1000   -2.8960 o         1 8Y6     -0.806300
     25 F1         -1.9600    1.4780    0.7700 f         1 8Y6     -0.144900
     26 C20         3.1160   -0.8210    1.5070 c         1 8Y6      0.708100
     27 O4          3.7590   -1.4890    0.6840 o         1 8Y6     -0.591500
     28 N3          3.6980   -0.5990    2.7770 n         1 8Y6     -0.512400
     29 N4          1.8430    0.6980    3.5940 nc        1 8Y6     -0.628100
     30 C21         3.0220    0.1420    3.7350 cd        1 8Y6      0.485800
     31 F2         -5.2090   -1.9620    1.0980 f         1 8Y6     -0.156900
     32 C22        -4.3360   -3.7220   -0.2800 ca        1 8Y6     -0.181800
     33 C23        -3.3520   -4.1780   -1.2060 ca        1 8Y6      0.138100
     34 O5         -3.6200   -5.4980   -1.5690 os        1 8Y6     -0.180200
     35 C25        -5.2350   -4.8400   -0.0710 cc        1 8Y6     -0.162200
     36 C24        -4.7710   -5.8680   -0.8550 cd        1 8Y6     -0.052900
     37 H2          1.5990   -0.9480   -0.7560 ha        1 8Y6      0.237000
     38 H151       -1.7540    0.6670   -1.4610 h1        1 8Y6      0.089200
     39 H152       -0.1160    0.3350   -2.2480 h1        1 8Y6      0.089200
     40 H5         -0.5670    1.6770    2.9570 ha        1 8Y6      0.156000
     41 H19        -0.7090   -3.6460   -5.2120 ha        1 8Y6      0.194000
     42 H13        -3.2170   -0.5100    0.1600 ha        1 8Y6      0.146000
     43 HA         -0.0450   -7.8860   -2.8770 hn        1 8Y6      0.313500
     44 H17         0.2530   -7.8880   -5.2170 h4        1 8Y6      0.127000
     45 H18        -0.0750   -5.7200   -6.4720 ha        1 8Y6      0.138000
     46 HB          4.5880   -0.9940    2.9760 hn        1 8Y6      0.329500
     47 H21         3.5410    0.2720    4.7090 h5        1 8Y6      0.037800
     48 H25        -6.0990   -4.8330    0.5860 ha        1 8Y6      0.152000
     49 H24        -5.0840   -6.8900   -1.0410 h4        1 8Y6      0.175000
@<TRIPOS>BOND
     1    1    2 ar  
     2    1    6 ar  
     3    1   16 1   
     4    2    3 ar  
     5    2   37 1   
     6    3    4 ar  
     7    3   26 1   
     8    4    5 ar  
     9    4   29 1   
    10    5    6 ar  
    11    5   40 1   
    12    6   25 1   
    13    7   12 1   
    14    7   18 1   
    15    7   22 2   
    16    8    9 ar  
    17    8   12 1   
    18    8   33 ar  
    19    9   10 1   
    20    9   14 ar  
    21   10   11 1   
    22   10   16 1   
    23   11   12 2   
    24   11   15 1   
    25   13   14 ar  
    26   13   31 1   
    27   13   32 ar  
    28   14   42 1   
    29   15   17 1   
    30   15   24 1   
    31   16   38 1   
    32   16   39 1   
    33   18   19 1   
    34   18   23 2   
    35   19   20 1   
    36   19   43 1   
    37   20   21 2   
    38   20   44 1   
    39   21   22 1   
    40   21   45 1   
    41   22   41 1   
    42   26   27 2   
    43   26   28 1   
    44   28   30 1   
    45   28   46 1   
    46   29   30 2   
    47   30   47 1   
    48   32   33 ar  
    49   32   35 1   
    50   33   34 1   
    51   34   36 1   
    52   35   36 2   
    53   35   48 1   
    54   36   49 1   
@<TRIPOS>SUBSTRUCTURE
     1 8Y6         1 TEMP              0 ****  ****    0 ROOT
