@<TRIPOS>MOLECULE
8Y6
   49    54     1     0     0
SMALL
bcc


@<TRIPOS>ATOM
      1 C1         -2.2800    0.8290    1.2190 ca        1 8Y6     -0.153300
      2 C2         -2.7930   -0.2660    0.5220 ca        1 8Y6      0.000000
      3 C3         -3.9100   -0.1140   -0.3060 ca        1 8Y6     -0.202600
      4 C4         -4.5490    1.1520   -0.4460 ca        1 8Y6      0.188400
      5 C5         -4.0380    2.2530    0.2680 ca        1 8Y6     -0.179000
      6 C6         -2.9130    2.0850    1.0870 ca        1 8Y6      0.161900
      7 C7          2.7200   -1.9640    0.1710 cc        1 8Y6     -0.091200
      8 C8          1.9980    0.5100    0.1090 ca        1 8Y6     -0.056800
      9 C9          0.8940    1.2470    0.6950 ca        1 8Y6     -0.036200
     10 N1          0.1420    0.3450    1.4550 na        1 8Y6     -0.049400
     11 C10         0.7240   -0.9320    1.3610 cd        1 8Y6     -0.050300
     12 C11         1.8560   -0.8660    0.5280 cc        1 8Y6     -0.095200
     13 C12         1.6350    3.3430   -0.2510 ca        1 8Y6      0.147900
     14 C13         0.7100    2.6320    0.5150 ca        1 8Y6     -0.189000
     15 C14         0.1550   -2.1130    2.1490 c         1 8Y6      0.930800
     16 C15        -1.0910    0.6480    2.1240 c3        1 8Y6      0.085600
     17 O1          0.9490   -2.7580    2.8800 o         1 8Y6     -0.806300
     18 C16         2.9910   -2.2130   -1.2570 c         1 8Y6      0.693700
     19 N2          3.8680   -3.2810   -1.5560 n         1 8Y6     -0.453100
     20 C17         4.3980   -4.0830   -0.5730 cc        1 8Y6     -0.028400
     21 C18         4.1210   -3.8660    0.7500 cd        1 8Y6     -0.227000
     22 C19         3.2610   -2.7880    1.1200 cd        1 8Y6     -0.039000
     23 O2          2.5250   -1.5980   -2.2360 o         1 8Y6     -0.650500
     24 O3         -1.0840   -2.3320    2.0500 o         1 8Y6     -0.806300
     25 F1         -2.4450    3.1640    1.7640 f         1 8Y6     -0.144900
     26 C20        -4.4420   -1.2700   -1.0540 c         1 8Y6      0.708100
     27 O4         -3.9990   -2.4280   -1.0340 o         1 8Y6     -0.591500
     28 N3         -5.5700   -1.0090   -1.8660 n         1 8Y6     -0.512400
     29 N4         -5.6720    1.3220   -1.2760 nc        1 8Y6     -0.628100
     30 C21        -6.1060    0.2690   -1.9240 cd        1 8Y6      0.485800
     31 F2          1.4750    4.6780   -0.4370 f         1 8Y6     -0.156900
     32 C22         2.7370    2.6750   -0.8260 ca        1 8Y6     -0.181800
     33 C23         2.8950    1.2710   -0.6310 ca        1 8Y6      0.138100
     34 O5          4.0570    0.8340   -1.2670 os        1 8Y6     -0.180200
     35 C25         3.8640    3.0950   -1.6330 cc        1 8Y6     -0.162200
     36 C24         4.6180    1.9720   -1.8700 cd        1 8Y6     -0.052900
     37 H2         -2.3090   -1.2640    0.6470 ha        1 8Y6      0.237000
     38 H151       -0.9400    1.5890    2.7290 h1        1 8Y6      0.089200
     39 H152       -1.3210   -0.2160    2.8240 h1        1 8Y6      0.089200
     40 H5         -4.5080    3.2430    0.1840 ha        1 8Y6      0.156000
     41 H19         2.9990   -2.6490    2.1870 ha        1 8Y6      0.194000
     42 H13        -0.1490    3.1460    0.9680 ha        1 8Y6      0.146000
     43 HA          4.0490   -3.4830   -2.5110 hn        1 8Y6      0.313500
     44 H17         5.0520   -4.9030   -0.9160 h4        1 8Y6      0.127000
     45 H18         4.5400   -4.5160    1.5280 ha        1 8Y6      0.138000
     46 HB         -5.9590   -1.7480   -2.4030 hn        1 8Y6      0.329500
     47 H21        -6.9900    0.3990   -2.5850 h5        1 8Y6      0.037800
     48 H25         4.0480    4.1100   -1.9710 ha        1 8Y6      0.152000
     49 H24         5.5330    1.7640   -2.4140 h4        1 8Y6      0.175000
@<TRIPOS>BOND
     1    1    2 ar  
     2    1    6 ar  
     3    1   16 1   
     4    2    3 ar  
     5    2   37 1   
     6    3    4 ar  
     7    3   26 1   
     8    4    5 ar  
     9    4   29 1   
    10    5    6 ar  
    11    5   40 1   
    12    6   25 1   
    13    7   12 1   
    14    7   18 1   
    15    7   22 2   
    16    8    9 ar  
    17    8   12 1   
    18    8   33 ar  
    19    9   10 1   
    20    9   14 ar  
    21   10   11 1   
    22   10   16 1   
    23   11   12 2   
    24   11   15 1   
    25   13   14 ar  
    26   13   31 1   
    27   13   32 ar  
    28   14   42 1   
    29   15   17 1   
    30   15   24 1   
    31   16   38 1   
    32   16   39 1   
    33   18   19 1   
    34   18   23 2   
    35   19   20 1   
    36   19   43 1   
    37   20   21 2   
    38   20   44 1   
    39   21   22 1   
    40   21   45 1   
    41   22   41 1   
    42   26   27 2   
    43   26   28 1   
    44   28   30 1   
    45   28   46 1   
    46   29   30 2   
    47   30   47 1   
    48   32   33 ar  
    49   32   35 1   
    50   33   34 1   
    51   34   36 1   
    52   35   36 2   
    53   35   48 1   
    54   36   49 1   
@<TRIPOS>SUBSTRUCTURE
     1 8Y6         1 TEMP              0 ****  ****    0 ROOT
