@<TRIPOS>MOLECULE
8ZE
   22    23     1     0     0
SMALL
bcc


@<TRIPOS>ATOM
      1 O1          0.8050   -1.1290   -0.3390 oh        1 8ZE     -0.598800
      2 C2          1.2700    0.1530    0.0590 c3        1 8ZE      0.179700
      3 C3          1.7630    0.0910    1.4680 ca        1 8ZE     -0.091300
      4 C4          1.7860   -1.1080    2.1880 ca        1 8ZE     -0.102000
      5 C5          2.2610   -1.1450    3.4960 ca        1 8ZE     -0.124000
      6 C6          2.7150    0.0380    4.0900 ca        1 8ZE      0.057100
      7 O7          3.1530   -0.0300    5.4040 os        1 8ZE     -0.315900
      8 C8          3.9130    1.1150    5.8060 c3        1 8ZE      0.091400
      9 C9          3.2570    2.4040    5.3400 c3        1 8ZE      0.091400
     10 O10         3.1410    2.4400    3.9130 os        1 8ZE     -0.317900
     11 C11         2.6800    1.2480    3.3730 ca        1 8ZE      0.053100
     12 C12         2.2070    1.2790    2.0580 ca        1 8ZE     -0.123000
     13 H1          0.4990   -1.0330   -1.2480 ho        1 8ZE      0.403000
     14 H2          2.1070    0.4780   -0.6210 h1        1 8ZE      0.032200
     15 H3          0.4300    0.8990   -0.0180 h1        1 8ZE      0.032200
     16 H4          1.4260   -2.0330    1.7090 ha        1 8ZE      0.158000
     17 H5          2.2840   -2.0830    4.0680 ha        1 8ZE      0.151000
     18 H6          3.9330    1.0460    6.9250 h1        1 8ZE      0.069200
     19 H7          4.9490    1.0230    5.3880 h1        1 8ZE      0.069200
     20 H8          2.2350    2.5130    5.7870 h1        1 8ZE      0.069200
     21 H9          3.8900    3.2970    5.5820 h1        1 8ZE      0.069200
     22 H10         2.1920    2.2300    1.5080 ha        1 8ZE      0.148000
@<TRIPOS>BOND
     1    1    2 1   
     2    1   13 1   
     3    2    3 1   
     4    2   14 1   
     5    2   15 1   
     6    3    4 ar  
     7    3   12 ar  
     8    4    5 ar  
     9    4   16 1   
    10    5    6 ar  
    11    5   17 1   
    12    6    7 1   
    13    6   11 ar  
    14    7    8 1   
    15    8    9 1   
    16    8   18 1   
    17    8   19 1   
    18    9   10 1   
    19    9   20 1   
    20    9   21 1   
    21   10   11 1   
    22   11   12 ar  
    23   12   22 1   
@<TRIPOS>SUBSTRUCTURE
     1 8ZE         1 TEMP              0 ****  ****    0 ROOT
