@<TRIPOS>MOLECULE
8ZE
   22    23     1     0     0
SMALL
bcc


@<TRIPOS>ATOM
      1 O1          0.8450   -1.0950   -0.3740 oh        1 8ZE     -0.598800
      2 C2          1.2820    0.1880    0.0500 c3        1 8ZE      0.179700
      3 C3          1.7720    0.1090    1.4590 ca        1 8ZE     -0.091300
      4 C4          1.8050   -1.1010    2.1600 ca        1 8ZE     -0.102000
      5 C5          2.2750   -1.1540    3.4700 ca        1 8ZE     -0.124000
      6 C6          2.7150    0.0240    4.0840 ca        1 8ZE      0.057100
      7 O7          3.1500   -0.0590    5.3980 os        1 8ZE     -0.315900
      8 C8          3.8970    1.0860    5.8210 c3        1 8ZE      0.091400
      9 C9          3.2300    2.3760    5.3720 c3        1 8ZE      0.091400
     10 O10         3.1190    2.4330    3.9460 os        1 8ZE     -0.317900
     11 C11         2.6710    1.2450    3.3860 ca        1 8ZE      0.053100
     12 C12         2.2030    1.2920    2.0700 ca        1 8ZE     -0.123000
     13 H1          0.5410   -0.9880   -1.2830 ho        1 8ZE      0.403000
     14 H2          0.4270    0.9180   -0.0150 h1        1 8ZE      0.032700
     15 H3          2.1140    0.5440   -0.6200 h1        1 8ZE      0.032700
     16 H4          1.4550   -2.0220    1.6660 ha        1 8ZE      0.158000
     17 H5          2.3060   -2.1000    4.0270 ha        1 8ZE      0.151000
     18 H6          4.9360    1.0110    5.4040 h1        1 8ZE      0.069200
     19 H7          3.9140    1.0000    6.9380 h1        1 8ZE      0.069200
     20 H8          3.8540    3.2710    5.6300 h1        1 8ZE      0.069200
     21 H9          2.2050    2.4680    5.8170 h1        1 8ZE      0.069200
     22 H10         2.1800    2.2510    1.5340 ha        1 8ZE      0.148000
@<TRIPOS>BOND
     1    1    2 1   
     2    1   13 1   
     3    2    3 1   
     4    2   14 1   
     5    2   15 1   
     6    3    4 ar  
     7    3   12 ar  
     8    4    5 ar  
     9    4   16 1   
    10    5    6 ar  
    11    5   17 1   
    12    6    7 1   
    13    6   11 ar  
    14    7    8 1   
    15    8    9 1   
    16    8   18 1   
    17    8   19 1   
    18    9   10 1   
    19    9   20 1   
    20    9   21 1   
    21   10   11 1   
    22   11   12 ar  
    23   12   22 1   
@<TRIPOS>SUBSTRUCTURE
     1 8ZE         1 TEMP              0 ****  ****    0 ROOT
