@<TRIPOS>MOLECULE
G
   36    38     1     0     0
SMALL
bcc


@<TRIPOS>ATOM
      1 OP3         0.0200    0.5850    6.0840 o         1 G       -0.929500
      2 P          -0.0650    1.0270    4.6580 p5        1 G        1.335900
      3 OP1        -1.2420    1.8490    4.2230 o         1 G       -0.929500
      4 OP2         1.2370    1.4150    3.9820 o         1 G       -0.929500
      5 O5'        -0.3440   -0.4590    3.7810 os        1 G       -0.553200
      6 C5'        -0.4730   -0.2840    2.4320 c3        1 G        0.229400
      7 C4'         0.8430   -0.6650    1.7100 c3        1 G        0.051100
      8 O4'         0.5500   -1.3400    0.4580 os        1 G       -0.431600
      9 C3'         1.7510    0.5400    1.4050 c3        1 G        0.131100
     10 O3'         2.9590    0.4540    2.1230 oh        1 G       -0.685800
     11 C2'         2.0640    0.4600   -0.1070 c3        1 G        0.103100
     12 O2'         3.3800    0.0670   -0.4300 oh        1 G       -0.617800
     13 C1'         1.0860   -0.6390   -0.6470 c3        1 G        0.213800
     14 N9         -0.0050   -0.1030   -1.4590 na        1 G       -0.178900
     15 C8         -1.2200    0.4570   -1.0110 cc        1 G        0.447400
     16 N7         -2.0520    0.8040   -2.0190 nd        1 G       -0.629000
     17 C5         -1.3700    0.4540   -3.1830 cd        1 G        0.194800
     18 C6         -1.7450    0.5890   -4.5730 c         1 G        0.645000
     19 O6         -2.7890    1.0590   -5.0600 o         1 G       -0.643500
     20 N1         -0.7740    0.1010   -5.4860 n         1 G       -0.497400
     21 C2          0.4590   -0.4360   -5.0650 cd        1 G        0.594800
     22 N2          1.3710   -0.8080   -6.1180 nh        1 G       -0.866800
     23 N3          0.8290   -0.5900   -3.7850 nc        1 G       -0.615100
     24 C4         -0.0860   -0.1240   -2.8520 cc        1 G        0.057800
     25 H5'        -0.7500    0.7810    2.1860 h1        1 G       -0.001800
     26 H5''       -1.2760   -0.9730    2.0320 h1        1 G       -0.001800
     27 H4'         1.3940   -1.4260    2.3260 h1        1 G        0.082700
     28 H3'         1.2320    1.5080    1.6530 h1        1 G        0.118700
     29 HO3'        2.7370    0.7560    3.0390 ho        1 G        0.517000
     30 H2'         1.9110    1.4490   -0.6120 h1        1 G        0.068700
     31 HO2'        3.7800   -0.3150    0.3640 ho        1 G        0.432000
     32 H1'         1.6390   -1.3910   -1.2830 h2        1 G        0.086700
     33 H8         -1.4210    0.5660    0.0720 h5        1 G        0.116100
     34 H1         -0.9470    0.2320   -6.4570 hn        1 G        0.322500
     35 H21         2.2930   -0.9650   -5.7560 hn        1 G        0.382300
     36 H22         1.0400   -1.6280   -6.5880 hn        1 G        0.382300
@<TRIPOS>BOND
     1    1    2 1   
     2    2    3 1   
     3    2    4 1   
     4    2    5 1   
     5    5    6 1   
     6    6    7 1   
     7    6   25 1   
     8    6   26 1   
     9    7    8 1   
    10    7    9 1   
    11    7   27 1   
    12    8   13 1   
    13    9   10 1   
    14    9   11 1   
    15    9   28 1   
    16   10   29 1   
    17   11   12 1   
    18   11   13 1   
    19   11   30 1   
    20   12   31 1   
    21   13   14 1   
    22   13   32 1   
    23   14   15 1   
    24   14   24 1   
    25   15   16 2   
    26   15   33 1   
    27   16   17 1   
    28   17   18 1   
    29   17   24 2   
    30   18   19 2   
    31   18   20 1   
    32   20   21 1   
    33   20   34 1   
    34   21   22 1   
    35   21   23 2   
    36   22   35 1   
    37   22   36 1   
    38   23   24 1   
@<TRIPOS>SUBSTRUCTURE
     1 G           1 TEMP              0 ****  ****    0 ROOT
