@<TRIPOS>MOLECULE
G00
   34    34     1     0     0
SMALL
bcc


@<TRIPOS>ATOM
      1 C1          1.4030    0.0850   -0.2670 ca        1 G00      0.149100
      2 N1         -5.7210   -0.3630   -1.0380 n2        1 G00     -0.864100
      3 O1          2.7470    0.2370   -0.0140 os        1 G00     -0.315900
      4 S1         -3.5860   -0.5110    0.5240 ss        1 G00     -0.243300
      5 CL1         1.2780    2.7620    0.2180 cl        1 G00     -0.072400
      6 C2          0.8020   -1.1370   -0.6010 ca        1 G00     -0.204000
      7 N2         -6.0480   -1.0440    1.2750 nh        1 G00     -0.938800
      8 C3         -0.5670   -1.1990   -0.8430 ca        1 G00     -0.072000
      9 C4         -1.3600   -0.0500   -0.7550 ca        1 G00     -0.117300
     10 C5         -0.7610    1.1730   -0.4240 ca        1 G00     -0.077000
     11 C6          0.6100    1.2520   -0.1790 ca        1 G00     -0.017600
     12 C7          3.5450   -0.9540   -0.0860 c3        1 G00      0.129400
     13 C8          4.9600   -0.5150    0.2460 c3        1 G00     -0.086400
     14 C9          5.9000   -1.7000    0.1980 c3        1 G00     -0.078400
     15 C10         7.3130   -1.2890    0.5240 c3        1 G00     -0.093100
     16 C11        -2.8100   -0.1170   -1.0300 c3        1 G00      0.059000
     17 C12        -5.3060   -0.6120    0.1630 c2        1 G00      0.641100
     18 HN1        -6.7020   -0.4290   -1.2100 hn        1 G00      0.391400
     19 H2          1.4020   -2.0550   -0.6750 ha        1 G00      0.144000
     20 HN2        -7.0080   -0.7860    1.2960 hn        1 G00      0.402300
     21 HN2A       -5.5870   -0.9660    2.1530 hn        1 G00      0.402300
     22 H3         -1.0290   -2.1640   -1.1040 ha        1 G00      0.143000
     23 H5         -1.3810    2.0820   -0.3570 ha        1 G00      0.153000
     24 H7          3.1680   -1.7030    0.6580 h1        1 G00      0.041200
     25 H7A         3.4860   -1.3820   -1.1210 h1        1 G00      0.041200
     26 H8          5.2880    0.2700   -0.4840 hc        1 G00      0.060700
     27 H8A         4.9760   -0.0480    1.2650 hc        1 G00      0.060700
     28 H9          5.5570   -2.4820    0.9260 hc        1 G00      0.039700
     29 H9A         5.8690   -2.1630   -0.8240 hc        1 G00      0.039700
     30 H10         7.6810   -0.5280   -0.2060 hc        1 G00      0.036367
     31 H10A        7.3680   -0.8470    1.5490 hc        1 G00      0.036367
     32 H10B        7.9920   -2.1750    0.4840 hc        1 G00      0.036367
     33 H11        -3.0470   -0.9040   -1.7880 h1        1 G00      0.088200
     34 H11A       -3.2010    0.8560   -1.4190 h1        1 G00      0.088200
@<TRIPOS>BOND
     1    1    3 1   
     2    1    6 ar  
     3    1   11 ar  
     4    2   17 2   
     5    2   18 1   
     6    3   12 1   
     7    4   16 1   
     8    4   17 1   
     9    5   11 1   
    10    6    8 ar  
    11    6   19 1   
    12    7   17 1   
    13    7   20 1   
    14    7   21 1   
    15    8    9 ar  
    16    8   22 1   
    17    9   10 ar  
    18    9   16 1   
    19   10   11 ar  
    20   10   23 1   
    21   12   13 1   
    22   12   24 1   
    23   12   25 1   
    24   13   14 1   
    25   13   26 1   
    26   13   27 1   
    27   14   15 1   
    28   14   28 1   
    29   14   29 1   
    30   15   30 1   
    31   15   31 1   
    32   15   32 1   
    33   16   33 1   
    34   16   34 1   
@<TRIPOS>SUBSTRUCTURE
     1 G00         1 TEMP              0 ****  ****    0 ROOT
