@<TRIPOS>MOLECULE
G00
   35    35     1     0     0
SMALL
bcc


@<TRIPOS>ATOM
      1 C1          0.2000   -0.0030   -0.0510 ca        1 G00      0.197100
      2 N1          3.5720    0.3870    6.5170 n2        1 G00     -0.748100
      3 O1         -0.5010    0.1130   -1.2160 os        1 G00     -0.300900
      4 S1          2.4550    1.3670    4.1770 ss        1 G00     -0.215300
      5 CL1        -2.2430    0.2190    1.1340 cl        1 G00     -0.035400
      6 C2          1.5950   -0.1550    0.0170 ca        1 G00     -0.212000
      7 N2          3.4410    2.7190    6.2290 n4        1 G00     -0.817600
      8 C3          2.2290   -0.2580    1.2480 ca        1 G00     -0.045000
      9 C4          1.4870   -0.2120    2.4370 ca        1 G00     -0.184300
     10 C5          0.0910   -0.0670    2.3740 ca        1 G00     -0.058000
     11 C6         -0.5590    0.0420    1.1490 ca        1 G00     -0.027600
     12 C7          0.2500    0.0130   -2.4420 c3        1 G00      0.126400
     13 C8         -0.7790    0.1310   -3.5520 c3        1 G00     -0.088400
     14 C9         -0.1000    0.0410   -4.9020 c3        1 G00     -0.078400
     15 C10        -1.1020    0.1570   -6.0220 c3        1 G00     -0.095100
     16 C11         2.1540   -0.3490    3.7410 c3        1 G00      0.089000
     17 C12         3.1980    1.3210    5.7270 c2        1 G00      0.520100
     18 HN1         3.4470   -0.5660    6.2530 hn        1 G00      0.483400
     19 H2          2.1960   -0.1990   -0.9040 ha        1 G00      0.160000
     20 HN2         4.0800    3.1910    5.5810 hn        1 G00      0.473133
     21 HN2A        2.5440    3.2170    6.2500 hn        1 G00      0.473133
     22 H3          3.3220   -0.3850    1.2860 ha        1 G00      0.143000
     23 H5         -0.4990   -0.0460    3.3050 ha        1 G00      0.153000
     24 H7          0.9960    0.8480   -2.4860 h1        1 G00      0.047700
     25 H7A         0.7750   -0.9770   -2.4750 h1        1 G00      0.047700
     26 H8         -1.5400   -0.6850   -3.4450 hc        1 G00      0.065700
     27 H8A        -1.3230    1.1070   -3.4550 hc        1 G00      0.065700
     28 H9          0.4460   -0.9360   -4.9840 hc        1 G00      0.041700
     29 H9A         0.6640    0.8580   -4.9940 hc        1 G00      0.041700
     30 H10        -1.6400    1.1340   -5.9720 hc        1 G00      0.041367
     31 H10A       -0.5850    0.0880   -7.0090 hc        1 G00      0.041367
     32 H10B       -1.8580   -0.6630   -5.9610 hc        1 G00      0.041367
     33 H11         3.1180   -0.9080    3.6700 h1        1 G00      0.089200
     34 H11A        1.5000   -0.8360    4.5050 h1        1 G00      0.089200
     35 H23         3.8530    2.7230    7.1730 hn        1 G00      0.473133
@<TRIPOS>BOND
     1    1    3 1   
     2    1    6 ar  
     3    1   11 ar  
     4    2   17 2   
     5    2   18 1   
     6    3   12 1   
     7    4   16 1   
     8    4   17 1   
     9    5   11 1   
    10    6    8 ar  
    11    6   19 1   
    12    7   17 1   
    13    7   20 1   
    14    7   21 1   
    15    7   35 1   
    16    8    9 ar  
    17    8   22 1   
    18    9   10 ar  
    19    9   16 1   
    20   10   11 ar  
    21   10   23 1   
    22   12   13 1   
    23   12   24 1   
    24   12   25 1   
    25   13   14 1   
    26   13   26 1   
    27   13   27 1   
    28   14   15 1   
    29   14   28 1   
    30   14   29 1   
    31   15   30 1   
    32   15   31 1   
    33   15   32 1   
    34   16   33 1   
    35   16   34 1   
@<TRIPOS>SUBSTRUCTURE
     1 G00         1 TEMP              0 ****  ****    0 ROOT
