@<TRIPOS>MOLECULE
G00
   35    35     1     0     0
SMALL
bcc


@<TRIPOS>ATOM
      1 C1          0.2050   -0.0130   -0.0520 ca        1 G00      0.197100
      2 N1          3.5750    0.3990    6.5160 n2        1 G00     -0.748100
      3 O1         -0.4990    0.0980   -1.2160 os        1 G00     -0.300900
      4 S1          2.4420    1.3720    4.1800 ss        1 G00     -0.215300
      5 Cl1        -2.2400    0.1660    1.1350 cl        1 G00     -0.035400
      6 C2          1.6030   -0.1440    0.0140 ca        1 G00     -0.212000
      7 N2          3.4090    2.7290    6.2390 nz        1 G00     -0.817600
      8 C3          2.2390   -0.2430    1.2440 ca        1 G00     -0.045000
      9 C4          1.4970   -0.2140    2.4340 ca        1 G00     -0.184300
     10 C5          0.0990   -0.0900    2.3730 ca        1 G00     -0.058000
     11 C6         -0.5540    0.0150    1.1480 ca        1 G00     -0.027600
     12 C7          0.2530    0.0140   -2.4430 c3        1 G00      0.126400
     13 C8         -0.7780    0.1220   -3.5520 c3        1 G00     -0.088400
     14 C9         -0.0990    0.0480   -4.9030 c3        1 G00     -0.078400
     15 C10        -1.1030    0.1530   -6.0210 c3        1 G00     -0.095100
     16 C11         2.1670   -0.3470    3.7370 c3        1 G00      0.089000
     17 C12         3.1870    1.3300    5.7300 c2        1 G00      0.520100
     18 HN1         3.4650   -0.5550    6.2470 hn        1 G00      0.483400
     19 H2          2.2040   -0.1740   -0.9070 ha        1 G00      0.160000
     20 HN2         4.0430    3.2130    5.5940 hn        1 G00      0.473133
     21 HN2A        2.5050    3.2140    6.2590 hn        1 G00      0.473133
     22 H3          3.3340   -0.3530    1.2800 ha        1 G00      0.143000
     23 H5         -0.4910   -0.0820    3.3040 ha        1 G00      0.153000
     24 H7          0.9870    0.8610   -2.4830 h1        1 G00      0.047700
     25 H7A         0.7930   -0.9680   -2.4810 h1        1 G00      0.047700
     26 H8         -1.5270   -0.7070   -3.4480 hc        1 G00      0.065700
     27 H8A        -1.3370    1.0890   -3.4500 hc        1 G00      0.065700
     28 H9          0.4620   -0.9200   -4.9890 hc        1 G00      0.041700
     29 H9A         0.6520    0.8770   -4.9920 hc        1 G00      0.041700
     30 H10        -1.6560    1.1220   -5.9660 hc        1 G00      0.041367
     31 H10A       -0.5860    0.0970   -7.0090 hc        1 G00      0.041367
     32 H10B       -1.8470   -0.6790   -5.9640 hc        1 G00      0.041367
     33 H11         3.1400   -0.8900    3.6620 h1        1 G00      0.089200
     34 H11A        1.5210   -0.8460    4.4990 h1        1 G00      0.089200
     35 H23         3.8180    2.7350    7.1840 hn        1 G00      0.473133
@<TRIPOS>BOND
     1    1    3 1   
     2    1    6 ar  
     3    1   11 ar  
     4    2   17 2   
     5    2   18 1   
     6    3   12 1   
     7    4   16 1   
     8    4   17 1   
     9    5   11 1   
    10    6    8 ar  
    11    6   19 1   
    12    7   17 1   
    13    7   20 1   
    14    7   21 1   
    15    7   35 1   
    16    8    9 ar  
    17    8   22 1   
    18    9   10 ar  
    19    9   16 1   
    20   10   11 ar  
    21   10   23 1   
    22   12   13 1   
    23   12   24 1   
    24   12   25 1   
    25   13   14 1   
    26   13   26 1   
    27   13   27 1   
    28   14   15 1   
    29   14   28 1   
    30   14   29 1   
    31   15   30 1   
    32   15   31 1   
    33   15   32 1   
    34   16   33 1   
    35   16   34 1   
@<TRIPOS>SUBSTRUCTURE
     1 G00         1 TEMP              0 ****  ****    0 ROOT
