@<TRIPOS>MOLECULE
G00
   35    35     1     0     0
SMALL
bcc


@<TRIPOS>ATOM
      1 C1          0.2010   -0.0030   -0.0520 ca        1 G00      0.197100
      2 N1          3.5720    0.3730    6.5170 n2        1 G00     -0.748100
      3 O1         -0.5010    0.1140   -1.2170 os        1 G00     -0.300900
      4 S1          2.4530    1.3580    4.1800 ss        1 G00     -0.215300
      5 CL1        -2.2420    0.2060    1.1330 cl        1 G00     -0.035400
      6 C2          1.5970   -0.1510    0.0150 ca        1 G00     -0.212000
      7 N2          3.4340    2.7050    6.2380 n4        1 G00     -0.817600
      8 C3          2.2310   -0.2570    1.2460 ca        1 G00     -0.045000
      9 C4          1.4890   -0.2180    2.4350 ca        1 G00     -0.184300
     10 C5          0.0930   -0.0770    2.3730 ca        1 G00     -0.058000
     11 C6         -0.5580    0.0340    1.1480 ca        1 G00     -0.027600
     12 C7          0.2510    0.0210   -2.4430 c3        1 G00      0.126400
     13 C8         -0.7790    0.1400   -3.5530 c3        1 G00     -0.088400
     14 C9         -0.0990    0.0570   -4.9030 c3        1 G00     -0.078400
     15 C10        -1.1020    0.1720   -6.0220 c3        1 G00     -0.095100
     16 C11         2.1570   -0.3580    3.7380 c3        1 G00      0.089000
     17 C12         3.1960    1.3080    5.7300 c2        1 G00      0.520100
     18 HN1         3.4510   -0.5800    6.2490 hn        1 G00      0.483400
     19 H2          2.1980   -0.1900   -0.9060 ha        1 G00      0.160000
     20 HN2         4.0780    3.1800    5.5960 hn        1 G00      0.473133
     21 HN2A        3.8390    2.7070    7.1850 hn        1 G00      0.473133
     22 H3          3.3250   -0.3800    1.2820 ha        1 G00      0.143000
     23 H5         -0.4970   -0.0620    3.3040 ha        1 G00      0.153000
     24 H7          0.9940    0.8580   -2.4840 h1        1 G00      0.047700
     25 H7A         0.7790   -0.9680   -2.4800 h1        1 G00      0.047700
     26 H8         -1.3260    1.1130   -3.4520 hc        1 G00      0.065700
     27 H8A        -1.5370   -0.6800   -3.4490 hc        1 G00      0.065700
     28 H9          0.4500   -0.9180   -4.9890 hc        1 G00      0.041700
     29 H9A         0.6620    0.8760   -4.9920 hc        1 G00      0.041700
     30 H10        -0.5850    0.1090   -7.0100 hc        1 G00      0.041367
     31 H10A       -1.8550   -0.6500   -5.9650 hc        1 G00      0.041367
     32 H10B       -1.6430    1.1480   -5.9690 hc        1 G00      0.041367
     33 H11         3.1230   -0.9130    3.6650 h1        1 G00      0.089200
     34 H11A        1.5040   -0.8480    4.5000 h1        1 G00      0.089200
     35 H23         2.5360    3.2030    6.2530 hn        1 G00      0.473133
@<TRIPOS>BOND
     1    1    3 1   
     2    1    6 ar  
     3    1   11 ar  
     4    2   17 2   
     5    2   18 1   
     6    3   12 1   
     7    4   16 1   
     8    4   17 1   
     9    5   11 1   
    10    6    8 ar  
    11    6   19 1   
    12    7   17 1   
    13    7   20 1   
    14    7   21 1   
    15    7   35 1   
    16    8    9 ar  
    17    8   22 1   
    18    9   10 ar  
    19    9   16 1   
    20   10   11 ar  
    21   10   23 1   
    22   12   13 1   
    23   12   24 1   
    24   12   25 1   
    25   13   14 1   
    26   13   26 1   
    27   13   27 1   
    28   14   15 1   
    29   14   28 1   
    30   14   29 1   
    31   15   30 1   
    32   15   31 1   
    33   15   32 1   
    34   16   33 1   
    35   16   34 1   
@<TRIPOS>SUBSTRUCTURE
     1 G00         1 TEMP              0 ****  ****    0 ROOT
