@<TRIPOS>MOLECULE
G01
   24    22     1     0     0
SMALL
bcc


@<TRIPOS>ATOM
      1 CD         -3.6320    1.4650   -0.4920 c1        1 G01      0.327000
      2 CG         -2.1270    1.6160   -0.4580 c2        1 G01     -0.216000
      3 CB         -1.4810    0.2490   -0.5040 c3        1 G01     -0.131000
      4 CA          0.0230    0.4000   -0.4570 c3        1 G01     -0.050000
      5 C           0.5470    0.6630   -1.8510 c2        1 G01      0.310000
      6 C6          2.2610   -2.3690    1.7190 c3        1 G01     -0.956000
      7 P           1.9000   -0.7130    1.0690 p5        1 G01      2.801000
      8 OPA         3.1580   -0.1720    0.2790 oh        1 G01     -0.840000
      9 OPB         1.5910    0.2010    2.1910 o         1 G01     -1.167000
     10 N           0.6030   -0.7930    0.0490 n3        1 G01     -0.948000
     11 O           1.0420    1.7850   -2.1360 o         1 G01     -0.584500
     12 OXT         0.4880   -0.2400   -2.7260 o         1 G01     -0.584500
     13 OE1        -4.2860    1.4330    0.5830 o         1 G01     -0.605500
     14 OE2        -4.2300    1.3710   -1.5960 o         1 G01     -0.605500
     15 HG2        -1.8350    2.1410   -1.2290 ha        1 G01      0.054000
     16 HG3        -1.8640    2.0730    0.3660 ha        1 G01      0.054000
     17 HB2        -1.7800   -0.2790    0.2630 hc        1 G01      0.093500
     18 HB3        -1.7380   -0.2050   -1.3320 hc        1 G01      0.093500
     19 HA          0.2570    1.1490    0.1260 h1        1 G01      0.058000
     20 H6          2.6040   -2.9370    0.9970 hc        1 G01      0.123333
     21 H6A         2.9340   -2.3020    2.4290 hc        1 G01      0.123333
     22 H6B         1.4410   -2.7640    2.0830 hc        1 G01      0.123333
     23 HOPA        3.8650   -0.1670    0.8160 ho        1 G01      0.293000
     24 H2          0.2600   -1.6040   -0.1900 hn        1 G01      0.235000
@<TRIPOS>BOND
     1    1   13 1   
     2    1   14 1   
     3    2    3 1   
     4    2   15 1   
     5    2   16 1   
     6    3    4 1   
     7    3   17 1   
     8    3   18 1   
     9    4    5 1   
    10    4   10 1   
    11    4   19 1   
    12    5   11 1   
    13    5   12 1   
    14    6    7 1   
    15    6   20 1   
    16    6   21 1   
    17    6   22 1   
    18    7    8 1   
    19    7    9 1   
    20    7   10 1   
    21    8   23 1   
    22   10   24 1   
@<TRIPOS>SUBSTRUCTURE
     1 G01         1 TEMP              0 ****  ****    0 ROOT
