@<TRIPOS>MOLECULE
G01
   24    23     1     0     0
SMALL
bcc


@<TRIPOS>ATOM
      1 CD          3.3980    0.8710   -0.0870 c         1 G01      0.908600
      2 CG          1.8920    0.7480    0.1840 c3        1 G01     -0.190400
      3 CB          1.3250   -0.5990   -0.1980 c3        1 G01     -0.062400
      4 CA         -0.1340   -0.8070    0.2390 c3        1 G01      0.097500
      5 C          -0.4540   -2.3440    0.1630 c         1 G01      0.910600
      6 C6         -1.3120    1.6750    1.5150 c3        1 G01     -0.427300
      7 OPA        -1.8380    2.4240   -0.8850 oh        1 G01     -0.804400
      8 OPB        -3.4270    1.0050    0.1350 o         1 G01     -0.923300
      9 N          -1.1120   -0.0460   -0.4990 n3        1 G01     -1.011300
     10 O          -0.8040   -2.8370   -0.9460 o         1 G01     -0.848300
     11 OXT        -0.3680   -2.9970    1.2410 o         1 G01     -0.848300
     12 OE1         3.8420    0.6740   -1.2560 o         1 G01     -0.869800
     13 OE2         4.1470    1.2230    0.8760 o         1 G01     -0.869800
     14 HG2         1.7140    0.9410    1.2740 hc        1 G01      0.010200
     15 HG3         1.3930    1.5610   -0.4030 hc        1 G01      0.010200
     16 HB2         1.4220   -0.7470   -1.3040 hc        1 G01      0.054200
     17 HB3         1.9270   -1.4050    0.3000 hc        1 G01      0.054200
     18 HA         -0.2180   -0.5080    1.3260 h1        1 G01      0.018700
     19 H6         -1.7670    2.6570    1.7850 hc        1 G01      0.097033
     20 H6A        -1.4940    0.9880    2.3760 hc        1 G01      0.097033
     21 H6B        -0.2050    1.8380    1.4650 hc        1 G01      0.097033
     22 HOPA       -2.6800    2.6680   -1.2550 ho        1 G01      0.441000
     23 H2         -1.2980   -0.4750   -1.3760 hn        1 G01      0.458800
     24 P          -1.9520    1.1110    0.1010 p5        1 G01      1.598200
@<TRIPOS>BOND
     1    1    2 1   
     2    1   12 1   
     3    1   13 1   
     4    2    3 1   
     5    2   14 1   
     6    2   15 1   
     7    3    4 1   
     8    3   16 1   
     9    3   17 1   
    10    4    5 1   
    11    4    9 1   
    12    4   18 1   
    13    5   10 1   
    14    5   11 1   
    15    6   19 1   
    16    6   20 1   
    17    6   21 1   
    18    6   24 1   
    19    7   22 1   
    20    7   24 1   
    21    8   24 2   
    22    9   23 1   
    23    9   24 1   
@<TRIPOS>SUBSTRUCTURE
     1 G01         1 TEMP              0 ****  ****    0 ROOT
