@<TRIPOS>MOLECULE
G04
   81    77     1     0     0
SMALL
bcc


@<TRIPOS>ATOM
      1 C2         -1.6220   -3.4760   -5.0970 c1        1 G04      0.146000
      2 C3         -0.2600   -3.3960   -5.4100 c1        1 G04     -0.120833
      3 C4          0.5960   -2.5560   -4.6400 c1        1 G04     -0.120833
      4 C5          0.0730   -1.8140   -3.5730 c1        1 G04     -0.884000
      5 C6         -1.2960   -1.8990   -3.2640 c1        1 G04      0.013000
      6 C7         -2.1440   -2.7290   -4.0250 c1        1 G04     -0.183000
      7 S8          1.2000   -0.9060   -2.4420 s4        1 G04      2.065800
      8 O9          1.1190   -1.4120   -1.1210 o         1 G04     -0.545400
      9 O10         2.5750   -1.1610   -2.7520 o         1 G04     -0.545400
     10 N11         0.8600    0.7360   -2.4800 n2        1 G04     -0.828000
     11 C12         1.6400    1.6320   -3.3580 c3        1 G04     -0.016000
     12 C13         1.2860    1.3560   -4.8150 c3        1 G04     -0.126000
     13 C14         0.5510    2.5950   -5.4140 c3        1 G04     -0.210000
     14 C15         2.6060    1.0820   -5.6350 c3        1 G04     -0.210000
     15 C16        -0.1150    1.3130   -1.5170 c3        1 G04     -0.049000
     16 C17         0.6000    1.6380   -0.1960 c3        1 G04     -0.037000
     17 O18         1.4400    2.7080   -0.3840 oh        1 G04     -0.330000
     18 C19        -0.4380    1.9810    0.8830 c3        1 G04      0.034000
     19 N20        -0.0550    1.3760    2.1240 n         1 G04     -0.316000
     20 C21        -0.7030    0.1770    2.5590 c2        1 G04      0.390000
     21 O22        -1.5770   -0.3020    1.8970 o         1 G04     -0.404000
     22 O23        -0.2720   -0.4880    3.7950 os        1 G04     -0.274000
     23 C24        -0.1720   -1.9510    3.6770 c3        1 G04      0.020000
     24 C25         0.6810   -2.2650    2.7650 c3        1 G04     -0.033000
     25 O26         1.3320   -3.5490    3.2640 os        1 G04     -0.275000
     26 C27         0.8910   -3.6830    4.7690 c3        1 G04      0.142000
     27 O28         2.1370   -3.8940    5.7110 os        1 G04     -0.271000
     28 C29         2.6850   -2.7370    5.8390 c3        1 G04     -0.050000
     29 C30         1.5760   -1.7640    5.6360 c3        1 G04      0.005000
     30 C31         0.4000   -2.5970    5.0670 c3        1 G04     -0.173000
     31 C32        -0.5140    3.4670    1.0520 c3        1 G04     -0.121000
     32 C33        -1.8230    4.8400    2.5050 c1        1 G04     -0.123000
     33 C34        -2.9260    5.5640    2.9000 c1        1 G04     -0.120833
     34 C35        -4.1610    5.3200    2.3180 c1        1 G04     -0.120833
     35 C36        -4.2870    4.3480    1.3380 c1        1 G04     -0.120833
     36 C37        -3.1750    3.6180    0.9390 c1        1 G04     -0.120833
     37 C38        -1.9460    3.8620    1.5190 c1        1 G04     -0.071000
     38 O39        -2.4900   -4.3260   -5.8720 os        1 G04     -0.201000
     39 C40        -2.4530   -5.7050   -5.4840 c3        1 G04     -0.080000
     40 O41         1.2140   -1.1850    6.8550 os        1 G04     -0.272000
     41 C42         2.3220   -0.7990    7.6610 c3        1 G04     -0.076000
     42 H3          0.1170   -3.9360   -6.1850 ha        1 G04      0.137500
     43 H4          1.5640   -2.4960   -4.8600 ha        1 G04      0.137500
     44 H6         -1.6620   -1.3790   -2.5150 ha        1 G04      0.177000
     45 H7         -3.1320   -2.7880   -3.7970 ha        1 G04      0.165000
     46 H12         1.4260    2.5730   -3.1390 h1        1 G04      0.099500
     47 H12A        2.6120    1.4720   -3.2170 h1        1 G04      0.099500
     48 H13         0.6940    0.5640   -4.8670 hc        1 G04      0.093000
     49 H14         0.9480    3.4290   -5.0410 hc        1 G04      0.076167
     50 H14A       -0.3830    2.5550   -5.1850 hc        1 G04      0.076167
     51 H14B        0.6490    2.5930   -6.3920 hc        1 G04      0.076167
     52 H15         3.1170    0.3790   -5.2030 hc        1 G04      0.076167
     53 H15A        3.1410    1.8960   -5.6690 hc        1 G04      0.076167
     54 H15B        2.3660    0.7960   -6.5710 hc        1 G04      0.076167
     55 H16        -0.4880    2.1220   -1.8860 h1        1 G04      0.101500
     56 H16A       -0.8410    0.6600   -1.3480 h1        1 G04      0.101500
     57 H17         1.1170    0.8690    0.0880 h1        1 G04      0.120000
     58 HO18        2.2470    2.4780   -0.1820 ho        1 G04      0.214000
     59 H19        -1.3110    1.6390    0.6150 h1        1 G04      0.123000
     60 HN20        0.6510    1.7000    2.5850 hn        1 G04      0.237000
     61 H24        -1.0530   -2.3360    3.4640 h1        1 G04      0.141000
     62 H25         1.3600   -1.5500    2.6650 h1        1 G04      0.106000
     63 H25A        0.2240   -2.4250    1.9110 h1        1 G04      0.106000
     64 H27         0.2170   -4.4270    4.8840 h2        1 G04      0.144000
     65 H29         3.3970   -2.6070    5.1390 h1        1 G04      0.097500
     66 H29A        3.0770   -2.6340    6.7620 h1        1 G04      0.097500
     67 H30         1.8410   -1.0810    5.0030 h1        1 G04      0.114000
     68 H31        -0.3240   -2.7030    5.7390 hc        1 G04      0.147000
     69 H32        -0.3190    3.8950    0.2130 hc        1 G04      0.108000
     70 H32A        0.1480    3.7570    1.7310 hc        1 G04      0.108000
     71 H33        -0.9660    5.0090    2.9100 ha        1 G04      0.131000
     72 H34        -2.8330    6.2780    3.6210 ha        1 G04      0.137500
     73 H35        -4.9230    5.8210    2.5920 ha        1 G04      0.137500
     74 H36        -5.1680    4.1740    0.9230 ha        1 G04      0.137500
     75 H37        -3.2640    2.9170    0.2350 ha        1 G04      0.137500
     76 H40        -2.6600   -6.2680   -6.2590 h1        1 G04      0.090000
     77 H40A       -1.5440   -5.9310   -5.1430 h1        1 G04      0.090000
     78 H40B       -3.1350   -5.8680   -4.7570 h1        1 G04      0.090000
     79 H42         2.0590   -0.0830    8.2480 h1        1 G04      0.076000
     80 H42A        3.0490   -0.4990    7.0890 h1        1 G04      0.076000
     81 H42B        2.6280   -1.5810    8.2060 h1        1 G04      0.076000
@<TRIPOS>BOND
     1    1    6 1   
     2    1   38 1   
     3    2    3 1   
     4    2   42 1   
     5    3   43 1   
     6    4    5 1   
     7    4    7 1   
     8    5   44 1   
     9    6   45 1   
    10    7    8 1   
    11    7    9 1   
    12   10   11 1   
    13   10   15 1   
    14   11   12 1   
    15   11   46 1   
    16   11   47 1   
    17   12   13 1   
    18   12   14 1   
    19   12   48 1   
    20   13   49 1   
    21   13   50 1   
    22   13   51 1   
    23   14   52 1   
    24   14   53 1   
    25   14   54 1   
    26   15   16 1   
    27   15   55 1   
    28   15   56 1   
    29   16   17 1   
    30   16   18 1   
    31   16   57 1   
    32   17   58 1   
    33   18   19 1   
    34   18   31 1   
    35   18   59 1   
    36   19   20 1   
    37   19   60 1   
    38   20   21 1   
    39   20   22 1   
    40   22   23 1   
    41   23   24 1   
    42   23   30 1   
    43   23   61 1   
    44   24   25 1   
    45   24   62 1   
    46   24   63 1   
    47   25   26 1   
    48   26   27 1   
    49   26   30 1   
    50   26   64 1   
    51   27   28 1   
    52   28   29 1   
    53   28   65 1   
    54   28   66 1   
    55   29   30 1   
    56   29   40 1   
    57   29   67 1   
    58   30   68 1   
    59   31   37 1   
    60   31   69 1   
    61   31   70 1   
    62   32   37 1   
    63   32   71 1   
    64   33   34 1   
    65   33   72 1   
    66   34   73 1   
    67   35   36 1   
    68   35   74 1   
    69   36   75 1   
    70   38   39 1   
    71   39   76 1   
    72   39   77 1   
    73   39   78 1   
    74   40   41 1   
    75   41   79 1   
    76   41   80 1   
    77   41   81 1   
@<TRIPOS>SUBSTRUCTURE
     1 G04         1 TEMP              0 ****  ****    0 ROOT
