@<TRIPOS>MOLECULE
G04
   83    85     1     0     0
SMALL
bcc


@<TRIPOS>ATOM
      1 C2          0.0260   -0.5820    0.0360 ca        1 G04      0.309100
      2 C3          1.1340   -0.9580    0.8400 ca        1 G04     -0.213500
      3 C4          1.2280   -0.4950    2.1270 ca        1 G04      0.063500
      4 C5          0.2390    0.3590    2.7080 ca        1 G04     -0.695500
      5 C6         -0.8600    0.7270    1.8630 ca        1 G04      0.063500
      6 C7         -0.9750    0.2820    0.5770 ca        1 G04     -0.213500
      7 S8          0.3070    0.8120    4.1670 s4        1 G04      1.691300
      8 O9         -0.7490    1.4930    4.6940 o         1 G04     -0.455900
      9 O10         1.2880    0.3200    4.9750 o         1 G04     -0.455900
     10 N11         1.5190    2.9470    3.9620 n7        1 G04     -0.907200
     11 C12         2.9670    2.7530    3.8540 c3        1 G04      0.105800
     12 C13         3.4580    2.3920    2.4440 c3        1 G04     -0.070700
     13 C14         3.2880    3.5480    1.4830 c3        1 G04     -0.105100
     14 C15         4.9160    1.9880    2.5340 c3        1 G04     -0.105100
     15 C16         1.1270    3.8480    5.0460 c3        1 G04      0.096800
     16 C17         1.5280    3.3800    6.4590 c3        1 G04      0.117100
     17 O18         2.8350    3.8080    6.8000 oh        1 G04     -0.616800
     18 C19         0.5830    4.0330    7.5060 c3        1 G04      0.146500
     19 N20         1.0280    3.6830    8.9080 ny        1 G04     -0.639800
     20 C21         0.6460    2.3010    9.3170 c         1 G04      0.624100
     21 O22         0.1580    1.4840    8.5460 o         1 G04     -0.445000
     22 O23         0.9200    2.1090   10.6210 os        1 G04     -0.388900
     23 C24         0.5710    0.7990   11.1710 c3        1 G04      0.129100
     24 C25         1.7750   -0.1540   11.0470 c3        1 G04      0.104400
     25 O26         1.8300   -0.9030   12.2560 os        1 G04     -0.382600
     26 C27         1.1130   -0.2370   13.2920 c3        1 G04      0.327900
     27 O28         2.1180    0.2760   14.1450 os        1 G04     -0.395600
     28 C29         1.9200    1.6740   14.3750 c3        1 G04      0.095400
     29 C30         0.8960    2.1990   13.3510 c3        1 G04      0.124100
     30 C31         0.3170    0.9450   12.6750 c3        1 G04     -0.128700
     31 C32         0.5300    5.5620    7.3480 c3        1 G04     -0.053100
     32 C33         0.4600    6.8840    9.4710 ca        1 G04     -0.131000
     33 C34        -0.2490    7.5430   10.4750 ca        1 G04     -0.112000
     34 C35        -1.6450    7.5380   10.4650 ca        1 G04     -0.089000
     35 C36        -2.3320    6.8740    9.4470 ca        1 G04     -0.112000
     36 C37        -1.6270    6.2170    8.4400 ca        1 G04     -0.131000
     37 C38        -0.2260    6.2150    8.4490 ca        1 G04     -0.179300
     38 O39        -0.1780   -0.9760   -1.2290 os        1 G04     -0.259900
     39 C40         0.7750   -1.8690   -1.8370 c3        1 G04      0.096700
     40 O41        -0.2050    2.8640   13.9580 os        1 G04     -0.415600
     41 C42         0.1410    4.0870   14.5900 c3        1 G04      0.111700
     42 H3          1.9110   -1.6260    0.4300 ha        1 G04      0.194000
     43 H4          2.0910   -0.7980    2.7520 ha        1 G04      0.172000
     44 H6         -1.6470    1.3840    2.2840 ha        1 G04      0.172000
     45 H7         -1.8310    0.5660   -0.0620 ha        1 G04      0.194000
     46 H12         3.5230    3.6810    4.1800 h1        1 G04      0.069200
     47 H12A        3.2360    1.9150    4.5610 h1        1 G04      0.069200
     48 H13         2.8660    1.5110    2.0630 hc        1 G04      0.033700
     49 H14         2.2110    3.7700    1.2920 hc        1 G04      0.054200
     50 H14A        3.7660    3.3000    0.5020 hc        1 G04      0.054200
     51 H14B        3.7800    4.4700    1.8800 hc        1 G04      0.054200
     52 H15         5.5400    2.8390    2.9010 hc        1 G04      0.054200
     53 H15A        5.2910    1.6920    1.5230 hc        1 G04      0.054200
     54 H15B        5.0470    1.1230    3.2270 hc        1 G04      0.054200
     55 H16         1.5670    4.8790    4.8950 h1        1 G04      0.091200
     56 H16A        0.0010    3.9270    5.0050 h1        1 G04      0.091200
     57 H17         1.4490    2.2550    6.5460 h1        1 G04      0.077700
     58 HO18        3.4690    3.2840    6.2910 ho        1 G04      0.446000
     59 H19        -0.4530    3.5970    7.3690 hx        1 G04      0.128700
     60 HN20        0.6070    4.3600    9.5720 hn        1 G04      0.493300
     61 H24        -0.3360    0.4150   10.6340 h1        1 G04      0.103700
     62 H25         2.7310    0.4180   10.9220 h1        1 G04      0.072700
     63 H25A        1.6490   -0.9000   10.2220 h1        1 G04      0.072700
     64 H27         0.5200   -1.0150   13.8390 h2        1 G04      0.129700
     65 H29         2.9220    2.1570   14.2610 h1        1 G04      0.076700
     66 H29A        1.5440    1.7950   15.4250 h1        1 G04      0.076700
     67 H30         1.3940    2.8950   12.6250 h1        1 G04      0.041700
     68 H31        -0.7780    0.8670   12.8970 hc        1 G04      0.125700
     69 H32         0.0230    5.7770    6.3670 hc        1 G04      0.094700
     70 H32A        1.5770    5.9670    7.2850 hc        1 G04      0.094700
     71 H35        -2.2040    8.0700   11.2520 ha        1 G04      0.166000
     72 H36        -3.4340    6.8820    9.4300 ha        1 G04      0.161500
     73 H37        -2.1740    5.7170    7.6270 ha        1 G04      0.137000
     74 H40         1.7750   -1.3760   -1.8950 h1        1 G04      0.085033
     75 H40A        0.3380   -2.0230   -2.8590 h1        1 G04      0.085033
     76 H40B        0.8170   -2.8280   -1.2670 h1        1 G04      0.085033
     77 H42        -0.8230    4.4420   15.0370 h1        1 G04      0.046367
     78 H42A        0.9060    3.9250   15.3890 h1        1 G04      0.046367
     79 H42B        0.5220    4.8200   13.8360 h1        1 G04      0.046367
     80 H33         1.5600    6.9310    9.4620 ha        1 G04      0.137000
     81 H111        1.1800    3.3550    3.1000 hn        1 G04      0.401800
     82 H202        2.0560    3.7720    8.9620 hn        1 G04      0.493300
     83 H34         0.2940    8.0840   11.2670 ha        1 G04      0.161500
@<TRIPOS>BOND
     1    1    2 ar  
     2    1    6 ar  
     3    1   38 1   
     4    2    3 ar  
     5    2   42 1   
     6    3    4 ar  
     7    3   43 1   
     8    4    5 ar  
     9    4    7 1   
    10    5    6 ar  
    11    5   44 1   
    12    6   45 1   
    13    7    8 1   
    14    7    9 1   
    15   10   11 1   
    16   10   15 1   
    17   10   81 1   
    18   11   12 1   
    19   11   46 1   
    20   11   47 1   
    21   12   13 1   
    22   12   14 1   
    23   12   48 1   
    24   13   49 1   
    25   13   50 1   
    26   13   51 1   
    27   14   52 1   
    28   14   53 1   
    29   14   54 1   
    30   15   16 1   
    31   15   55 1   
    32   15   56 1   
    33   16   17 1   
    34   16   18 1   
    35   16   57 1   
    36   17   58 1   
    37   18   19 1   
    38   18   31 1   
    39   18   59 1   
    40   19   20 1   
    41   19   60 1   
    42   19   82 1   
    43   20   21 2   
    44   20   22 1   
    45   22   23 1   
    46   23   24 1   
    47   23   30 1   
    48   23   61 1   
    49   24   25 1   
    50   24   62 1   
    51   24   63 1   
    52   25   26 1   
    53   26   27 1   
    54   26   30 1   
    55   26   64 1   
    56   27   28 1   
    57   28   29 1   
    58   28   65 1   
    59   28   66 1   
    60   29   30 1   
    61   29   40 1   
    62   29   67 1   
    63   30   68 1   
    64   31   37 1   
    65   31   69 1   
    66   31   70 1   
    67   32   33 ar  
    68   32   37 ar  
    69   32   80 1   
    70   33   34 ar  
    71   33   83 1   
    72   34   35 ar  
    73   34   71 1   
    74   35   36 ar  
    75   35   72 1   
    76   36   37 ar  
    77   36   73 1   
    78   38   39 1   
    79   39   74 1   
    80   39   75 1   
    81   39   76 1   
    82   40   41 1   
    83   41   77 1   
    84   41   78 1   
    85   41   79 1   
@<TRIPOS>SUBSTRUCTURE
     1 G04         1 TEMP              0 ****  ****    0 ROOT
