@<TRIPOS>MOLECULE
G04
   83    85     1     0     0
SMALL
bcc


@<TRIPOS>ATOM
      1 C2          0.7070    0.1500   -1.1470 ca        1 G04      0.311100
      2 C3          1.0540   -0.8980   -0.2520 ca        1 G04     -0.214000
      3 C4          0.7830   -0.7660    1.0840 ca        1 G04      0.067000
      4 C5          0.1490    0.3970    1.6280 ca        1 G04     -0.699500
      5 C6         -0.1700    1.4410    0.6970 ca        1 G04      0.067000
      6 C7          0.0910    1.3350   -0.6400 ca        1 G04     -0.214000
      7 S8         -0.2230    0.4980    3.1040 s4        1 G04      1.693300
      8 O9         -0.9760    1.5460    3.5290 o         1 G04     -0.440400
      9 O10         0.0240   -0.5690    3.9100 o         1 G04     -0.440400
     10 N11         1.7230    1.5500    4.5350 n3        1 G04     -0.896200
     11 C12         2.9750    1.9270    3.8780 c3        1 G04      0.125800
     12 C13         2.8140    2.6630    2.5380 c3        1 G04     -0.067700
     13 C14         2.2530    4.0570    2.7040 c3        1 G04     -0.103600
     14 C15         4.1730    2.7220    1.8670 c3        1 G04     -0.103600
     15 C16         1.1880    2.5540    5.4440 c3        1 G04      0.101800
     16 C17         1.6110    2.4160    6.9210 c3        1 G04      0.095100
     17 O18         2.9260    2.9020    7.1380 oh        1 G04     -0.617800
     18 C19         0.6830    3.2740    7.8220 c3        1 G04      0.149500
     19 N20         1.1560    3.2310    9.2580 n4        1 G04     -0.640800
     20 C21         0.7930    1.9630    9.9550 c         1 G04      0.623100
     21 O22         0.3110    0.9970    9.3780 o         1 G04     -0.441000
     22 O23         1.0770    2.0560   11.2680 os        1 G04     -0.389900
     23 C24         0.7560    0.8870   12.0880 c3        1 G04      0.128100
     24 C25         2.0130    0.0100   12.2410 c3        1 G04      0.104400
     25 O26         2.0390   -0.4370   13.5920 os        1 G04     -0.382600
     26 C27         1.2210    0.3930   14.4130 c3        1 G04      0.327900
     27 O28         2.1390    1.1470   15.1800 os        1 G04     -0.395600
     28 C29         1.8600    2.5460   15.0710 c3        1 G04      0.095400
     29 C30         0.8830    2.7610   13.9010 c3        1 G04      0.123100
     30 C31         0.4070    1.3530   13.5050 c3        1 G04     -0.129700
     31 C32         0.6090    4.7320    7.3420 c3        1 G04     -0.053100
     32 C33         0.5770    6.4710    9.1410 ca        1 G04     -0.131500
     33 C34        -0.1140    7.3260    9.9990 ca        1 G04     -0.112000
     34 C35        -1.5100    7.3190   10.0210 ca        1 G04     -0.090000
     35 C36        -2.2150    6.4570    9.1790 ca        1 G04     -0.112000
     36 C37        -1.5280    5.6030    8.3180 ca        1 G04     -0.131500
     37 C38        -0.1280    5.6030    8.2960 ca        1 G04     -0.177300
     38 O39         0.9130    0.1320   -2.4720 os        1 G04     -0.259900
     39 C40         1.5090   -1.0390   -3.0620 c3        1 G04      0.096700
     40 O41        -0.2840    3.4820   14.2760 os        1 G04     -0.415600
     41 C42        -0.0330    4.8340   14.6310 c3        1 G04      0.111700
     42 H3          1.5330   -1.8150   -0.6360 ha        1 G04      0.194000
     43 H4          1.0480   -1.5900    1.7770 ha        1 G04      0.174000
     44 H6         -0.6560    2.3580    1.0870 ha        1 G04      0.174000
     45 H7         -0.1690    2.1420   -1.3480 ha        1 G04      0.194000
     46 H12         3.6090    2.5750    4.5500 h1        1 G04      0.062200
     47 H12A        3.5570    0.9800    3.6800 h1        1 G04      0.062200
     48 H13         2.1180    2.0720    1.8770 hc        1 G04      0.027700
     49 H14         2.8420    4.6360    3.4560 hc        1 G04      0.051200
     50 H14A        2.3050    4.6070    1.7310 hc        1 G04      0.051200
     51 H14B        1.1840    4.0250    3.0260 hc        1 G04      0.051200
     52 H15         4.5810    1.6950    1.7040 hc        1 G04      0.051200
     53 H15A        4.0870    3.2300    0.8750 hc        1 G04      0.051200
     54 H15B        4.8970    3.2980    2.4930 hc        1 G04      0.051200
     55 H16         0.0620    2.4790    5.3950 h1        1 G04      0.096200
     56 H16A        1.4900    3.5830    5.0890 h1        1 G04      0.096200
     57 H17         1.5390    1.3380    7.2530 h1        1 G04      0.075700
     58 HO18        3.5420    2.3200    6.6720 ho        1 G04      0.442000
     59 H19        -0.3510    2.8130    7.8030 hx        1 G04      0.124700
     60 HN20        0.7420    4.0300    9.7730 hn        1 G04      0.492300
     61 H24        -0.0970    0.3340   11.6130 h1        1 G04      0.106700
     62 H25         2.9440    0.5970   12.0280 h1        1 G04      0.073700
     63 H25A        1.9720   -0.9130   11.6080 h1        1 G04      0.073700
     64 H27         0.6350   -0.2820   15.0900 h2        1 G04      0.128700
     65 H29         1.4110    2.8780   16.0440 h1        1 G04      0.076700
     66 H29A        2.8440    3.0510   14.9030 h1        1 G04      0.076700
     67 H30         1.3960    3.3000   13.0600 h1        1 G04      0.041700
     68 H31        -0.6950    1.2600   13.6880 hc        1 G04      0.124700
     69 H32         1.6480    5.1200    7.1650 hc        1 G04      0.094200
     70 H32A        0.0730    4.7250    6.3530 hc        1 G04      0.094200
     71 H35        -2.0550    8.0030   10.6920 ha        1 G04      0.165000
     72 H36        -3.3170    6.4600    9.1860 ha        1 G04      0.161000
     73 H37        -2.0900    4.9430    7.6390 ha        1 G04      0.137000
     74 H40         0.8600   -1.9290   -2.8850 h1        1 G04      0.084700
     75 H40A        1.5380   -0.7690   -4.1510 h1        1 G04      0.084700
     76 H40B        2.5380   -1.1890   -2.6560 h1        1 G04      0.084700
     77 H42         0.6820    4.9000   15.4870 h1        1 G04      0.045700
     78 H42A       -1.0390    5.2260   14.9290 h1        1 G04      0.045700
     79 H42B        0.3670    5.3980   13.7520 h1        1 G04      0.045700
     80 H33         1.6760    6.5140    9.1000 ha        1 G04      0.137000
     81 H111        1.8740    0.6910    5.0450 hn        1 G04      0.383800
     82 H202        2.1840    3.3330    9.2730 hn        1 G04      0.492300
     83 H34         0.4440    8.0200   10.6490 ha        1 G04      0.161000
@<TRIPOS>BOND
     1    1    2 ar  
     2    1    6 ar  
     3    1   38 1   
     4    2    3 ar  
     5    2   42 1   
     6    3    4 ar  
     7    3   43 1   
     8    4    5 ar  
     9    4    7 1   
    10    5    6 ar  
    11    5   44 1   
    12    6   45 1   
    13    7    8 1   
    14    7    9 1   
    15   10   11 1   
    16   10   15 1   
    17   10   81 1   
    18   11   12 1   
    19   11   46 1   
    20   11   47 1   
    21   12   13 1   
    22   12   14 1   
    23   12   48 1   
    24   13   49 1   
    25   13   50 1   
    26   13   51 1   
    27   14   52 1   
    28   14   53 1   
    29   14   54 1   
    30   15   16 1   
    31   15   55 1   
    32   15   56 1   
    33   16   17 1   
    34   16   18 1   
    35   16   57 1   
    36   17   58 1   
    37   18   19 1   
    38   18   31 1   
    39   18   59 1   
    40   19   20 1   
    41   19   60 1   
    42   19   82 1   
    43   20   21 2   
    44   20   22 1   
    45   22   23 1   
    46   23   24 1   
    47   23   30 1   
    48   23   61 1   
    49   24   25 1   
    50   24   62 1   
    51   24   63 1   
    52   25   26 1   
    53   26   27 1   
    54   26   30 1   
    55   26   64 1   
    56   27   28 1   
    57   28   29 1   
    58   28   65 1   
    59   28   66 1   
    60   29   30 1   
    61   29   40 1   
    62   29   67 1   
    63   30   68 1   
    64   31   37 1   
    65   31   69 1   
    66   31   70 1   
    67   32   33 ar  
    68   32   37 ar  
    69   32   80 1   
    70   33   34 ar  
    71   33   83 1   
    72   34   35 ar  
    73   34   71 1   
    74   35   36 ar  
    75   35   72 1   
    76   36   37 ar  
    77   36   73 1   
    78   38   39 1   
    79   39   74 1   
    80   39   75 1   
    81   39   76 1   
    82   40   41 1   
    83   41   77 1   
    84   41   78 1   
    85   41   79 1   
@<TRIPOS>SUBSTRUCTURE
     1 G04         1 TEMP              0 ****  ****    0 ROOT
