@<TRIPOS>MOLECULE
G04
   81    84     1     0     0
SMALL
bcc


@<TRIPOS>ATOM
      1 C2          5.3490    0.8870   -2.6710 ca        1 G04      0.191100
      2 C3          6.1230    0.2430   -1.6940 ca        1 G04     -0.211000
      3 C4          5.5030   -0.6360   -0.8140 ca        1 G04      0.017500
      4 C5          4.1290   -0.8900   -0.8790 ca        1 G04     -0.427500
      5 C6          3.3750   -0.2410   -1.8720 ca        1 G04      0.017500
      6 C7          3.9620    0.6410   -2.7630 ca        1 G04     -0.211000
      7 S8          3.4080   -1.9880    0.1670 sy        1 G04      1.512200
      8 O9          2.2210   -2.4620   -0.4350 o         1 G04     -0.653800
      9 O10         4.3600   -2.9610    0.5430 o         1 G04     -0.653800
     10 N11         3.0200   -1.0680    1.4690 n3        1 G04     -0.799500
     11 C12         3.6560   -1.2610    2.7460 c3        1 G04      0.221800
     12 C13         4.8900   -0.3830    3.0230 c3        1 G04     -0.086700
     13 C14         4.5350    1.0800    3.1510 c3        1 G04     -0.091600
     14 C15         5.5550   -0.8790    4.2910 c3        1 G04     -0.091600
     15 C16         1.9530   -0.1110    1.3990 c3        1 G04      0.198800
     16 C17         0.5430   -0.7060    1.6150 c3        1 G04      0.071100
     17 O18         0.3700   -1.2360    2.9120 oh        1 G04     -0.584800
     18 C19        -0.5370    0.3700    1.2940 c3        1 G04      0.071700
     19 N20        -1.8250   -0.2310    1.0040 n         1 G04     -0.506900
     20 C21        -2.1510   -0.4970   -0.3150 c         1 G04      0.735100
     21 O22        -1.6670    0.0010   -1.3430 o         1 G04     -0.577000
     22 O23        -3.2020   -1.3940   -0.4170 os        1 G04     -0.438900
     23 C24        -3.6900   -1.6760   -1.7320 c3        1 G04      0.130100
     24 C25        -3.9680   -3.1920   -1.7870 c3        1 G04      0.116400
     25 O26        -5.2100   -3.3800   -2.4660 os        1 G04     -0.418600
     26 C27        -5.9320   -2.1580   -2.5450 c3        1 G04      0.324900
     27 O28        -7.0450   -2.3300   -1.6840 os        1 G04     -0.414600
     28 C29        -6.9440   -1.4710   -0.5460 c3        1 G04      0.100400
     29 C30        -5.7890   -0.4800   -0.7800 c3        1 G04      0.117100
     30 C31        -5.0450   -1.0070   -2.0150 c3        1 G04     -0.132700
     31 C32        -0.6450    1.3750    2.4560 c3        1 G04     -0.041100
     32 C33        -2.6550    2.8270    2.7970 ca        1 G04     -0.121000
     33 C34        -3.4070    3.9620    2.4960 ca        1 G04     -0.126500
     34 C35        -2.9740    4.8480    1.5100 ca        1 G04     -0.127000
     35 C36        -1.7860    4.5950    0.8240 ca        1 G04     -0.126500
     36 C37        -1.0320    3.4630    1.1260 ca        1 G04     -0.121000
     37 C38        -1.4620    2.5690    2.1140 ca        1 G04     -0.077300
     38 O39         5.8420    1.7800   -3.5910 os        1 G04     -0.318900
     39 C40         7.2460    2.0220   -3.5560 c3        1 G04      0.109700
     40 O41        -6.2840    0.8140   -1.1240 os        1 G04     -0.414600
     41 C42        -6.6300    1.6000    0.0040 c3        1 G04      0.114700
     42 H3          7.2050    0.4190   -1.6220 ha        1 G04      0.153500
     43 H4          6.1110   -1.1600   -0.0530 ha        1 G04      0.157000
     44 H6          2.2940   -0.4590   -1.9540 ha        1 G04      0.157000
     45 H7          3.3740    1.1460   -3.5420 ha        1 G04      0.153500
     46 H12         2.9020   -1.0870    3.5660 h1        1 G04      0.062700
     47 H12A        3.9840   -2.3420    2.8120 h1        1 G04      0.062700
     48 H13         5.6190   -0.5020    2.1710 hc        1 G04      0.049700
     49 H14         5.4310    1.6680    3.4670 hc        1 G04      0.036700
     50 H14A        4.1780    1.4880    2.1750 hc        1 G04      0.036700
     51 H14B        3.7330    1.2270    3.9140 hc        1 G04      0.036700
     52 H15         5.8600   -1.9480    4.1820 hc        1 G04      0.036700
     53 H15A        6.4660   -0.2720    4.5100 hc        1 G04      0.036700
     54 H15B        4.8580   -0.7950    5.1590 hc        1 G04      0.036700
     55 H16         2.1240    0.7030    2.1600 h1        1 G04      0.056200
     56 H16A        1.9710    0.3650    0.3730 h1        1 G04      0.056200
     57 H17         0.4070   -1.6020    0.9350 h1        1 G04      0.119700
     58 HO18        0.6430   -0.5600    3.5460 ho        1 G04      0.396000
     59 H19        -0.2060    0.9310    0.3670 h1        1 G04      0.094700
     60 HN20       -2.1790   -0.8600    1.6910 hn        1 G04      0.323500
     61 H24        -2.9360   -1.3700   -2.5070 h1        1 G04      0.102700
     62 H25        -3.1960   -3.7370   -2.3850 h1        1 G04      0.066700
     63 H25A       -4.0490   -3.6280   -0.7590 h1        1 G04      0.066700
     64 H27        -6.3190   -2.0610   -3.5910 h2        1 G04      0.103700
     65 H29        -7.9310   -0.9500   -0.4540 h1        1 G04      0.057200
     66 H29A       -6.7520   -2.1120    0.3510 h1        1 G04      0.057200
     67 H30        -5.1250   -0.4120    0.1210 h1        1 G04      0.075700
     68 H31        -4.9310   -0.1910   -2.7710 hc        1 G04      0.107700
     69 H32        -1.0690    0.8630    3.3620 hc        1 G04      0.054200
     70 H32A        0.3970    1.7100    2.7130 hc        1 G04      0.054200
     71 H34        -4.3430    4.1590    3.0390 ha        1 G04      0.132500
     72 H35        -3.5680    5.7420    1.2710 ha        1 G04      0.133000
     73 H36        -1.4430    5.2890    0.0420 ha        1 G04      0.132500
     74 H37        -0.0960    3.2680    0.5810 ha        1 G04      0.129500
     75 H40         7.5410    2.4740   -2.5780 h1        1 G04      0.051367
     76 H40A        7.8130    1.0780   -3.7430 h1        1 G04      0.051367
     77 H40B        7.4010    2.7510   -4.3930 h1        1 G04      0.051367
     78 H42        -7.4320    1.1020    0.6020 h1        1 G04      0.035700
     79 H42A       -5.7330    1.7870    0.6450 h1        1 G04      0.035700
     80 H42B       -7.0060    2.5590   -0.4340 h1        1 G04      0.035700
     81 H33        -3.0040    2.1310    3.5750 ha        1 G04      0.129500
@<TRIPOS>BOND
     1    1    2 ar  
     2    1    6 ar  
     3    1   38 1   
     4    2    3 ar  
     5    2   42 1   
     6    3    4 ar  
     7    3   43 1   
     8    4    5 ar  
     9    4    7 1   
    10    5    6 ar  
    11    5   44 1   
    12    6   45 1   
    13    7    8 2   
    14    7    9 2   
    15    7   10 1   
    16   10   11 1   
    17   10   15 1   
    18   11   12 1   
    19   11   46 1   
    20   11   47 1   
    21   12   13 1   
    22   12   14 1   
    23   12   48 1   
    24   13   49 1   
    25   13   50 1   
    26   13   51 1   
    27   14   52 1   
    28   14   53 1   
    29   14   54 1   
    30   15   16 1   
    31   15   55 1   
    32   15   56 1   
    33   16   17 1   
    34   16   18 1   
    35   16   57 1   
    36   17   58 1   
    37   18   19 1   
    38   18   31 1   
    39   18   59 1   
    40   19   20 1   
    41   19   60 1   
    42   20   21 2   
    43   20   22 1   
    44   22   23 1   
    45   23   24 1   
    46   23   30 1   
    47   23   61 1   
    48   24   25 1   
    49   24   62 1   
    50   24   63 1   
    51   25   26 1   
    52   26   27 1   
    53   26   30 1   
    54   26   64 1   
    55   27   28 1   
    56   28   29 1   
    57   28   65 1   
    58   28   66 1   
    59   29   30 1   
    60   29   40 1   
    61   29   67 1   
    62   30   68 1   
    63   31   37 1   
    64   31   69 1   
    65   31   70 1   
    66   32   33 ar  
    67   32   37 ar  
    68   32   81 1   
    69   33   34 ar  
    70   33   71 1   
    71   34   35 ar  
    72   34   72 1   
    73   35   36 ar  
    74   35   73 1   
    75   36   37 ar  
    76   36   74 1   
    77   38   39 1   
    78   39   75 1   
    79   39   76 1   
    80   39   77 1   
    81   40   41 1   
    82   41   78 1   
    83   41   79 1   
    84   41   80 1   
@<TRIPOS>SUBSTRUCTURE
     1 G04         1 TEMP              0 ****  ****    0 ROOT
