@<TRIPOS>MOLECULE
G04
   83    85     1     0     0
SMALL
bcc


@<TRIPOS>ATOM
      1 C2          0.7330    0.0560   -1.1200 ca        1 G04      0.311100
      2 C3          1.0950   -0.9770   -0.2140 ca        1 G04     -0.214000
      3 C4          0.8250   -0.8340    1.1210 ca        1 G04      0.067000
      4 C5          0.1760    0.3260    1.6540 ca        1 G04     -0.699500
      5 C6         -0.1590    1.3550    0.7120 ca        1 G04      0.067000
      6 C7          0.1010    1.2380   -0.6240 ca        1 G04     -0.214000
      7 S8         -0.1940    0.4370    3.1300 s4        1 G04      1.693300
      8 O9         -0.9610    1.4800    3.5450 o         1 G04     -0.440400
      9 O10         0.0690   -0.6180    3.9460 o         1 G04     -0.440400
     10 N11         1.7400    1.5320    4.5440 n3        1 G04     -0.896200
     11 C12         2.9850    1.9190    3.8800 c3        1 G04      0.125800
     12 C13         2.8120    2.6380    2.5340 c3        1 G04     -0.067700
     13 C14         2.2320    4.0260    2.6850 c3        1 G04     -0.103600
     14 C15         4.1690    2.7080    1.8580 c3        1 G04     -0.103600
     15 C16         1.1930    2.5380    5.4430 c3        1 G04      0.101800
     16 C17         1.6210    2.4220    6.9210 c3        1 G04      0.095100
     17 O18         2.9300    2.9280    7.1300 oh        1 G04     -0.617800
     18 C19         0.6830    3.2770    7.8140 c3        1 G04      0.149500
     19 N20         1.1600    3.2560    9.2510 n4        1 G04     -0.640800
     20 C21         0.8160    1.9900    9.9610 c         1 G04      0.623100
     21 O22         0.3500    1.0100    9.3950 o         1 G04     -0.441000
     22 O23         1.0960    2.1030   11.2730 os        1 G04     -0.389900
     23 C24         0.7950    0.9380   12.1070 c3        1 G04      0.128100
     24 C25         2.0710    0.0940   12.2840 c3        1 G04      0.104400
     25 O26         2.0930   -0.3350   13.6410 os        1 G04     -0.382600
     26 C27         1.2470    0.4860   14.4420 c3        1 G04      0.327900
     27 O28         2.1390    1.2710   15.2100 os        1 G04     -0.395600
     28 C29         1.8300    2.6620   15.0790 c3        1 G04      0.095400
     29 C30         0.8620    2.8390   13.8950 c3        1 G04      0.123100
     30 C31         0.4200    1.4160   13.5140 c3        1 G04     -0.129700
     31 C32         0.5880    4.7280    7.3200 c3        1 G04     -0.053100
     32 C33         0.5360    6.4870    9.1000 ca        1 G04     -0.131500
     33 C34        -0.1640    7.3410    9.9500 ca        1 G04     -0.112000
     34 C35        -1.5600    7.3160    9.9740 ca        1 G04     -0.090000
     35 C36        -2.2550    6.4360    9.1430 ca        1 G04     -0.112000
     36 C37        -1.5580    5.5820    8.2900 ca        1 G04     -0.131500
     37 C38        -0.1580    5.6000    8.2660 ca        1 G04     -0.177300
     38 O39         0.9360    0.0260   -2.4440 os        1 G04     -0.259900
     39 C40         1.5470   -1.1420   -3.0230 c3        1 G04      0.096700
     40 O41        -0.3250    3.5390   14.2470 os        1 G04     -0.415600
     41 C42        -0.1080    4.9010   14.5870 c3        1 G04      0.111700
     42 H3          1.5860   -1.8910   -0.5890 ha        1 G04      0.194000
     43 H4          1.1030   -1.6470    1.8220 ha        1 G04      0.174000
     44 H6         -0.6570    2.2690    1.0930 ha        1 G04      0.174000
     45 H7         -0.1720    2.0330   -1.3410 ha        1 G04      0.194000
     46 H12         3.5800    0.9770    3.6920 h1        1 G04      0.062200
     47 H12A        3.6120    2.5830    4.5440 h1        1 G04      0.062200
     48 H13         2.1230    2.0300    1.8800 hc        1 G04      0.027700
     49 H14         1.1640    3.9820    3.0100 hc        1 G04      0.051200
     50 H14A        2.8140    4.6210    3.4300 hc        1 G04      0.051200
     51 H14B        2.2740    4.5660    1.7060 hc        1 G04      0.051200
     52 H15         4.8860    3.3010    2.4760 hc        1 G04      0.051200
     53 H15A        4.5910    1.6860    1.7060 hc        1 G04      0.051200
     54 H15B        4.0730    3.2040    0.8620 hc        1 G04      0.051200
     55 H16         1.4810    3.5670    5.0770 h1        1 G04      0.096200
     56 H16A        0.0680    2.4470    5.3980 h1        1 G04      0.096200
     57 H17         1.5650    1.3470    7.2650 h1        1 G04      0.075700
     58 HO18        3.5520    2.3500    6.6690 ho        1 G04      0.442000
     59 H19        -0.3440    2.8020    7.8030 hx        1 G04      0.124700
     60 HN20        0.7350    4.0550    9.7580 hn        1 G04      0.492300
     61 H24        -0.0410    0.3580   11.6320 h1        1 G04      0.106700
     62 H25         2.9890    0.7000   12.0720 h1        1 G04      0.073700
     63 H25A        2.0580   -0.8380   11.6630 h1        1 G04      0.073700
     64 H27         0.6700   -0.1930   15.1220 h2        1 G04      0.128700
     65 H29         2.8040    3.1870   14.9150 h1        1 G04      0.076700
     66 H29A        1.3620    2.9960   16.0420 h1        1 G04      0.076700
     67 H30         1.3730    3.3770   13.0520 h1        1 G04      0.041700
     68 H31        -0.6810    1.3010   13.6870 hc        1 G04      0.124700
     69 H32         1.6220    5.1280    7.1360 hc        1 G04      0.094200
     70 H32A        0.0500    4.7030    6.3320 hc        1 G04      0.094200
     71 H35        -2.1120    8.0010   10.6380 ha        1 G04      0.165000
     72 H36        -3.3570    6.4240    9.1520 ha        1 G04      0.161000
     73 H37        -2.1120    4.9070    7.6200 ha        1 G04      0.137000
     74 H40         2.5790   -1.2730   -2.6170 h1        1 G04      0.084700
     75 H40A        0.9110   -2.0390   -2.8350 h1        1 G04      0.084700
     76 H40B        1.5700   -0.8830   -4.1150 h1        1 G04      0.084700
     77 H42        -1.1250    5.2750   14.8670 h1        1 G04      0.045700
     78 H42A        0.2920    5.4620   13.7060 h1        1 G04      0.045700
     79 H42B        0.5950    4.9930   15.4510 h1        1 G04      0.045700
     80 H33         1.6350    6.5440    9.0550 ha        1 G04      0.137000
     81 H111        1.9040    0.6800    5.0630 hn        1 G04      0.383800
     82 H202        2.1860    3.3730    9.2620 hn        1 G04      0.492300
     83 H34         0.3850    8.0500   10.5910 ha        1 G04      0.161000
@<TRIPOS>BOND
     1    1    2 ar  
     2    1    6 ar  
     3    1   38 1   
     4    2    3 ar  
     5    2   42 1   
     6    3    4 ar  
     7    3   43 1   
     8    4    5 ar  
     9    4    7 1   
    10    5    6 ar  
    11    5   44 1   
    12    6   45 1   
    13    7    8 1   
    14    7    9 1   
    15   10   11 1   
    16   10   15 1   
    17   10   81 1   
    18   11   12 1   
    19   11   46 1   
    20   11   47 1   
    21   12   13 1   
    22   12   14 1   
    23   12   48 1   
    24   13   49 1   
    25   13   50 1   
    26   13   51 1   
    27   14   52 1   
    28   14   53 1   
    29   14   54 1   
    30   15   16 1   
    31   15   55 1   
    32   15   56 1   
    33   16   17 1   
    34   16   18 1   
    35   16   57 1   
    36   17   58 1   
    37   18   19 1   
    38   18   31 1   
    39   18   59 1   
    40   19   20 1   
    41   19   60 1   
    42   19   82 1   
    43   20   21 2   
    44   20   22 1   
    45   22   23 1   
    46   23   24 1   
    47   23   30 1   
    48   23   61 1   
    49   24   25 1   
    50   24   62 1   
    51   24   63 1   
    52   25   26 1   
    53   26   27 1   
    54   26   30 1   
    55   26   64 1   
    56   27   28 1   
    57   28   29 1   
    58   28   65 1   
    59   28   66 1   
    60   29   30 1   
    61   29   40 1   
    62   29   67 1   
    63   30   68 1   
    64   31   37 1   
    65   31   69 1   
    66   31   70 1   
    67   32   33 ar  
    68   32   37 ar  
    69   32   80 1   
    70   33   34 ar  
    71   33   83 1   
    72   34   35 ar  
    73   34   71 1   
    74   35   36 ar  
    75   35   72 1   
    76   36   37 ar  
    77   36   73 1   
    78   38   39 1   
    79   39   74 1   
    80   39   75 1   
    81   39   76 1   
    82   40   41 1   
    83   41   77 1   
    84   41   78 1   
    85   41   79 1   
@<TRIPOS>SUBSTRUCTURE
     1 G04         1 TEMP              0 ****  ****    0 ROOT
