@<TRIPOS>MOLECULE
G05
   80    83     1     0     0
SMALL
bcc


@<TRIPOS>ATOM
      1 C2         -2.2640   -3.5970    0.8830 ca        1 G05      0.185100
      2 O39        -1.6370   -4.8200    0.8290 os        1 G05     -0.321900
      3 C40        -2.4600   -5.9450    0.5330 c3        1 G05      0.110700
      4 C3         -1.4280   -2.5120    1.2150 ca        1 G05     -0.207000
      5 C4         -1.9740   -1.2410    1.2890 ca        1 G05      0.018500
      6 C5         -3.3350   -1.0090    1.0300 ca        1 G05     -0.434500
      7 C6         -4.1440   -2.1050    0.7030 ca        1 G05      0.018500
      8 C7         -3.6280   -3.3930    0.6280 ca        1 G05     -0.207000
      9 S8         -3.9910    0.5300    1.1500 sy        1 G05      1.510200
     10 O9         -5.4010    0.4170    1.1050 o         1 G05     -0.655300
     11 O10        -3.4500    1.1840    2.2800 o         1 G05     -0.655300
     12 N11        -3.4500    1.2830   -0.2030 n3        1 G05     -0.799500
     13 C12        -4.1200    1.1280   -1.4680 c3        1 G05      0.220800
     14 C13        -4.9330    2.3420   -1.9510 c3        1 G05     -0.079700
     15 C14        -5.5110    2.0200   -3.3130 c3        1 G05     -0.094600
     16 C15        -6.0320    2.7040   -0.9770 c3        1 G05     -0.094600
     17 C16        -2.2620    2.0870   -0.1960 c3        1 G05      0.193800
     18 C17        -1.0350    1.4350   -0.8730 c3        1 G05      0.075100
     19 O18        -1.0510    1.5990   -2.2770 oh        1 G05     -0.591800
     20 C19         0.2800    1.9860   -0.2520 c3        1 G05      0.070700
     21 N20         1.4450    1.2200   -0.6510 n         1 G05     -0.503900
     22 C21         1.6270   -0.0370   -0.1010 c         1 G05      0.734100
     23 O22         1.0810   -0.5110    0.9120 o         1 G05     -0.605000
     24 O23         2.5670   -0.7820   -0.7810 os        1 G05     -0.433900
     25 C24         2.9710   -2.0210   -0.1680 c3        1 G05      0.159100
     26 C25         3.4250   -2.9350   -1.3130 c3        1 G05     -0.109400
     27 C26         4.8810   -3.3250   -1.0370 c3        1 G05      0.114600
     28 O27         5.6660   -2.6380   -2.0130 os        1 G05     -0.407100
     29 C28         7.0330   -2.4960   -1.6510 c3        1 G05      0.093400
     30 C29         7.1520   -1.7940   -0.3080 c3        1 G05      0.093400
     31 O30         6.5090   -2.5600    0.7040 os        1 G05     -0.407100
     32 C31         5.1650   -2.9090    0.4220 c3        1 G05      0.114600
     33 C41         4.1740   -1.7900    0.7490 c3        1 G05     -0.109400
     34 C32         0.4490    3.4760   -0.5910 c3        1 G05     -0.041100
     35 C33         2.7110    4.5460   -0.4530 ca        1 G05     -0.121000
     36 C34         3.7250    5.1630    0.2790 ca        1 G05     -0.126000
     37 C35         3.5810    5.3550    1.6520 ca        1 G05     -0.127000
     38 C36         2.4180    4.9280    2.2940 ca        1 G05     -0.126000
     39 C37         1.4030    4.3130    1.5660 ca        1 G05     -0.121000
     40 C38         1.5430    4.1170    0.1860 ca        1 G05     -0.081300
     41 H40        -1.7430   -6.8040    0.5660 h1        1 G05      0.049700
     42 H40A       -3.2560   -6.0640    1.3070 h1        1 G05      0.049700
     43 H40B       -2.9100   -5.8440   -0.4840 h1        1 G05      0.049700
     44 H3         -0.3560   -2.6720    1.4070 ha        1 G05      0.156500
     45 H4         -1.3130   -0.3970    1.5640 ha        1 G05      0.160000
     46 H6         -5.2200   -1.9390    0.5100 ha        1 G05      0.160000
     47 H7         -4.2900   -4.2330    0.3750 ha        1 G05      0.156500
     48 H12        -3.3500    0.8870   -2.2600 h1        1 G05      0.057200
     49 H12A       -4.8240    0.2490   -1.3820 h1        1 G05      0.057200
     50 H13        -4.2400    3.2240   -2.0580 hc        1 G05      0.040700
     51 H14        -6.2250    1.1640   -3.2440 hc        1 G05      0.040200
     52 H14A       -6.0600    2.9050   -3.7160 hc        1 G05      0.040200
     53 H14B       -4.7000    1.7490   -4.0320 hc        1 G05      0.040200
     54 H15        -6.6130    1.7950   -0.6810 hc        1 G05      0.040200
     55 H15A       -5.6040    3.1560   -0.0500 hc        1 G05      0.040200
     56 H15B       -6.7310    3.4430   -1.4380 hc        1 G05      0.040200
     57 H16        -2.4760    3.0640   -0.7210 h1        1 G05      0.067200
     58 H16A       -1.9970    2.3240    0.8770 h1        1 G05      0.067200
     59 H17        -1.0570    0.3130   -0.7330 h1        1 G05      0.097700
     60 HO18       -1.1730    2.5390   -2.4620 ho        1 G05      0.399000
     61 H19         0.1890    1.8770    0.8740 h1        1 G05      0.095700
     62 HN20        1.7720    1.3550   -1.5830 hn        1 G05      0.322500
     63 H24         2.1050   -2.4620    0.3950 h1        1 G05      0.081700
     64 H25         2.7830   -3.8470   -1.3530 hc        1 G05      0.074700
     65 H25A        3.3480   -2.4010   -2.2960 hc        1 G05      0.074700
     66 H26         5.0560   -4.4260   -1.1710 h1        1 G05      0.066200
     67 H28         7.5220   -3.5050   -1.6160 h1        1 G05      0.059700
     68 H28A        7.4730   -1.8790   -2.4770 h1        1 G05      0.059700
     69 H29         8.2180   -1.7340    0.0320 h1        1 G05      0.059700
     70 H29A        6.6990   -0.7690   -0.3560 h1        1 G05      0.059700
     71 H31         4.9870   -3.7930    1.1000 h1        1 G05      0.066200
     72 H41         4.6330   -0.7900    0.5460 hc        1 G05      0.074700
     73 H41A        3.8730   -1.8210    1.8230 hc        1 G05      0.074700
     74 H32         0.6310    3.5990   -1.6930 hc        1 G05      0.055700
     75 H32A       -0.5210    3.9900   -0.3490 hc        1 G05      0.055700
     76 H34         4.6410    5.4970   -0.2310 ha        1 G05      0.133500
     77 H35         4.3820    5.8400    2.2280 ha        1 G05      0.133000
     78 H36         2.3020    5.0760    3.3780 ha        1 G05      0.133500
     79 H37         0.4870    3.9760    2.0760 ha        1 G05      0.131000
     80 H33         2.8320    4.3960   -1.5360 ha        1 G05      0.131000
@<TRIPOS>BOND
     1    1    2 1   
     2    1    4 ar  
     3    1    8 ar  
     4    2    3 1   
     5    3   41 1   
     6    3   42 1   
     7    3   43 1   
     8    4    5 ar  
     9    4   44 1   
    10    5    6 ar  
    11    5   45 1   
    12    6    7 ar  
    13    6    9 1   
    14    7    8 ar  
    15    7   46 1   
    16    8   47 1   
    17    9   10 2   
    18    9   11 2   
    19    9   12 1   
    20   12   13 1   
    21   12   17 1   
    22   13   14 1   
    23   13   48 1   
    24   13   49 1   
    25   14   15 1   
    26   14   16 1   
    27   14   50 1   
    28   15   51 1   
    29   15   52 1   
    30   15   53 1   
    31   16   54 1   
    32   16   55 1   
    33   16   56 1   
    34   17   18 1   
    35   17   57 1   
    36   17   58 1   
    37   18   19 1   
    38   18   20 1   
    39   18   59 1   
    40   19   60 1   
    41   20   21 1   
    42   20   34 1   
    43   20   61 1   
    44   21   22 1   
    45   21   62 1   
    46   22   23 2   
    47   22   24 1   
    48   24   25 1   
    49   25   26 1   
    50   25   33 1   
    51   25   63 1   
    52   26   27 1   
    53   26   64 1   
    54   26   65 1   
    55   27   28 1   
    56   27   32 1   
    57   27   66 1   
    58   28   29 1   
    59   29   30 1   
    60   29   67 1   
    61   29   68 1   
    62   30   31 1   
    63   30   69 1   
    64   30   70 1   
    65   31   32 1   
    66   32   33 1   
    67   32   71 1   
    68   33   72 1   
    69   33   73 1   
    70   34   40 1   
    71   34   74 1   
    72   34   75 1   
    73   35   36 ar  
    74   35   40 ar  
    75   35   80 1   
    76   36   37 ar  
    77   36   76 1   
    78   37   38 ar  
    79   37   77 1   
    80   38   39 ar  
    81   38   78 1   
    82   39   40 ar  
    83   39   79 1   
@<TRIPOS>SUBSTRUCTURE
     1 G05         1 TEMP              0 ****  ****    0 ROOT
