@<TRIPOS>MOLECULE
G05
   80    76     1     0     0
SMALL
bcc


@<TRIPOS>ATOM
      1 C2         -1.8490   -3.1690   -6.6290 c1        1 G05      0.144000
      2 O39        -1.7980   -3.3570   -8.0520 o         1 G05     -0.202000
      3 C40        -2.6060   -2.4510   -8.7800 c3        1 G05     -0.080000
      4 C3         -0.8820   -2.4140   -6.0000 c2        1 G05     -0.182000
      5 C4         -0.8910   -2.2870   -4.6010 c1        1 G05      0.017000
      6 C5         -1.8730   -2.9220   -3.8510 c1        1 G05     -0.879000
      7 C6         -2.8400   -3.6770   -4.4770 c1        1 G05      0.020000
      8 C7         -2.8350   -3.8060   -5.8740 c1        1 G05     -0.239000
      9 S8         -1.9190   -2.7060   -2.0710 s4        1 G05      2.065800
     10 O9         -2.7020   -3.7680   -1.4190 o         1 G05     -0.550900
     11 O10        -2.7010   -1.5010   -1.6990 o         1 G05     -0.550900
     12 N11        -0.3790   -2.6300   -1.4660 n2        1 G05     -0.824000
     13 C12         0.4770   -3.8810   -1.3930 c3        1 G05     -0.011000
     14 C13        -0.3940   -5.0770   -0.9690 c3        1 G05     -0.123000
     15 C14        -0.0410   -6.3200   -1.8420 c3        1 G05     -0.215000
     16 C15        -0.1360   -5.4020    0.5020 c3        1 G05     -0.215000
     17 C16         0.1910   -1.3370   -1.0980 c3        1 G05     -0.043000
     18 C17        -0.3760   -0.8950    0.2310 c3        1 G05     -0.021000
     19 O18        -0.5560   -2.0030    1.0490 oh        1 G05     -0.334000
     20 C19         0.6010    0.0840    0.9020 c3        1 G05      0.041000
     21 N20        -0.1450    1.0600    1.6810 n         1 G05     -0.328000
     22 C21        -0.0760    2.4690    1.3290 c2        1 G05      0.393000
     23 O22         0.3150    2.8040    0.2050 o         1 G05     -0.425000
     24 O23        -0.6090    3.4690    2.2380 os        1 G05     -0.273000
     25 C24        -0.4810    4.6850    1.8130 c3        1 G05      0.049000
     26 C25        -1.7910    5.5410    2.1630 c3        1 G05     -0.188000
     27 C26        -1.4170    6.3160    3.1480 c3        1 G05      0.003000
     28 O27        -1.7560    5.5820    4.3450 os        1 G05     -0.263500
     29 C28        -1.2370    6.0730    5.4540 c3        1 G05     -0.057000
     30 C29         0.2650    6.3030    5.3960 c3        1 G05     -0.057000
     31 O30         0.6770    7.0660    4.2930 os        1 G05     -0.263500
     32 C31         0.2180    6.5360    2.9320 c3        1 G05      0.003000
     33 C41         0.7120    5.4150    2.5710 c3        1 G05     -0.188000
     34 C32         1.5180   -0.6630    1.7860 c3        1 G05     -0.126000
     35 C33         3.7630    0.8570    1.3270 c1        1 G05     -0.126000
     36 C34         5.0540    1.0580    1.8880 c1        1 G05     -0.126000
     37 C35         5.3280    0.6070    3.1460 c1        1 G05     -0.126000
     38 C36         4.3420   -0.0520    3.8830 c1        1 G05     -0.126000
     39 C37         3.0560   -0.2540    3.3260 c1        1 G05     -0.126000
     40 C38         2.7770    0.1960    2.0670 c1        1 G05     -0.073000
     41 H40        -2.2430   -2.3180   -9.6100 h1        1 G05      0.089333
     42 H40A       -2.6520   -1.5870   -8.2980 h1        1 G05      0.089333
     43 H40B       -3.5590   -2.8420   -8.8800 h1        1 G05      0.089333
     44 H3         -0.1790   -1.9620   -6.5350 ha        1 G05      0.165000
     45 H4         -0.2550   -1.7890   -4.1870 ha        1 G05      0.168000
     46 H6         -3.5010   -4.1050   -3.9680 ha        1 G05      0.158000
     47 H7         -3.5630   -4.3740   -6.3440 ha        1 G05      0.145000
     48 H12         0.8720   -4.0570   -2.2670 h1        1 G05      0.092500
     49 H12A        1.1370   -3.7560   -0.7830 h1        1 G05      0.092500
     50 H13        -1.2830   -4.8630   -1.0830 hc        1 G05      0.101000
     51 H14        -0.5890   -7.0360   -1.6000 hc        1 G05      0.077833
     52 H14A        0.9040   -6.5650   -1.6970 hc        1 G05      0.077833
     53 H14B       -0.1810   -6.1080   -2.7840 hc        1 G05      0.077833
     54 H15        -0.6910   -4.8150    1.0680 hc        1 G05      0.077833
     55 H15A        0.7350   -5.2700    0.6920 hc        1 G05      0.077833
     56 H15B       -0.3520   -6.2750    0.6640 hc        1 G05      0.077833
     57 H16        -0.0190   -0.7110   -1.7500 h1        1 G05      0.094500
     58 H16A        1.1650   -1.4180   -1.0240 h1        1 G05      0.094500
     59 H17        -1.3000   -0.4210    0.0780 h1        1 G05      0.113000
     60 HO18       -1.2020   -1.8400    1.6240 ho        1 G05      0.233000
     61 H19         1.1340    0.5580    0.1980 h1        1 G05      0.114000
     62 HN20       -0.7680    0.7640    2.3490 hn        1 G05      0.242000
     63 H24        -0.3250    4.6930    0.8760 h1        1 G05      0.122000
     64 H25        -2.0600    6.0660    1.4070 hc        1 G05      0.113750
     65 H25A       -2.5620    4.9160    2.4640 hc        1 G05      0.113750
     66 H26        -1.9220    7.2270    3.1170 h1        1 G05      0.105000
     67 H28        -1.6910    6.9540    5.6540 h1        1 G05      0.098750
     68 H28A       -1.4190    5.4820    6.1520 h1        1 G05      0.098750
     69 H29         0.5540    6.7710    6.2330 h1        1 G05      0.098750
     70 H29A        0.7000    5.4440    5.3560 h1        1 G05      0.098750
     71 H31         0.3780    7.2230    2.2290 h1        1 G05      0.105000
     72 H41         1.4740    5.5520    1.9580 hc        1 G05      0.113750
     73 H41A        0.9910    4.8960    3.3560 hc        1 G05      0.113750
     74 H32         1.7870   -1.5030    1.3480 hc        1 G05      0.110500
     75 H32A        1.0380   -0.8760    2.6750 hc        1 G05      0.110500
     76 H33         3.5520    1.2030    0.3630 ha        1 G05      0.128000
     77 H34         5.7510    1.5230    1.3690 ha        1 G05      0.131500
     78 H35         6.2250    0.7480    3.5360 ha        1 G05      0.131500
     79 H36         4.5350   -0.3670    4.7590 ha        1 G05      0.131500
     80 H37         2.3800   -0.7070    3.8330 ha        1 G05      0.131500
@<TRIPOS>BOND
     1    1    4 1   
     2    1    8 1   
     3    2    3 1   
     4    3   41 1   
     5    3   42 1   
     6    3   43 1   
     7    4    5 1   
     8    4   44 1   
     9    5   45 1   
    10    6    7 1   
    11    6    9 1   
    12    7   46 1   
    13    8   47 1   
    14    9   10 1   
    15    9   11 1   
    16   12   13 1   
    17   12   17 1   
    18   13   14 1   
    19   13   48 1   
    20   13   49 1   
    21   14   15 1   
    22   14   16 1   
    23   14   50 1   
    24   15   51 1   
    25   15   52 1   
    26   15   53 1   
    27   16   54 1   
    28   16   55 1   
    29   16   56 1   
    30   17   18 1   
    31   17   57 1   
    32   17   58 1   
    33   18   19 1   
    34   18   20 1   
    35   18   59 1   
    36   19   60 1   
    37   20   21 1   
    38   20   34 1   
    39   20   61 1   
    40   21   22 1   
    41   21   62 1   
    42   22   23 1   
    43   22   24 1   
    44   24   25 1   
    45   25   26 1   
    46   25   33 1   
    47   25   63 1   
    48   26   27 1   
    49   26   64 1   
    50   26   65 1   
    51   27   28 1   
    52   27   32 1   
    53   27   66 1   
    54   28   29 1   
    55   29   30 1   
    56   29   67 1   
    57   29   68 1   
    58   30   31 1   
    59   30   69 1   
    60   30   70 1   
    61   31   32 1   
    62   32   33 1   
    63   32   71 1   
    64   33   72 1   
    65   33   73 1   
    66   34   40 1   
    67   34   74 1   
    68   34   75 1   
    69   35   40 1   
    70   35   76 1   
    71   36   37 1   
    72   36   77 1   
    73   37   78 1   
    74   38   39 1   
    75   38   79 1   
    76   39   80 1   
@<TRIPOS>SUBSTRUCTURE
     1 G05         1 TEMP              0 ****  ****    0 ROOT
