@<TRIPOS>MOLECULE
G05
   82    84     1     0     0
SMALL
bcc


@<TRIPOS>ATOM
      1 C2         -1.4400   -2.4360    2.4480 ca        1 G05      0.308100
      2 O39        -2.6380   -3.0390    2.4230 os        1 G05     -0.260900
      3 C40        -3.3010   -3.3070    3.6730 c3        1 G05      0.096700
      4 C3         -0.8330   -2.2280    1.1720 ca        1 G05     -0.214500
      5 C4          0.3940   -1.6330    1.0970 ca        1 G05      0.065500
      6 C5          1.1110   -1.1990    2.2620 ca        1 G05     -0.696500
      7 C6          0.4630   -1.4090    3.5190 ca        1 G05      0.065500
      8 C7         -0.7660   -2.0080    3.6220 ca        1 G05     -0.214500
      9 S8          2.5150   -0.6070    2.1570 s4        1 G05      1.691300
     10 O9          3.2030   -0.3220    3.2930 o         1 G05     -0.441900
     11 O10         3.1250   -0.5890    0.9410 o         1 G05     -0.441900
     12 N11         2.2460    1.9170    1.7300 n3        1 G05     -0.889200
     13 C12         1.0330    2.6350    2.1220 c3        1 G05      0.121800
     14 C13         0.8920    3.0310    3.5970 c3        1 G05     -0.065700
     15 C14        -0.4240    3.7700    3.7620 c3        1 G05     -0.106600
     16 C15         0.9470    1.8460    4.5320 c3        1 G05     -0.106600
     17 C16         3.5020    2.5350    2.1250 c3        1 G05      0.109800
     18 C17         3.9100    3.7860    1.3270 c3        1 G05      0.090100
     19 O18         3.0540    4.8880    1.5350 oh        1 G05     -0.595800
     20 C19         5.3780    4.1830    1.6440 c3        1 G05      0.107500
     21 N20         5.7550    5.4110    0.8510 n4        1 G05     -0.643800
     22 C21         6.1610    5.0960   -0.5550 c         1 G05      0.630100
     23 O22         5.7840    4.0870   -1.1390 o         1 G05     -0.452000
     24 O23         6.9810    6.0450   -1.0200 os        1 G05     -0.397900
     25 C24         7.3130    6.0050   -2.4620 c3        1 G05      0.174100
     26 C25         6.0800    6.3150   -3.3050 c3        1 G05     -0.116900
     27 C26         6.1380    7.8140   -3.6170 c3        1 G05      0.112100
     28 O27         5.3720    8.4610   -2.6010 os        1 G05     -0.408600
     29 C28         5.6450    9.8580   -2.5120 c3        1 G05      0.090900
     30 C29         7.1190   10.0740   -2.2090 c3        1 G05      0.090900
     31 O30         7.9330    9.5090   -3.2310 os        1 G05     -0.408600
     32 C31         7.6400    8.1710   -3.5750 c3        1 G05      0.112100
     33 C41         8.3010    7.1570   -2.6280 c3        1 G05     -0.116900
     34 C32         5.6020    4.4230    3.1440 c3        1 G05     -0.052100
     35 C33         7.1290    6.3290    3.6970 ca        1 G05     -0.131500
     36 C34         8.3920    6.8280    4.0110 ca        1 G05     -0.110500
     37 C35         9.4910    5.9680    4.0660 ca        1 G05     -0.090000
     38 C36         9.3230    4.6060    3.8100 ca        1 G05     -0.110500
     39 C37         8.0600    4.1030    3.4970 ca        1 G05     -0.131500
     40 C38         6.9570    4.9630    3.4350 ca        1 G05     -0.172300
     41 H40        -4.2440   -3.8160    3.3380 h1        1 G05      0.084033
     42 H40A       -3.5250   -2.3490    4.1990 h1        1 G05      0.084033
     43 H40B       -2.6760   -3.9880    4.2990 h1        1 G05      0.084033
     44 H3         -1.3720   -2.5650    0.2680 ha        1 G05      0.193500
     45 H4          0.8690   -1.4880    0.1060 ha        1 G05      0.174000
     46 H6          0.9870   -1.0790    4.4390 ha        1 G05      0.174000
     47 H7         -1.2280   -2.1640    4.6120 ha        1 G05      0.193500
     48 H12         0.9320    3.5840    1.5120 h1        1 G05      0.068200
     49 H12A        0.1680    1.9630    1.8510 h1        1 G05      0.068200
     50 H13         1.7240    3.7400    3.8700 hc        1 G05      0.037700
     51 H14        -0.4610    4.6660    3.0960 hc        1 G05      0.050033
     52 H14A       -1.2850    3.1060    3.5120 hc        1 G05      0.050033
     53 H14B       -0.5380    4.1110    4.8200 hc        1 G05      0.050033
     54 H15         0.7670    2.1840    5.5830 hc        1 G05      0.050033
     55 H15A        0.1560    1.1010    4.2680 hc        1 G05      0.050033
     56 H15B        1.9450    1.3450    4.4950 hc        1 G05      0.050033
     57 H16         3.4550    2.7830    3.2230 h1        1 G05      0.086700
     58 H16A        4.3100    1.7570    1.9800 h1        1 G05      0.086700
     59 H17         3.8310    3.5790    0.2140 h1        1 G05      0.116700
     60 HO18        2.8220    4.9330    2.4740 ho        1 G05      0.428000
     61 H19         6.0570    3.3460    1.2970 hx        1 G05      0.123700
     62 HN20        6.5330    5.9030    1.3270 hn        1 G05      0.488300
     63 H24         7.7440    4.9910   -2.6630 h1        1 G05      0.093700
     64 H25         6.1210    5.7280   -4.2580 hc        1 G05      0.088700
     65 H25A        5.1340    6.0540   -2.7700 hc        1 G05      0.088700
     66 H26         5.6890    8.0610   -4.6150 h1        1 G05      0.095200
     67 H28         4.9950   10.2150   -1.6720 h1        1 G05      0.069950
     68 H28A        5.3540   10.3640   -3.4700 h1        1 G05      0.069950
     69 H29         7.3910    9.6210   -1.2200 h1        1 G05      0.069950
     70 H29A        7.3870   11.1640   -2.2250 h1        1 G05      0.069950
     71 H31         8.0810    8.0720   -4.6100 h1        1 G05      0.095200
     72 H41         9.2620    6.7780   -3.0570 hc        1 G05      0.088700
     73 H41A        8.5320    7.6390   -1.6420 hc        1 G05      0.088700
     74 H32         5.4780    3.4300    3.6580 hc        1 G05      0.082200
     75 H32A        4.8120    5.1150    3.5400 hc        1 G05      0.082200
     76 H35        10.4870    6.3620    4.3240 ha        1 G05      0.165000
     77 H36        10.1870    3.9240    3.8660 ha        1 G05      0.161500
     78 H37         7.9310    3.0250    3.3170 ha        1 G05      0.135000
     79 H33         6.2620    7.0070    3.6970 ha        1 G05      0.135000
     80 H111        2.2350    1.8410    0.7190 hn        1 G05      0.387800
     81 H202        4.9400    6.0450    0.8110 hn        1 G05      0.488300
     82 H34         8.5210    7.9000    4.2300 ha        1 G05      0.161500
@<TRIPOS>BOND
     1    1    2 1   
     2    1    4 ar  
     3    1    8 ar  
     4    2    3 1   
     5    3   41 1   
     6    3   42 1   
     7    3   43 1   
     8    4    5 ar  
     9    4   44 1   
    10    5    6 ar  
    11    5   45 1   
    12    6    7 ar  
    13    6    9 1   
    14    7    8 ar  
    15    7   46 1   
    16    8   47 1   
    17    9   10 1   
    18    9   11 1   
    19   12   13 1   
    20   12   17 1   
    21   12   80 1   
    22   13   14 1   
    23   13   48 1   
    24   13   49 1   
    25   14   15 1   
    26   14   16 1   
    27   14   50 1   
    28   15   51 1   
    29   15   52 1   
    30   15   53 1   
    31   16   54 1   
    32   16   55 1   
    33   16   56 1   
    34   17   18 1   
    35   17   57 1   
    36   17   58 1   
    37   18   19 1   
    38   18   20 1   
    39   18   59 1   
    40   19   60 1   
    41   20   21 1   
    42   20   34 1   
    43   20   61 1   
    44   21   22 1   
    45   21   62 1   
    46   21   81 1   
    47   22   23 2   
    48   22   24 1   
    49   24   25 1   
    50   25   26 1   
    51   25   33 1   
    52   25   63 1   
    53   26   27 1   
    54   26   64 1   
    55   26   65 1   
    56   27   28 1   
    57   27   32 1   
    58   27   66 1   
    59   28   29 1   
    60   29   30 1   
    61   29   67 1   
    62   29   68 1   
    63   30   31 1   
    64   30   69 1   
    65   30   70 1   
    66   31   32 1   
    67   32   33 1   
    68   32   71 1   
    69   33   72 1   
    70   33   73 1   
    71   34   40 1   
    72   34   74 1   
    73   34   75 1   
    74   35   36 ar  
    75   35   40 ar  
    76   35   79 1   
    77   36   37 ar  
    78   36   82 1   
    79   37   38 ar  
    80   37   76 1   
    81   38   39 ar  
    82   38   77 1   
    83   39   40 ar  
    84   39   78 1   
@<TRIPOS>SUBSTRUCTURE
     1 G05         1 TEMP              0 ****  ****    0 ROOT
