@<TRIPOS>MOLECULE
G05
   82    84     1     0     0
SMALL
bcc


@<TRIPOS>ATOM
      1 C2         -1.4850   -2.4000    2.4050 ca        1 G05      0.308100
      2 O39        -2.6830   -3.0010    2.3530 os        1 G05     -0.260900
      3 C40        -3.3880   -3.2400    3.5850 c3        1 G05      0.096700
      4 C3         -0.8360   -2.2200    1.1450 ca        1 G05     -0.214500
      5 C4          0.3960   -1.6290    1.0990 ca        1 G05      0.065500
      6 C5          1.0740   -1.1720    2.2770 ca        1 G05     -0.696500
      7 C6          0.3840   -1.3530    3.5170 ca        1 G05      0.065500
      8 C7         -0.8490   -1.9480    3.5920 ca        1 G05     -0.214500
      9 S8          2.4820   -0.5850    2.2070 s4        1 G05      1.691300
     10 O9          3.1330   -0.2760    3.3580 o         1 G05     -0.441900
     11 O10         3.1320   -0.5940    1.0120 o         1 G05     -0.441900
     12 N11         2.2330    1.9300    1.7160 n7        1 G05     -0.889200
     13 C12         1.0100    2.6590    2.0530 c3        1 G05      0.121800
     14 C13         0.8220    3.0860    3.5140 c3        1 G05     -0.065700
     15 C14        -0.4960    3.8320    3.6210 c3        1 G05     -0.106600
     16 C15         0.8440    1.9220    4.4760 c3        1 G05     -0.106600
     17 C16         3.4780    2.5540    2.1380 c3        1 G05      0.109800
     18 C17         3.9140    3.7870    1.3270 c3        1 G05      0.090100
     19 O18         3.0540    4.8950    1.4840 oh        1 G05     -0.595800
     20 C19         5.3720    4.1880    1.6830 c3        1 G05      0.107500
     21 N20         5.7770    5.3990    0.8760 ny        1 G05     -0.643800
     22 C21         6.2270    5.0520   -0.5100 c         1 G05      0.630100
     23 O22         5.8690    4.0300   -1.0820 o         1 G05     -0.452000
     24 O23         7.0610    5.9920   -0.9700 os        1 G05     -0.397900
     25 C24         7.4380    5.9190   -2.3990 c3        1 G05      0.174100
     26 C25         6.2320    6.2080   -3.2870 c3        1 G05     -0.116900
     27 C26         6.2980    7.6990   -3.6320 c3        1 G05      0.112100
     28 O27         5.5000    8.3680   -2.6550 os        1 G05     -0.408600
     29 C28         5.7680    9.7680   -2.5900 c3        1 G05      0.090900
     30 C29         7.2310    9.9930   -2.2450 c3        1 G05      0.090900
     31 O30         8.0780    9.4070   -3.2280 os        1 G05     -0.408600
     32 C31         7.7980    8.0600   -3.5500 c3        1 G05      0.112100
     33 C41         8.4300    7.0690   -2.5600 c3        1 G05     -0.116900
     34 C32         5.5490    4.4600    3.1830 c3        1 G05     -0.052100
     35 C33         7.0610    6.3750    3.7440 ca        1 G05     -0.131500
     36 C34         8.3150    6.8780    4.0870 ca        1 G05     -0.110500
     37 C35         9.4090    6.0180    4.1970 ca        1 G05     -0.090000
     38 C36         9.2460    4.6510    3.9640 ca        1 G05     -0.110500
     39 C37         7.9930    4.1440    3.6220 ca        1 G05     -0.131500
     40 C38         6.8950    5.0040    3.5060 ca        1 G05     -0.172300
     41 H40        -4.3210   -3.7550    3.2310 h1        1 G05      0.084033
     42 H40A       -3.6270   -2.2700    4.0830 h1        1 G05      0.084033
     43 H40B       -2.7870   -3.9080    4.2470 h1        1 G05      0.084033
     44 H3         -1.3450   -2.5760    0.2320 ha        1 G05      0.193500
     45 H4          0.9030   -1.5070    0.1210 ha        1 G05      0.174000
     46 H6          0.8780   -1.0040    4.4460 ha        1 G05      0.174000
     47 H7         -1.3450   -2.0810    4.5680 ha        1 G05      0.193500
     48 H12         0.1520    1.9820    1.7690 h1        1 G05      0.068200
     49 H12A        0.9320    3.5940    1.4200 h1        1 G05      0.068200
     50 H13         1.6470    3.8000    3.7990 hc        1 G05      0.037700
     51 H14        -1.3510    3.1630    3.3570 hc        1 G05      0.050200
     52 H14A       -0.6430    4.1950    4.6670 hc        1 G05      0.050200
     53 H14B       -0.5090    4.7130    2.9350 hc        1 G05      0.050200
     54 H15         0.0600    1.1730    4.2030 hc        1 G05      0.050200
     55 H15A        1.8410    1.4190    4.4820 hc        1 G05      0.050200
     56 H15B        0.6310    2.2830    5.5130 hc        1 G05      0.050200
     57 H16         4.2880    1.7720    2.0360 h1        1 G05      0.086700
     58 H16A        3.3960    2.8260    3.2290 h1        1 G05      0.086700
     59 H17         3.8700    3.5560    0.2170 h1        1 G05      0.116700
     60 HO18        2.7920    4.9600    2.4130 ho        1 G05      0.428000
     61 H19         6.0590    3.3430    1.3750 hx        1 G05      0.123700
     62 HN20        4.9650    6.0320    0.7960 hn        1 G05      0.488300
     63 H24         7.8760    4.9020   -2.5630 h1        1 G05      0.093700
     64 H25         5.2690    5.9570   -2.7760 hc        1 G05      0.088700
     65 H25A        6.3040    5.6000   -4.2250 hc        1 G05      0.088700
     66 H26         5.8810    7.9230   -4.6490 h1        1 G05      0.095200
     67 H28         5.0910   10.1420   -1.7790 h1        1 G05      0.069950
     68 H28A        5.5070   10.2500   -3.5670 h1        1 G05      0.069950
     69 H29         7.4990   11.0830   -2.2770 h1        1 G05      0.069950
     70 H29A        7.4730    9.5630   -1.2380 h1        1 G05      0.069950
     71 H31         8.2710    7.9380   -4.5680 h1        1 G05      0.095200
     72 H41         9.4040    6.6830   -2.9500 hc        1 G05      0.088700
     73 H41A        8.6280    7.5740   -1.5790 hc        1 G05      0.088700
     74 H32         5.4050    3.4790    3.7150 hc        1 G05      0.082200
     75 H32A        4.7470    5.1620    3.5390 hc        1 G05      0.082200
     76 H35        10.3980    6.4160    4.4780 ha        1 G05      0.165000
     77 H36        10.1060    3.9690    4.0630 ha        1 G05      0.161500
     78 H37         7.8670    3.0620    3.4610 ha        1 G05      0.135000
     79 H33         6.1960    7.0550    3.7020 ha        1 G05      0.135000
     80 H111        2.2550    1.8320    0.7080 hn        1 G05      0.387800
     81 H202        6.5400    5.8990    1.3650 hn        1 G05      0.488300
     82 H34         8.4390    7.9550    4.2870 ha        1 G05      0.161500
@<TRIPOS>BOND
     1    1    2 1   
     2    1    4 ar  
     3    1    8 ar  
     4    2    3 1   
     5    3   41 1   
     6    3   42 1   
     7    3   43 1   
     8    4    5 ar  
     9    4   44 1   
    10    5    6 ar  
    11    5   45 1   
    12    6    7 ar  
    13    6    9 1   
    14    7    8 ar  
    15    7   46 1   
    16    8   47 1   
    17    9   10 1   
    18    9   11 1   
    19   12   13 1   
    20   12   17 1   
    21   12   80 1   
    22   13   14 1   
    23   13   48 1   
    24   13   49 1   
    25   14   15 1   
    26   14   16 1   
    27   14   50 1   
    28   15   51 1   
    29   15   52 1   
    30   15   53 1   
    31   16   54 1   
    32   16   55 1   
    33   16   56 1   
    34   17   18 1   
    35   17   57 1   
    36   17   58 1   
    37   18   19 1   
    38   18   20 1   
    39   18   59 1   
    40   19   60 1   
    41   20   21 1   
    42   20   34 1   
    43   20   61 1   
    44   21   22 1   
    45   21   62 1   
    46   21   81 1   
    47   22   23 2   
    48   22   24 1   
    49   24   25 1   
    50   25   26 1   
    51   25   33 1   
    52   25   63 1   
    53   26   27 1   
    54   26   64 1   
    55   26   65 1   
    56   27   28 1   
    57   27   32 1   
    58   27   66 1   
    59   28   29 1   
    60   29   30 1   
    61   29   67 1   
    62   29   68 1   
    63   30   31 1   
    64   30   69 1   
    65   30   70 1   
    66   31   32 1   
    67   32   33 1   
    68   32   71 1   
    69   33   72 1   
    70   33   73 1   
    71   34   40 1   
    72   34   74 1   
    73   34   75 1   
    74   35   36 ar  
    75   35   40 ar  
    76   35   79 1   
    77   36   37 ar  
    78   36   82 1   
    79   37   38 ar  
    80   37   76 1   
    81   38   39 ar  
    82   38   77 1   
    83   39   40 ar  
    84   39   78 1   
@<TRIPOS>SUBSTRUCTURE
     1 G05         1 TEMP              0 ****  ****    0 ROOT
