@<TRIPOS>MOLECULE
G07
   75    78     1     0     0
SMALL
bcc


@<TRIPOS>ATOM
      1 O22         2.5750   -0.8980   -1.5910 o         1 G07     -0.594000
      2 C21         2.4560   -0.0030   -0.7370 c         1 G07      0.731100
      3 O23         3.1300    1.1960   -0.9250 os        1 G07     -0.432900
      4 C24         4.0000    1.2640   -2.0560 c3        1 G07      0.133100
      5 C31         5.4370    0.8060   -1.7520 c3        1 G07     -0.131700
      6 C30         5.8140    0.7490   -0.2760 c3        1 G07     -0.104400
      7 C29         6.6860    1.9780   -0.0260 c3        1 G07      0.125400
      8 O28         7.1050    2.4960   -1.2960 os        1 G07     -0.424600
      9 C27         6.3190    1.9390   -2.3360 c3        1 G07      0.320900
     10 O26         5.4840    2.9960   -2.7870 os        1 G07     -0.422600
     11 C25         4.1220    2.7550   -2.4260 c3        1 G07      0.121400
     12 N20         1.7800   -0.0390    0.4640 n         1 G07     -0.504900
     13 C19         0.7800   -1.0680    0.6870 c3        1 G07      0.109700
     14 C32         0.7580   -1.5070    2.1620 c3        1 G07     -0.045100
     15 C38         2.0710   -2.0210    2.6370 ca        1 G07     -0.066300
     16 C37         2.6030   -3.2030    2.1070 ca        1 G07     -0.123000
     17 C36         3.8210   -3.6960    2.5700 ca        1 G07     -0.131000
     18 C35         4.5190   -3.0160    3.5680 ca        1 G07     -0.138000
     19 C34         3.9940   -1.8390    4.1010 ca        1 G07     -0.131000
     20 C33         2.7760   -1.3430    3.6380 ca        1 G07     -0.123000
     21 C17        -0.6420   -0.5970    0.2620 c3        1 G07      0.091100
     22 O18        -0.9910    0.4620    1.1360 oh        1 G07     -0.613800
     23 C16        -1.6470   -1.7670    0.3650 c3        1 G07      0.191800
     24 N11        -2.8260   -1.6350   -0.4390 n3        1 G07     -0.801500
     25 C12        -2.6710   -1.7740   -1.8610 c3        1 G07      0.228800
     26 C13        -3.0110   -3.1600   -2.4430 c3        1 G07     -0.099700
     27 C15        -2.9570   -3.0710   -3.9540 c3        1 G07     -0.087100
     28 C14        -2.0660   -4.2280   -1.9420 c3        1 G07     -0.087100
     29 S8         -4.3230   -1.3890    0.2260 sy        1 G07      1.514200
     30 O9         -5.2870   -2.0410   -0.5830 o         1 G07     -0.668300
     31 O10        -4.2840   -1.8220    1.5760 o         1 G07     -0.668300
     32 C5         -4.5060    0.2500    0.1420 ca        1 G07     -0.455500
     33 C4         -5.0010    0.8630   -1.0220 ca        1 G07     -0.047000
     34 C3         -5.1560    2.2400   -1.0990 ca        1 G07     -0.140500
     35 C6         -4.1980    1.0740    1.2390 ca        1 G07     -0.047000
     36 C7         -4.3510    2.4510    1.1680 ca        1 G07     -0.140500
     37 C2         -4.8230    3.0510   -0.0080 ca        1 G07     -0.048600
     38 C1         -4.9630    4.5710   -0.1000 c         1 G07      0.902200
     39 O1         -4.6410    5.2450    0.9160 o         1 G07     -0.809800
     40 O2         -5.3850    5.0480   -1.1880 o         1 G07     -0.809800
     41 H3          3.5720    0.6620   -2.9030 h1        1 G07      0.089700
     42 H4          5.6370   -0.1710   -2.2530 hc        1 G07      0.083700
     43 H5          4.9110    0.7590    0.3840 hc        1 G07      0.067200
     44 H6          6.3850   -0.1880   -0.0600 hc        1 G07      0.067200
     45 H7          6.1210    2.7870    0.5050 h1        1 G07      0.049700
     46 H8          7.6240    1.7370    0.5330 h1        1 G07      0.049700
     47 H9          7.0070    1.6690   -3.1760 h2        1 G07      0.094700
     48 H10         3.5070    3.0160   -3.3230 h1        1 G07      0.068200
     49 H11         3.8540    3.4130   -1.5600 h1        1 G07      0.068200
     50 H12         1.6190    0.8310    0.9250 hn        1 G07      0.332500
     51 H14         1.0510   -1.9570    0.0420 h1        1 G07      0.085700
     52 H15         0.4130   -0.6470    2.7970 hc        1 G07      0.072200
     53 H16        -0.0090   -2.3230    2.2580 hc        1 G07      0.072200
     54 H17         2.0560   -3.7410    1.3180 ha        1 G07      0.133000
     55 H18         4.2320   -4.6240    2.1460 ha        1 G07      0.127000
     56 H19         5.4790   -3.4060    3.9330 ha        1 G07      0.125000
     57 H20         4.5400   -1.3000    4.8880 ha        1 G07      0.127000
     58 H21         2.3660   -0.4130    4.0620 ha        1 G07      0.133000
     59 H22        -0.5950   -0.2130   -0.7970 h1        1 G07      0.051700
     60 H23        -1.8260    0.8360    0.8190 ho        1 G07      0.431000
     61 H24        -1.1040   -2.7120    0.0740 h1        1 G07      0.066700
     62 H25        -1.9630   -1.8580    1.4480 h1        1 G07      0.066700
     63 H26        -3.3550   -1.0200   -2.3560 h1        1 G07      0.047200
     64 H27        -1.6140   -1.5200   -2.1600 h1        1 G07      0.047200
     65 H28        -4.0630   -3.4290   -2.1360 hc        1 G07      0.085700
     66 H29        -1.9310   -2.7930   -4.2980 hc        1 G07      0.031700
     67 H30        -3.2250   -4.0570   -4.4050 hc        1 G07      0.031700
     68 H31        -3.6770   -2.3040   -4.3270 hc        1 G07      0.031700
     69 H32        -1.0040   -3.9320   -2.1190 hc        1 G07      0.031700
     70 H33        -2.2110   -4.4020   -0.8490 hc        1 G07      0.031700
     71 H34        -2.2560   -5.1910   -2.4770 hc        1 G07      0.031700
     72 H35        -5.2820    0.2280   -1.8790 ha        1 G07      0.131500
     73 H36        -5.5420    2.7270   -2.0110 ha        1 G07      0.166500
     74 H37        -3.8390    0.6040    2.1710 ha        1 G07      0.131500
     75 H38        -4.1100    3.1040    2.0230 ha        1 G07      0.166500
@<TRIPOS>BOND
     1    1    2 2   
     2    2    3 1   
     3    2   12 1   
     4    3    4 1   
     5    4    5 1   
     6    4   11 1   
     7    4   41 1   
     8    5    6 1   
     9    5    9 1   
    10    5   42 1   
    11    6    7 1   
    12    6   43 1   
    13    6   44 1   
    14    7    8 1   
    15    7   45 1   
    16    7   46 1   
    17    8    9 1   
    18    9   10 1   
    19    9   47 1   
    20   10   11 1   
    21   11   48 1   
    22   11   49 1   
    23   12   13 1   
    24   12   50 1   
    25   13   14 1   
    26   13   21 1   
    27   13   51 1   
    28   14   15 1   
    29   14   52 1   
    30   14   53 1   
    31   15   16 ar  
    32   15   20 ar  
    33   16   17 ar  
    34   16   54 1   
    35   17   18 ar  
    36   17   55 1   
    37   18   19 ar  
    38   18   56 1   
    39   19   20 ar  
    40   19   57 1   
    41   20   58 1   
    42   21   22 1   
    43   21   23 1   
    44   21   59 1   
    45   22   60 1   
    46   23   24 1   
    47   23   61 1   
    48   23   62 1   
    49   24   25 1   
    50   24   29 1   
    51   25   26 1   
    52   25   63 1   
    53   25   64 1   
    54   26   27 1   
    55   26   28 1   
    56   26   65 1   
    57   27   66 1   
    58   27   67 1   
    59   27   68 1   
    60   28   69 1   
    61   28   70 1   
    62   28   71 1   
    63   29   30 2   
    64   29   31 2   
    65   29   32 1   
    66   32   33 ar  
    67   32   35 ar  
    68   33   34 ar  
    69   33   72 1   
    70   34   37 ar  
    71   34   73 1   
    72   35   36 ar  
    73   35   74 1   
    74   36   37 ar  
    75   36   75 1   
    76   37   38 1   
    77   38   39 1   
    78   38   40 1   
@<TRIPOS>SUBSTRUCTURE
     1 G07         1 TEMP              0 ****  ****    0 ROOT
