@<TRIPOS>MOLECULE
G07
   77    79     1     0     0
SMALL
bcc


@<TRIPOS>ATOM
      1 O22         1.7350   -1.4690   -1.6050 o         1 G07     -0.490000
      2 C21         1.8590   -0.3820   -1.0450 c         1 G07      0.629100
      3 O23         2.1300   -0.2150    0.2660 os        1 G07     -0.375900
      4 C24         2.3970   -1.4250    1.0280 c3        1 G07      0.129100
      5 C31         2.8220   -1.0190    2.4470 c3        1 G07     -0.114700
      6 C30         3.4640    0.3590    2.5820 c3        1 G07     -0.103400
      7 C29         4.9710    0.1010    2.6170 c3        1 G07      0.110400
      8 O28         5.1610   -1.2730    2.9960 os        1 G07     -0.403600
      9 C27         3.9830   -2.0110    2.7650 c3        1 G07      0.321900
     10 O26         4.2380   -2.7980    1.6020 os        1 G07     -0.402600
     11 C25         3.5910   -2.2210    0.4720 c3        1 G07      0.092400
     12 N20         1.7340    0.9220   -1.7300 n4        1 G07     -0.672800
     13 C19         1.1380    0.8030   -3.1090 c3        1 G07      0.110500
     14 C32         0.3530    2.0770   -3.4570 c3        1 G07     -0.050100
     15 C38        -0.7130    2.3630   -2.4610 ca        1 G07     -0.151300
     16 C37        -1.9160    1.6480   -2.4870 ca        1 G07     -0.132000
     17 C36        -2.9240    1.9370   -1.5680 ca        1 G07     -0.115500
     18 C35        -2.7380    2.9440   -0.6200 ca        1 G07     -0.103000
     19 C34        -1.5420    3.6630   -0.5930 ca        1 G07     -0.115500
     20 C33        -0.5320    3.3750   -1.5100 ca        1 G07     -0.132000
     21 C17         2.2290    0.5240   -4.1840 c3        1 G07      0.142100
     22 O18         2.8540    1.7280   -4.5730 oh        1 G07     -0.610800
     23 C16         1.5830   -0.0310   -5.4780 c3        1 G07      0.133800
     24 N11         2.0300   -1.3610   -5.8930 n3        1 G07     -0.898200
     25 C12         1.6750   -2.4300   -4.9580 c3        1 G07      0.113800
     26 C13         0.4120   -3.2350   -5.2980 c3        1 G07     -0.085700
     27 C15         0.2770   -4.3660   -4.2990 c3        1 G07     -0.097600
     28 C14        -0.8270   -2.3690   -5.2940 c3        1 G07     -0.097600
     29 S8          4.3370   -1.8140   -6.8050 s4        1 G07      1.689300
     30 O9          4.0720   -3.1450   -6.8380 o         1 G07     -0.435900
     31 O10         4.1170   -1.0200   -7.8820 o         1 G07     -0.435900
     32 C5          5.0720   -1.2370   -5.5840 ca        1 G07     -0.649500
     33 C4          5.5080    0.1200   -5.5460 ca        1 G07      0.032500
     34 C3          5.7440    0.7500   -4.3410 ca        1 G07     -0.150500
     35 C6          5.2070   -1.9940   -4.3820 ca        1 G07      0.032500
     36 C7          5.4330   -1.3630   -3.1780 ca        1 G07     -0.150500
     37 C2          5.5500    0.0400   -3.1440 ca        1 G07      0.021400
     38 C1          5.1650    0.7780   -1.8770 c         1 G07      0.902200
     39 O1          4.3530    1.7550   -2.0850 o         1 G07     -0.776300
     40 O2          5.5020    0.3730   -0.7530 o         1 G07     -0.776300
     41 H3          1.4500   -2.0260    1.0240 h1        1 G07      0.085700
     42 H4          1.9670   -1.1430    3.1520 hc        1 G07      0.091700
     43 H5          3.1250    0.8400    3.5340 hc        1 G07      0.067200
     44 H6          3.2030    1.0450    1.7410 hc        1 G07      0.067200
     45 H7          5.4420    0.2550    1.6110 h1        1 G07      0.080700
     46 H8          5.4980    0.7060    3.3960 h1        1 G07      0.080700
     47 H9          3.8350   -2.7190    3.6180 h2        1 G07      0.120700
     48 H10         4.3080   -1.5400   -0.0620 h1        1 G07      0.077200
     49 H11         3.2740   -3.0710   -0.1820 h1        1 G07      0.077200
     50 H12         1.1470    1.5460   -1.1560 hn        1 G07      0.508800
     51 H14         0.4270   -0.0790   -3.0870 hx        1 G07      0.105700
     52 H15        -0.0990    1.9170   -4.4740 hc        1 G07      0.094700
     53 H16         1.0620    2.9450   -3.5500 hc        1 G07      0.094700
     54 H17        -2.0730    0.8650   -3.2440 ha        1 G07      0.136000
     55 H18        -3.8720    1.3770   -1.5990 ha        1 G07      0.152000
     56 H19        -3.5380    3.1770    0.1010 ha        1 G07      0.154000
     57 H20        -1.3990    4.4670    0.1460 ha        1 G07      0.152000
     58 H21         0.3950    3.9700   -1.5040 ha        1 G07      0.136000
     59 H22         2.9890   -0.1960   -3.7600 h1        1 G07      0.054700
     60 H23         3.5110    1.9750   -3.8960 ho        1 G07      0.460000
     61 H24         0.4610   -0.0190   -5.3550 h1        1 G07      0.083700
     62 H25         1.8410    0.6870   -6.3150 h1        1 G07      0.083700
     63 H26         1.5660   -2.0140   -3.9150 h1        1 G07      0.068700
     64 H27         2.5470   -3.1490   -4.9500 h1        1 G07      0.068700
     65 H28         0.5330   -3.6840   -6.3260 hc        1 G07      0.065700
     66 H29         1.1800   -5.0220   -4.3240 hc        1 G07      0.045367
     67 H30        -0.6180   -4.9870   -4.5450 hc        1 G07      0.045367
     68 H31         0.1560   -3.9650   -3.2630 hc        1 G07      0.045367
     69 H32        -0.9050   -1.7920   -4.3400 hc        1 G07      0.045367
     70 H33        -1.7390   -3.0080   -5.3910 hc        1 G07      0.045367
     71 H34        -0.8190   -1.6500   -6.1490 hc        1 G07      0.045367
     72 H35         5.5740    0.6880   -6.4930 ha        1 G07      0.171500
     73 H36         6.0050    1.8220   -4.2960 ha        1 G07      0.195000
     74 H37         5.0620   -3.0900   -4.4220 ha        1 G07      0.171500
     75 H38         5.4890   -1.9250   -2.2280 ha        1 G07      0.195000
     76 H202        2.7190    1.3550   -1.7760 hn        1 G07      0.508800
     77 H111        1.5730   -1.5470   -6.7790 hn        1 G07      0.389800
@<TRIPOS>BOND
     1    1    2 2   
     2    2    3 1   
     3    2   12 1   
     4    3    4 1   
     5    4    5 1   
     6    4   11 1   
     7    4   41 1   
     8    5    6 1   
     9    5    9 1   
    10    5   42 1   
    11    6    7 1   
    12    6   43 1   
    13    6   44 1   
    14    7    8 1   
    15    7   45 1   
    16    7   46 1   
    17    8    9 1   
    18    9   10 1   
    19    9   47 1   
    20   10   11 1   
    21   11   48 1   
    22   11   49 1   
    23   12   13 1   
    24   12   50 1   
    25   12   76 1   
    26   13   14 1   
    27   13   21 1   
    28   13   51 1   
    29   14   15 1   
    30   14   52 1   
    31   14   53 1   
    32   15   16 ar  
    33   15   20 ar  
    34   16   17 ar  
    35   16   54 1   
    36   17   18 ar  
    37   17   55 1   
    38   18   19 ar  
    39   18   56 1   
    40   19   20 ar  
    41   19   57 1   
    42   20   58 1   
    43   21   22 1   
    44   21   23 1   
    45   21   59 1   
    46   22   60 1   
    47   23   24 1   
    48   23   61 1   
    49   23   62 1   
    50   24   25 1   
    51   24   77 1   
    52   25   26 1   
    53   25   63 1   
    54   25   64 1   
    55   26   27 1   
    56   26   28 1   
    57   26   65 1   
    58   27   66 1   
    59   27   67 1   
    60   27   68 1   
    61   28   69 1   
    62   28   70 1   
    63   28   71 1   
    64   29   30 1   
    65   29   31 1   
    66   29   32 1   
    67   32   33 ar  
    68   32   35 ar  
    69   33   34 ar  
    70   33   72 1   
    71   34   37 ar  
    72   34   73 1   
    73   35   36 ar  
    74   35   74 1   
    75   36   37 ar  
    76   36   75 1   
    77   37   38 1   
    78   38   39 1   
    79   38   40 1   
@<TRIPOS>SUBSTRUCTURE
     1 G07         1 TEMP              0 ****  ****    0 ROOT
