@<TRIPOS>MOLECULE
G07
   75    69     1     0     0
SMALL
bcc


@<TRIPOS>ATOM
      1 O22         0.0870   -1.2530    2.4670 o         1 G07     -0.393000
      2 C21        -0.3220   -0.1080    2.5120 c1        1 G07      0.377000
      3 O23         0.2990    0.8550    3.4200 os        1 G07     -0.275000
      4 C24        -0.1240    0.7110    4.8170 c3        1 G07      0.021000
      5 C31         0.1260    1.8390    5.4980 c3        1 G07     -0.165000
      6 C30         0.2410    2.8880    4.6860 c3        1 G07     -0.178000
      7 C29         1.7180    2.9180    4.2450 c3        1 G07     -0.022000
      8 O28         2.4530    2.5050    5.3370 os        1 G07     -0.288000
      9 C27         1.5410    1.6400    6.1090 c3        1 G07      0.143000
     10 O26         1.8860    0.1780    5.9200 os        1 G07     -0.287000
     11 C25         0.7240   -0.4140    5.5300 c3        1 G07     -0.035000
     12 N20        -1.3590    0.3260    1.5920 n2        1 G07     -0.314000
     13 C19        -1.6430   -0.4400    0.4320 c3        1 G07      0.027000
     14 C32        -3.1240   -0.3610    0.1220 c3        1 G07     -0.124000
     15 C38        -3.8480   -1.5930    0.7320 c2        1 G07     -0.056000
     16 C37        -4.9720   -1.4120    1.5310 c2        1 G07     -0.122000
     17 C36        -5.6890   -2.5220    1.9900 c1        1 G07     -0.132000
     18 C35        -5.2790   -3.8030    1.6490 c1        1 G07     -0.111000
     19 C34        -4.1500   -3.9850    0.8470 c1        1 G07     -0.111000
     20 C33        -3.4370   -2.8840    0.3900 c1        1 G07     -0.122000
     21 C17        -0.8410    0.1100   -0.7500 c3        1 G07     -0.039000
     22 O18        -1.4470    1.2650   -1.2210 oh        1 G07     -0.338000
     23 C16        -0.7940   -0.9270   -1.8620 c3        1 G07     -0.040000
     24 N11         0.3280   -0.6240   -2.7700 n3        1 G07     -0.822000
     25 C12         0.1190    0.2340   -3.9090 c3        1 G07     -0.006000
     26 C13        -0.4910   -0.5840   -5.0630 c3        1 G07     -0.134000
     27 C15        -1.9910   -0.3900   -5.0800 c3        1 G07     -0.205000
     28 C14         0.1010   -0.1100   -6.4010 c3        1 G07     -0.205000
     29 S8          1.7680   -1.3870   -2.5760 s4        1 G07      2.069800
     30 O9          2.0230   -2.2990   -3.6600 o         1 G07     -0.556900
     31 O10         1.7360   -2.2900   -1.4540 o         1 G07     -0.556900
     32 C5          3.1120   -0.1630   -2.4040 c1        1 G07     -0.465000
     33 C4          3.1280    0.6950   -1.3060 c1        1 G07     -0.111000
     34 C3          4.2330    1.5240   -1.0790 c1        1 G07     -0.111000
     35 C6          4.2020   -0.1950   -3.2830 c1        1 G07     -0.091500
     36 C7          5.3020    0.6300   -3.0580 c1        1 G07     -0.091500
     37 C2          5.3170    1.4940   -1.9500 c1        1 G07     -0.465000
     38 C1          6.5820    2.2800   -1.6160 c1        1 G07      0.356000
     39 O1          7.5680    1.6930   -1.1030 o         1 G07     -0.531000
     40 O2          6.6650    3.5050   -1.9250 os        1 G07     -0.577000
     41 H3         -1.0760    0.4950    4.8610 h1        1 G07      0.183000
     42 H4         -0.5400    1.9940    6.1890 hc        1 G07      0.124000
     43 H5         -0.3430    2.7770    3.9070 hc        1 G07      0.097000
     44 H6          0.0110    3.7230    5.1710 hc        1 G07      0.097000
     45 H7          1.8580    2.3010    3.4910 h1        1 G07      0.079500
     46 H8          1.9740    3.8250    3.9890 h1        1 G07      0.079500
     47 H9          1.5490    1.8840    7.0690 h2        1 G07      0.125000
     48 H10         0.9150   -1.1540    4.8940 h1        1 G07      0.128500
     49 H11         0.2390   -0.7580    6.3160 h1        1 G07      0.128500
     50 H12        -1.8650    1.0570    1.7900 hn        1 G07      0.227000
     51 H14        -1.3940   -1.3690    0.5880 h1        1 G07      0.130000
     52 H15        -3.2540   -0.3540   -0.8500 hc        1 G07      0.101000
     53 H16        -3.4950    0.4610    0.5070 hc        1 G07      0.101000
     54 H17        -5.2650   -0.4970    1.7740 ha        1 G07      0.130000
     55 H18        -6.4910   -2.3940    2.5600 ha        1 G07      0.125000
     56 H19        -5.8230   -4.5920    1.9280 ha        1 G07      0.140500
     57 H20        -3.8580   -4.9000    0.6040 ha        1 G07      0.140500
     58 H21        -2.6420   -3.0140   -0.1760 ha        1 G07      0.134000
     59 H22         0.0660    0.3150   -0.4590 h1        1 G07      0.114000
     60 H23        -0.9490    1.9640   -1.0130 ho        1 G07      0.211000
     61 H24        -1.6280   -0.9060   -2.3590 h1        1 G07      0.104000
     62 H25        -0.6670   -1.8200   -1.4710 h1        1 G07      0.104000
     63 H26        -0.4970    0.9650   -3.6620 h1        1 G07      0.086500
     64 H27         0.9860    0.6170   -4.1960 h1        1 G07      0.086500
     65 H28        -0.2870   -1.5310   -4.9340 hc        1 G07      0.115000
     66 H29        -2.4350   -1.2640   -5.0180 hc        1 G07      0.071333
     67 H30        -2.2530    0.0510   -5.9140 hc        1 G07      0.071333
     68 H31        -2.2550    0.1630   -4.3240 hc        1 G07      0.071333
     69 H32         0.0960    0.8690   -6.4320 hc        1 G07      0.071333
     70 H33         1.0290   -0.4380   -6.4860 hc        1 G07      0.071333
     71 H34        -0.4410   -0.4650   -7.1430 hc        1 G07      0.071333
     72 H35         2.3610    0.7170   -0.6870 ha        1 G07      0.140500
     73 H36         4.2900    2.0490   -0.2410 ha        1 G07      0.140500
     74 H37         4.2290   -0.8600   -4.0060 ha        1 G07      0.145000
     75 H38         6.1070    0.5430   -3.6240 ha        1 G07      0.145000
@<TRIPOS>BOND
     1    1    2 1   
     2    2    3 1   
     3    3    4 1   
     4    4    5 1   
     5    4   11 1   
     6    4   41 1   
     7    5    6 1   
     8    5    9 1   
     9    5   42 1   
    10    6    7 1   
    11    6   43 1   
    12    6   44 1   
    13    7    8 1   
    14    7   45 1   
    15    7   46 1   
    16    8    9 1   
    17    9   10 1   
    18    9   47 1   
    19   10   11 1   
    20   11   48 1   
    21   11   49 1   
    22   12   13 1   
    23   12   50 1   
    24   13   14 1   
    25   13   21 1   
    26   13   51 1   
    27   14   15 1   
    28   14   52 1   
    29   14   53 1   
    30   15   16 1   
    31   15   20 1   
    32   16   17 1   
    33   16   54 1   
    34   17   55 1   
    35   18   19 1   
    36   18   56 1   
    37   19   57 1   
    38   20   58 1   
    39   21   22 1   
    40   21   23 1   
    41   21   59 1   
    42   22   60 1   
    43   23   24 1   
    44   23   61 1   
    45   23   62 1   
    46   24   25 1   
    47   24   29 1   
    48   25   26 1   
    49   25   63 1   
    50   25   64 1   
    51   26   27 1   
    52   26   28 1   
    53   26   65 1   
    54   27   66 1   
    55   27   67 1   
    56   27   68 1   
    57   28   69 1   
    58   28   70 1   
    59   28   71 1   
    60   29   30 1   
    61   29   31 1   
    62   32   35 1   
    63   33   34 1   
    64   33   72 1   
    65   34   73 1   
    66   35   74 1   
    67   36   37 1   
    68   36   75 1   
    69   38   39 1   
@<TRIPOS>SUBSTRUCTURE
     1 G07         1 TEMP              0 ****  ****    0 ROOT
