@<TRIPOS>MOLECULE
G07
   77    79     1     0     0
SMALL
bcc


@<TRIPOS>ATOM
      1 O22         2.8260   -1.1990   -1.0430 o         1 G07     -0.485000
      2 C21         2.8940   -0.0200   -0.7090 c         1 G07      0.668100
      3 O23         3.2610    0.4490    0.5010 os        1 G07     -0.384900
      4 C24         4.1370   -0.4060    1.2910 c3        1 G07      0.142100
      5 C31         3.3780   -1.1940    2.3660 c3        1 G07     -0.142700
      6 C30         1.9450   -0.7530    2.6440 c3        1 G07     -0.101400
      7 C29         2.0100    0.0640    3.9350 c3        1 G07      0.124400
      8 O28         3.2620   -0.2120    4.5730 os        1 G07     -0.405600
      9 C27         4.1440   -0.8630    3.6770 c3        1 G07      0.324900
     10 O26         5.1650    0.0840    3.3940 os        1 G07     -0.404600
     11 C25         5.0650    0.5600    2.0530 c3        1 G07      0.124400
     12 N20         2.4630    1.1030   -1.5900 n4        1 G07     -0.664800
     13 C19         1.5430    0.6560   -2.6960 c3        1 G07      0.112500
     14 C32         0.6390    1.8150   -3.1410 c3        1 G07     -0.051100
     15 C38        -0.1460    2.3760   -2.0100 ca        1 G07     -0.150300
     16 C37        -1.3060    1.7310   -1.5650 ca        1 G07     -0.132000
     17 C36        -2.0530    2.2730   -0.5210 ca        1 G07     -0.115500
     18 C35        -1.6490    3.4650    0.0840 ca        1 G07     -0.103000
     19 C34        -0.4970    4.1150   -0.3600 ca        1 G07     -0.115500
     20 C33         0.2530    3.5750   -1.4040 ca        1 G07     -0.132000
     21 C17         2.3290    0.0840   -3.9120 c3        1 G07      0.130100
     22 O18         2.7890    1.1310   -4.7370 oh        1 G07     -0.606800
     23 C16         1.4060   -0.7730   -4.8130 c3        1 G07      0.134800
     24 N11         1.8490   -2.1520   -5.0220 n3        1 G07     -0.895200
     25 C12         0.7390   -3.0500   -5.3620 c3        1 G07      0.106800
     26 C13         0.0620   -2.7780   -6.7160 c3        1 G07     -0.077700
     27 C15        -0.3680   -4.1010   -7.3210 c3        1 G07     -0.099600
     28 C14        -1.1380   -1.8670   -6.5660 c3        1 G07     -0.099600
     29 S8          3.6790   -2.8330   -6.6440 s4        1 G07      1.694300
     30 O9          3.3840   -4.1380   -6.4120 o         1 G07     -0.433900
     31 O10         3.2360   -2.1780   -7.7440 o         1 G07     -0.433900
     32 C5          4.7100   -2.1430   -5.7320 ca        1 G07     -0.647500
     33 C4          5.2010   -0.8350   -6.0110 ca        1 G07      0.025000
     34 C3          5.6740   -0.0320   -4.9910 ca        1 G07     -0.141000
     35 C6          5.0680   -2.7110   -4.4730 ca        1 G07      0.025000
     36 C7          5.5260   -1.9080   -3.4510 ca        1 G07     -0.141000
     37 C2          5.6570   -0.5230   -3.6740 ca        1 G07      0.020400
     38 C1          5.3790    0.4300   -2.5340 c         1 G07      0.900200
     39 O1          4.9680    1.5930   -2.8570 o         1 G07     -0.802800
     40 O2          5.2980   -0.0020   -1.3550 o         1 G07     -0.802800
     41 H3          4.7070   -1.0780    0.5950 h1        1 G07      0.118700
     42 H4          3.4230   -2.2870    2.1370 hc        1 G07      0.090700
     43 H5          1.5190   -0.1450    1.8110 hc        1 G07      0.056200
     44 H6          1.2900   -1.6500    2.7820 hc        1 G07      0.056200
     45 H7          1.2180   -0.2270    4.6710 h1        1 G07      0.059200
     46 H8          1.9600    1.1640    3.7330 h1        1 G07      0.059200
     47 H9          4.6200   -1.7190    4.2200 h2        1 G07      0.115700
     48 H10         4.6490    1.6000    2.0650 h1        1 G07      0.081200
     49 H11         6.1010    0.5550    1.6300 h1        1 G07      0.081200
     50 H12         1.9800    1.8100   -1.0140 hn        1 G07      0.500300
     51 H14         0.9040   -0.1730   -2.2650 hx        1 G07      0.103700
     52 H15         1.2610    2.6120   -3.6340 hc        1 G07      0.093200
     53 H16        -0.0510    1.4080   -3.9300 hc        1 G07      0.093200
     54 H17        -1.6370    0.8010   -2.0500 ha        1 G07      0.136000
     55 H18        -2.9690    1.7660   -0.1800 ha        1 G07      0.152500
     56 H19        -2.2440    3.8960    0.9040 ha        1 G07      0.154000
     57 H20        -0.1840    5.0630    0.1060 ha        1 G07      0.152500
     58 H21         1.1410    4.1120   -1.7720 ha        1 G07      0.136000
     59 H22         3.1970   -0.5240   -3.5160 h1        1 G07      0.057700
     60 H23         3.6060    1.4980   -4.3530 ho        1 G07      0.455000
     61 H24         1.3530   -0.2790   -5.8290 h1        1 G07      0.084700
     62 H25         0.3640   -0.7570   -4.3770 h1        1 G07      0.084700
     63 H26        -0.0540   -3.0330   -4.5590 h1        1 G07      0.071700
     64 H27         1.1740   -4.0950   -5.3760 h1        1 G07      0.071700
     65 H28         0.7940   -2.2890   -7.4210 hc        1 G07      0.058700
     66 H29        -1.0830   -4.6290   -6.6460 hc        1 G07      0.047700
     67 H30        -0.8740   -3.9240   -8.3020 hc        1 G07      0.047700
     68 H31         0.5150   -4.7630   -7.4940 hc        1 G07      0.047700
     69 H32        -1.6430   -1.7400   -7.5550 hc        1 G07      0.047700
     70 H33        -1.8780   -2.3000   -5.8500 hc        1 G07      0.047700
     71 H34        -0.8330   -0.8580   -6.1990 hc        1 G07      0.047700
     72 H35         5.1080   -0.4330   -7.0380 ha        1 G07      0.173000
     73 H36         5.9700    1.0180   -5.1700 ha        1 G07      0.200500
     74 H37         4.8960   -3.7910   -4.3050 ha        1 G07      0.173000
     75 H38         5.7170   -2.3030   -2.4360 ha        1 G07      0.200500
     76 H202        3.3350    1.5520   -1.9820 hn        1 G07      0.500300
     77 H111        2.2590   -2.4920   -4.1610 hn        1 G07      0.374800
@<TRIPOS>BOND
     1    1    2 2   
     2    2    3 1   
     3    2   12 1   
     4    3    4 1   
     5    4    5 1   
     6    4   11 1   
     7    4   41 1   
     8    5    6 1   
     9    5    9 1   
    10    5   42 1   
    11    6    7 1   
    12    6   43 1   
    13    6   44 1   
    14    7    8 1   
    15    7   45 1   
    16    7   46 1   
    17    8    9 1   
    18    9   10 1   
    19    9   47 1   
    20   10   11 1   
    21   11   48 1   
    22   11   49 1   
    23   12   13 1   
    24   12   50 1   
    25   12   76 1   
    26   13   14 1   
    27   13   21 1   
    28   13   51 1   
    29   14   15 1   
    30   14   52 1   
    31   14   53 1   
    32   15   16 ar  
    33   15   20 ar  
    34   16   17 ar  
    35   16   54 1   
    36   17   18 ar  
    37   17   55 1   
    38   18   19 ar  
    39   18   56 1   
    40   19   20 ar  
    41   19   57 1   
    42   20   58 1   
    43   21   22 1   
    44   21   23 1   
    45   21   59 1   
    46   22   60 1   
    47   23   24 1   
    48   23   61 1   
    49   23   62 1   
    50   24   25 1   
    51   24   77 1   
    52   25   26 1   
    53   25   63 1   
    54   25   64 1   
    55   26   27 1   
    56   26   28 1   
    57   26   65 1   
    58   27   66 1   
    59   27   67 1   
    60   27   68 1   
    61   28   69 1   
    62   28   70 1   
    63   28   71 1   
    64   29   30 1   
    65   29   31 1   
    66   29   32 1   
    67   32   33 ar  
    68   32   35 ar  
    69   33   34 ar  
    70   33   72 1   
    71   34   37 ar  
    72   34   73 1   
    73   35   36 ar  
    74   35   74 1   
    75   36   37 ar  
    76   36   75 1   
    77   37   38 1   
    78   38   39 1   
    79   38   40 1   
@<TRIPOS>SUBSTRUCTURE
     1 G07         1 TEMP              0 ****  ****    0 ROOT
