@<TRIPOS>MOLECULE
G07
   77    79     1     0     0
SMALL
bcc


@<TRIPOS>ATOM
      1 O22         2.8070   -1.1800   -1.0230 o         1 G07     -0.485000
      2 C21         2.8780    0.0040   -0.7080 c         1 G07      0.668100
      3 O23         3.2350    0.4900    0.4980 os        1 G07     -0.384900
      4 C24         4.0980   -0.3560    1.3110 c3        1 G07      0.142100
      5 C31         3.3250   -1.1210    2.3920 c3        1 G07     -0.142700
      6 C30         1.8920   -0.6670    2.6500 c3        1 G07     -0.101400
      7 C29         1.9500    0.1710    3.9280 c3        1 G07      0.124400
      8 O28         3.1950   -0.1020    4.5810 os        1 G07     -0.405600
      9 C27         4.0810   -0.7720    3.7040 c3        1 G07      0.324900
     10 O26         5.1100    0.1640    3.4140 os        1 G07     -0.404600
     11 C25         5.0250    0.6180    2.0650 c3        1 G07      0.124400
     12 N20         2.4610    1.1140   -1.6110 ny        1 G07     -0.664800
     13 C19         1.5500    0.6530   -2.7200 c3        1 G07      0.112500
     14 C32         0.6560    1.8090   -3.1920 c3        1 G07     -0.051100
     15 C38        -0.1380    2.3920   -2.0780 ca        1 G07     -0.150300
     16 C37        -1.3050    1.7580   -1.6340 ca        1 G07     -0.132000
     17 C36        -2.0600    2.3210   -0.6070 ca        1 G07     -0.115500
     18 C35        -1.6580    3.5200   -0.0170 ca        1 G07     -0.103000
     19 C34        -0.4990    4.1590   -0.4610 ca        1 G07     -0.115500
     20 C33         0.2590    3.5990   -1.4880 ca        1 G07     -0.132000
     21 C17         2.3470    0.0590   -3.9170 c3        1 G07      0.130100
     22 O18         2.8200    1.0910   -4.7550 oh        1 G07     -0.606800
     23 C16         1.4290   -0.8070   -4.8150 c3        1 G07      0.134800
     24 N11         1.8680   -2.1920   -4.9970 n7        1 G07     -0.895200
     25 C12         0.7570   -3.0910   -5.3340 c3        1 G07      0.106800
     26 C13         0.0960   -2.8380   -6.7000 c3        1 G07     -0.077700
     27 C15        -0.3340   -4.1680   -7.2880 c3        1 G07     -0.099600
     28 C14        -1.1010   -1.9190   -6.5770 c3        1 G07     -0.099600
     29 S8          3.7120   -2.9070   -6.5890 s4        1 G07      1.694300
     30 O9          3.4080   -4.2070   -6.3400 o         1 G07     -0.433900
     31 O10         3.2830   -2.2680   -7.7030 o         1 G07     -0.433900
     32 C5          4.7360   -2.2070   -5.6770 ca        1 G07     -0.647500
     33 C4          5.2360   -0.9060   -5.9720 ca        1 G07      0.025000
     34 C3          5.7020   -0.0890   -4.9600 ca        1 G07     -0.141000
     35 C6          5.0780   -2.7570   -4.4040 ca        1 G07      0.025000
     36 C7          5.5290   -1.9390   -3.3910 ca        1 G07     -0.141000
     37 C2          5.6680   -0.5590   -3.6350 ca        1 G07      0.020400
     38 C1          5.3830    0.4130   -2.5130 c         1 G07      0.900200
     39 O1          4.9810    1.5730   -2.8590 o         1 G07     -0.802800
     40 O2          5.2880    0.0010   -1.3280 o         1 G07     -0.802800
     41 H3          4.6710   -1.0430    0.6320 h1        1 G07      0.118700
     42 H4          3.3660   -2.2180    2.1820 hc        1 G07      0.090700
     43 H5          1.2310   -1.5580    2.7970 hc        1 G07      0.056200
     44 H6          1.4780   -0.0700    1.8030 hc        1 G07      0.056200
     45 H7          1.9100    1.2680    3.7070 h1        1 G07      0.059200
     46 H8          1.1500   -0.1030    4.6610 h1        1 G07      0.059200
     47 H9          4.5470   -1.6220    4.2660 h2        1 G07      0.115700
     48 H10         4.6150    1.6600    2.0560 h1        1 G07      0.081200
     49 H11         6.0650    0.6010    1.6510 h1        1 G07      0.081200
     50 H12         1.9750    1.8330   -1.0510 hn        1 G07      0.500300
     51 H14         0.9030   -0.1650   -2.2820 hx        1 G07      0.103700
     52 H15        -0.0270    1.3930   -3.9820 hc        1 G07      0.093200
     53 H16         1.2860    2.5960   -3.6910 hc        1 G07      0.093200
     54 H17        -1.6350    0.8220   -2.1080 ha        1 G07      0.136000
     55 H18        -2.9820    1.8220   -0.2670 ha        1 G07      0.152500
     56 H19        -2.2590    3.9670    0.7900 ha        1 G07      0.154000
     57 H20        -0.1860    5.1120   -0.0060 ha        1 G07      0.152500
     58 H21         1.1530    4.1260   -1.8550 ha        1 G07      0.136000
     59 H22         3.2080   -0.5460   -3.5040 h1        1 G07      0.057700
     60 H23         3.6340    1.4610   -4.3680 ho        1 G07      0.455000
     61 H24         0.3830   -0.7800   -4.3900 h1        1 G07      0.084700
     62 H25         1.3890   -0.3290   -5.8390 h1        1 G07      0.084700
     63 H26        -0.0440   -3.0570   -4.5400 h1        1 G07      0.071700
     64 H27         1.1870   -4.1370   -5.3270 h1        1 G07      0.071700
     65 H28         0.8370   -2.3640   -7.4050 hc        1 G07      0.058700
     66 H29        -0.8290   -4.0050   -8.2760 hc        1 G07      0.047700
     67 H30        -1.0590   -4.6820   -6.6110 hc        1 G07      0.047700
     68 H31         0.5470   -4.8380   -7.4400 hc        1 G07      0.047700
     69 H32        -1.8510   -2.3370   -5.8630 hc        1 G07      0.047700
     70 H33        -0.7950   -0.9050   -6.2240 hc        1 G07      0.047700
     71 H34        -1.5940   -1.8050   -7.5740 hc        1 G07      0.047700
     72 H35         5.1560   -0.5200   -7.0060 ha        1 G07      0.173000
     73 H36         6.0050    0.9560   -5.1520 ha        1 G07      0.200500
     74 H37         4.8990   -3.8330   -4.2220 ha        1 G07      0.173000
     75 H38         5.7070   -2.3190   -2.3680 ha        1 G07      0.200500
     76 H202        3.3390    1.5540   -2.0010 hn        1 G07      0.500300
     77 H111        2.2670   -2.5200   -4.1270 hn        1 G07      0.374800
@<TRIPOS>BOND
     1    1    2 2   
     2    2    3 1   
     3    2   12 1   
     4    3    4 1   
     5    4    5 1   
     6    4   11 1   
     7    4   41 1   
     8    5    6 1   
     9    5    9 1   
    10    5   42 1   
    11    6    7 1   
    12    6   43 1   
    13    6   44 1   
    14    7    8 1   
    15    7   45 1   
    16    7   46 1   
    17    8    9 1   
    18    9   10 1   
    19    9   47 1   
    20   10   11 1   
    21   11   48 1   
    22   11   49 1   
    23   12   13 1   
    24   12   50 1   
    25   12   76 1   
    26   13   14 1   
    27   13   21 1   
    28   13   51 1   
    29   14   15 1   
    30   14   52 1   
    31   14   53 1   
    32   15   16 ar  
    33   15   20 ar  
    34   16   17 ar  
    35   16   54 1   
    36   17   18 ar  
    37   17   55 1   
    38   18   19 ar  
    39   18   56 1   
    40   19   20 ar  
    41   19   57 1   
    42   20   58 1   
    43   21   22 1   
    44   21   23 1   
    45   21   59 1   
    46   22   60 1   
    47   23   24 1   
    48   23   61 1   
    49   23   62 1   
    50   24   25 1   
    51   24   77 1   
    52   25   26 1   
    53   25   63 1   
    54   25   64 1   
    55   26   27 1   
    56   26   28 1   
    57   26   65 1   
    58   27   66 1   
    59   27   67 1   
    60   27   68 1   
    61   28   69 1   
    62   28   70 1   
    63   28   71 1   
    64   29   30 1   
    65   29   31 1   
    66   29   32 1   
    67   32   33 ar  
    68   32   35 ar  
    69   33   34 ar  
    70   33   72 1   
    71   34   37 ar  
    72   34   73 1   
    73   35   36 ar  
    74   35   74 1   
    75   36   37 ar  
    76   36   75 1   
    77   37   38 1   
    78   38   39 1   
    79   38   40 1   
@<TRIPOS>SUBSTRUCTURE
     1 G07         1 TEMP              0 ****  ****    0 ROOT
