@<TRIPOS>MOLECULE
G08
   80    83     1     0     0
SMALL
bcc


@<TRIPOS>ATOM
      1 O22        -1.7100   -0.5670    0.5200 o         1 G08     -0.384000
      2 C21        -0.6290   -0.0040    0.4770 c         1 G08      0.612100
      3 O23         0.4770   -0.3150    1.1830 os        1 G08     -0.415900
      4 C24         0.5980   -1.6970    1.6680 c3        1 G08      0.141100
      5 C31         2.0670   -1.8360    2.1110 c3        1 G08     -0.111700
      6 C30         2.7850   -0.5610    2.5270 c3        1 G08     -0.103400
      7 C29         3.6420   -0.1650    1.3230 c3        1 G08      0.127400
      8 O28         3.3730   -1.0930    0.2470 os        1 G08     -0.487600
      9 C27         2.7790   -2.2680    0.7970 c3        1 G08      0.317900
     10 O26         1.7890   -2.6110   -0.1720 os        1 G08     -0.450600
     11 C25         0.5070   -2.6640    0.4790 c3        1 G08      0.083400
     12 N20        -0.3710    1.1890   -0.3860 n4        1 G08     -0.642800
     13 C19        -0.1720    0.7980   -1.8330 c3        1 G08      0.128500
     14 C32        -0.3020    2.0420   -2.7340 c3        1 G08     -0.047100
     15 C38        -1.3830    2.9620   -2.2910 ca        1 G08     -0.195300
     16 C37        -2.7050    2.7540   -2.7040 ca        1 G08     -0.131500
     17 C36        -3.7050    3.6520   -2.3320 ca        1 G08     -0.108500
     18 C35        -3.3910    4.7650   -1.5490 ca        1 G08     -0.078000
     19 C34        -2.0730    4.9780   -1.1370 ca        1 G08     -0.108500
     20 C33        -1.0720    4.0820   -1.5060 ca        1 G08     -0.131500
     21 C17         1.1930    0.0770   -2.0130 c3        1 G08      0.101100
     22 O18         2.2370    0.9900   -1.7190 oh        1 G08     -0.653800
     23 C16         1.3530   -0.3960   -3.4770 c3        1 G08      0.091800
     24 N11         2.7630   -0.6120   -3.8980 n4        1 G08     -0.609300
     25 C12         3.4210   -1.7200   -3.1510 c3        1 G08      0.095800
     26 C13         3.0050   -3.1310   -3.5860 c3        1 G08     -0.075700
     27 C15         3.4220   -3.4290   -5.0080 c3        1 G08     -0.108600
     28 C14         3.6390   -4.1180   -2.6230 c3        1 G08     -0.108600
     29 S8          3.7640    1.0200   -3.7680 sy        1 G08      1.469200
     30 O9          2.8080    1.9710   -4.0580 o         1 G08     -0.549800
     31 O10         4.4550    0.9010   -2.5840 o         1 G08     -0.549800
     32 C5          4.7680    0.7840   -5.0690 ca        1 G08     -0.436500
     33 C4          4.4370    1.2910   -6.3380 ca        1 G08      0.007500
     34 C3          5.3270    1.2080   -7.4080 ca        1 G08     -0.092500
     35 C6          6.0280    0.1840   -4.9040 ca        1 G08      0.007500
     36 C7          6.9270    0.0830   -5.9670 ca        1 G08     -0.092500
     37 C2          6.5740    0.6010   -7.2200 ca        1 G08     -0.091600
     38 C1          7.5200    0.4030   -8.3410 c         1 G08      0.544700
     39 O1          8.0280   -0.6420   -8.7060 o         1 G08     -0.331100
     40 N1          7.9250    1.6340   -9.1150 n4        1 G08     -0.755400
     41 H1         -0.1650   -1.8550    2.4690 h1        1 G08      0.139700
     42 H2          2.1230   -2.6240    2.9050 hc        1 G08      0.133700
     43 H3          3.4340   -0.7530    3.4210 hc        1 G08      0.092200
     44 H4          2.0680    0.2500    2.8030 hc        1 G08      0.092200
     45 H5          3.3820    0.8500    0.9290 h1        1 G08      0.065700
     46 H6          4.7380   -0.2190    1.5470 h1        1 G08      0.065700
     47 H7          3.5300   -3.0930    0.8670 h2        1 G08      0.125700
     48 H8         -0.2550   -2.3840   -0.2880 h1        1 G08      0.094200
     49 H9          0.3230   -3.7110    0.8390 h1        1 G08      0.094200
     50 H10         0.4640    1.6940   -0.0570 hn        1 G08      0.494300
     51 H11        -0.9990    0.0670   -2.0820 hx        1 G08      0.122700
     52 H12        -0.5390    1.6780   -3.7720 hc        1 G08      0.093700
     53 H13         0.6870    2.5780   -2.7740 hc        1 G08      0.093700
     54 H14        -2.9580    1.8930   -3.3410 ha        1 G08      0.135000
     55 H15        -4.7430    3.4890   -2.6670 ha        1 G08      0.169000
     56 H16        -4.1810    5.4810   -1.2650 ha        1 G08      0.175000
     57 H17        -1.8230    5.8660   -0.5330 ha        1 G08      0.169000
     58 H18        -0.0290    4.2820   -1.2170 ha        1 G08      0.135000
     59 H19         1.2480   -0.8220   -1.3220 h1        1 G08      0.117700
     60 H20         2.7890    0.6160   -1.0050 ho        1 G08      0.483000
     61 H21         0.7730   -1.3570   -3.5970 hx        1 G08      0.119700
     62 H22         0.9210    0.3770   -4.1790 hx        1 G08      0.119700
     63 H23         4.5330   -1.6030   -3.3100 hx        1 G08      0.106200
     64 H24         3.2060   -1.5920   -2.0450 hx        1 G08      0.106200
     65 H25         1.8860   -3.2310   -3.5030 hc        1 G08      0.066700
     66 H26         2.8580   -2.8080   -5.7450 hc        1 G08      0.059033
     67 H27         3.2100   -4.5040   -5.2430 hc        1 G08      0.059033
     68 H28         4.5160   -3.2590   -5.1490 hc        1 G08      0.059033
     69 H29         3.3230   -5.1570   -2.8890 hc        1 G08      0.059033
     70 H30         4.7530   -4.0660   -2.6740 hc        1 G08      0.059033
     71 H31         3.3120   -3.9060   -1.5750 hc        1 G08      0.059033
     72 H32         3.4600    1.7920   -6.4940 ha        1 G08      0.192500
     73 H33         5.0210    1.6030   -8.3920 ha        1 G08      0.186500
     74 H34         6.3330   -0.2030   -3.9100 ha        1 G08      0.192500
     75 H35         7.9060   -0.4090   -5.8130 ha        1 G08      0.186500
     76 H36         7.0990    2.1320   -9.4650 hn        1 G08      0.484800
     77 H37         8.4640    2.2690   -8.5130 hn        1 G08      0.484800
     78 H202       -1.1930    1.8270   -0.3350 hn        1 G08      0.494300
     79 H111        2.7210   -0.9040   -4.8790 hn        1 G08      0.450800
     80 H131        8.5170    1.3630   -9.9180 hn        1 G08      0.484800
@<TRIPOS>BOND
     1    1    2 2   
     2    2    3 1   
     3    2   12 1   
     4    3    4 1   
     5    4    5 1   
     6    4   11 1   
     7    4   41 1   
     8    5    6 1   
     9    5    9 1   
    10    5   42 1   
    11    6    7 1   
    12    6   43 1   
    13    6   44 1   
    14    7    8 1   
    15    7   45 1   
    16    7   46 1   
    17    8    9 1   
    18    9   10 1   
    19    9   47 1   
    20   10   11 1   
    21   11   48 1   
    22   11   49 1   
    23   12   13 1   
    24   12   50 1   
    25   12   78 1   
    26   13   14 1   
    27   13   21 1   
    28   13   51 1   
    29   14   15 1   
    30   14   52 1   
    31   14   53 1   
    32   15   16 ar  
    33   15   20 ar  
    34   16   17 ar  
    35   16   54 1   
    36   17   18 ar  
    37   17   55 1   
    38   18   19 ar  
    39   18   56 1   
    40   19   20 ar  
    41   19   57 1   
    42   20   58 1   
    43   21   22 1   
    44   21   23 1   
    45   21   59 1   
    46   22   60 1   
    47   23   24 1   
    48   23   61 1   
    49   23   62 1   
    50   24   25 1   
    51   24   29 1   
    52   24   79 1   
    53   25   26 1   
    54   25   63 1   
    55   25   64 1   
    56   26   27 1   
    57   26   28 1   
    58   26   65 1   
    59   27   66 1   
    60   27   67 1   
    61   27   68 1   
    62   28   69 1   
    63   28   70 1   
    64   28   71 1   
    65   29   30 2   
    66   29   31 2   
    67   29   32 1   
    68   32   33 ar  
    69   32   35 ar  
    70   33   34 ar  
    71   33   72 1   
    72   34   37 ar  
    73   34   73 1   
    74   35   36 ar  
    75   35   74 1   
    76   36   37 ar  
    77   36   75 1   
    78   37   38 1   
    79   38   39 2   
    80   38   40 1   
    81   40   76 1   
    82   40   77 1   
    83   40   80 1   
@<TRIPOS>SUBSTRUCTURE
     1 G08         1 TEMP              0 ****  ****    0 ROOT
