@<TRIPOS>MOLECULE
G08
   80    82     1     0     0
SMALL
bcc


@<TRIPOS>ATOM
      1 O22        -1.9360   -1.1090   -1.3310 o         1 G08     -0.351000
      2 C21        -1.2300   -0.9500   -0.3520 c         1 G08      0.623100
      3 O23        -1.4410   -1.6560    0.7950 os        1 G08     -0.379900
      4 C24        -0.5040   -2.6980    1.1600 c3        1 G08      0.128100
      5 C31         0.4600   -2.2740    2.2810 c3        1 G08     -0.144700
      6 C30         0.1540   -0.9810    3.0240 c3        1 G08     -0.118400
      7 C29         1.3010   -0.0290    2.6800 c3        1 G08      0.110400
      8 O28         2.0300   -0.6010    1.5690 os        1 G08     -0.465600
      9 C27         1.8030   -2.0050    1.5440 c3        1 G08      0.307900
     10 O26         1.5910   -2.2450    0.1450 os        1 G08     -0.482600
     11 C25         0.4320   -3.0860    0.0080 c3        1 G08      0.075400
     12 N20        -0.1900    0.1270   -0.2720 n4        1 G08     -0.682800
     13 C19         0.2010    0.7150   -1.6020 c3        1 G08      0.103500
     14 C32         0.4310    2.2330   -1.4790 c3        1 G08     -0.046100
     15 C38        -0.6400    2.9180   -0.7070 ca        1 G08     -0.181300
     16 C37        -1.8620    3.2310   -1.3140 ca        1 G08     -0.133000
     17 C36        -2.8420    3.9200   -0.6010 ca        1 G08     -0.109500
     18 C35        -2.6070    4.3060    0.7200 ca        1 G08     -0.083000
     19 C34        -1.3870    3.9990    1.3280 ca        1 G08     -0.109500
     20 C33        -0.4070    3.3070    0.6200 ca        1 G08     -0.133000
     21 C17         1.4740    0.0090   -2.1580 c3        1 G08      0.123100
     22 O18         2.5850    0.2820   -1.3310 oh        1 G08     -0.597800
     23 C16         1.7990    0.6010   -3.5470 c3        1 G08      0.109800
     24 N11         2.7870   -0.1190   -4.3570 n3        1 G08     -0.916200
     25 C12         4.1420   -0.1520   -3.7880 c3        1 G08      0.119800
     26 C13         4.5620   -1.4840   -3.1510 c3        1 G08     -0.080700
     27 C15         4.5790   -2.6170   -4.1510 c3        1 G08     -0.104100
     28 C14         5.9330   -1.3040   -2.5280 c3        1 G08     -0.104100
     29 S8          2.6860    0.8940   -6.4010 s4        1 G08      1.621300
     30 O9          1.6500    0.1110   -6.7980 o         1 G08     -0.404400
     31 O10         2.5810    2.1470   -5.8890 o         1 G08     -0.404400
     32 C5          4.1020    0.5550   -7.1020 ca        1 G08     -0.489500
     33 C4          4.2290   -0.5380   -7.9860 ca        1 G08      0.029000
     34 C3          5.4110   -0.7710   -8.6860 ca        1 G08     -0.097500
     35 C6          5.2200    1.3960   -6.9290 ca        1 G08      0.029000
     36 C7          6.4120    1.1680   -7.6160 ca        1 G08     -0.097500
     37 C2          6.5030    0.0850   -8.5010 ca        1 G08     -0.072600
     38 C1          7.8090   -0.1770   -9.1500 c         1 G08      0.539700
     39 O1          8.8840   -0.3380   -8.6020 o         1 G08     -0.324100
     40 N1          7.8210   -0.2360  -10.6570 n4        1 G08     -0.754400
     41 H1         -1.1990   -3.5270    1.4810 h1        1 G08      0.158700
     42 H2          0.5600   -3.1300    3.0000 hc        1 G08      0.132700
     43 H3          0.1160   -1.1590    4.1300 hc        1 G08      0.095700
     44 H4         -0.8360   -0.5560    2.7250 hc        1 G08      0.095700
     45 H5          2.0200    0.0900    3.5310 h1        1 G08      0.080200
     46 H6          0.9580    0.9770    2.3310 h1        1 G08      0.080200
     47 H7          2.7070   -2.5600    1.8940 h2        1 G08      0.135700
     48 H8          0.7470   -4.1590    0.1020 h1        1 G08      0.096200
     49 H9          0.0180   -2.9010   -1.0140 h1        1 G08      0.096200
     50 H10        -0.5800    0.8840    0.3250 hn        1 G08      0.491300
     51 H11        -0.6610    0.5320   -2.3140 hx        1 G08      0.124700
     52 H12         1.4370    2.4170   -1.0110 hc        1 G08      0.088200
     53 H13         0.4570    2.6460   -2.5250 hc        1 G08      0.088200
     54 H14        -2.0470    2.9500   -2.3620 ha        1 G08      0.133500
     55 H15        -3.8000    4.1730   -1.0860 ha        1 G08      0.165000
     56 H16        -3.3780    4.8630    1.2790 ha        1 G08      0.172000
     57 H17        -1.1940    4.3210    2.3650 ha        1 G08      0.165000
     58 H18         0.5680    3.1090    1.0910 ha        1 G08      0.133500
     59 H19         1.2860   -1.1010   -2.2310 h1        1 G08      0.065700
     60 H20         2.6570   -0.4130   -0.6550 ho        1 G08      0.455000
     61 H21         0.8400    0.6350   -4.1410 h1        1 G08      0.103200
     62 H22         2.1820    1.6550   -3.3930 h1        1 G08      0.103200
     63 H23         4.8500    0.0840   -4.6350 h1        1 G08      0.076700
     64 H24         4.2420    0.6560   -3.0030 h1        1 G08      0.076700
     65 H25         3.8280   -1.7280   -2.3290 hc        1 G08      0.064700
     66 H26         3.5540   -2.8690   -4.5130 hc        1 G08      0.052367
     67 H27         5.0030   -3.5360   -3.6720 hc        1 G08      0.052367
     68 H28         5.2200   -2.3620   -5.0290 hc        1 G08      0.052367
     69 H29         6.2460   -2.2510   -2.0220 hc        1 G08      0.052367
     70 H30         6.6930   -1.0540   -3.3060 hc        1 G08      0.052367
     71 H31         5.9170   -0.4870   -1.7650 hc        1 G08      0.052367
     72 H32         3.3690   -1.2220   -8.1440 ha        1 G08      0.201000
     73 H33         5.4710   -1.6470   -9.3570 ha        1 G08      0.193500
     74 H34         5.1570    2.2690   -6.2450 ha        1 G08      0.201000
     75 H35         7.2780    1.8380   -7.4480 ha        1 G08      0.193500
     76 H36         7.5970    0.6870  -11.0510 hn        1 G08      0.487133
     77 H37         8.7620   -0.5120  -10.9890 hn        1 G08      0.487133
     78 H202        0.6550   -0.2470    0.1990 hn        1 G08      0.491300
     79 H111        2.4620   -1.0690   -4.5030 hn        1 G08      0.413800
     80 H131        7.1360   -0.9180  -11.0010 hn        1 G08      0.487133
@<TRIPOS>BOND
     1    1    2 2   
     2    2    3 1   
     3    2   12 1   
     4    3    4 1   
     5    4    5 1   
     6    4   11 1   
     7    4   41 1   
     8    5    6 1   
     9    5    9 1   
    10    5   42 1   
    11    6    7 1   
    12    6   43 1   
    13    6   44 1   
    14    7    8 1   
    15    7   45 1   
    16    7   46 1   
    17    8    9 1   
    18    9   10 1   
    19    9   47 1   
    20   10   11 1   
    21   11   48 1   
    22   11   49 1   
    23   12   13 1   
    24   12   50 1   
    25   12   78 1   
    26   13   14 1   
    27   13   21 1   
    28   13   51 1   
    29   14   15 1   
    30   14   52 1   
    31   14   53 1   
    32   15   16 ar  
    33   15   20 ar  
    34   16   17 ar  
    35   16   54 1   
    36   17   18 ar  
    37   17   55 1   
    38   18   19 ar  
    39   18   56 1   
    40   19   20 ar  
    41   19   57 1   
    42   20   58 1   
    43   21   22 1   
    44   21   23 1   
    45   21   59 1   
    46   22   60 1   
    47   23   24 1   
    48   23   61 1   
    49   23   62 1   
    50   24   25 1   
    51   24   79 1   
    52   25   26 1   
    53   25   63 1   
    54   25   64 1   
    55   26   27 1   
    56   26   28 1   
    57   26   65 1   
    58   27   66 1   
    59   27   67 1   
    60   27   68 1   
    61   28   69 1   
    62   28   70 1   
    63   28   71 1   
    64   29   30 1   
    65   29   31 1   
    66   29   32 1   
    67   32   33 ar  
    68   32   35 ar  
    69   33   34 ar  
    70   33   72 1   
    71   34   37 ar  
    72   34   73 1   
    73   35   36 ar  
    74   35   74 1   
    75   36   37 ar  
    76   36   75 1   
    77   37   38 1   
    78   38   39 2   
    79   38   40 1   
    80   40   76 1   
    81   40   77 1   
    82   40   80 1   
@<TRIPOS>SUBSTRUCTURE
     1 G08         1 TEMP              0 ****  ****    0 ROOT
