@<TRIPOS>MOLECULE
G08
   77    80     1     0     0
SMALL
bcc


@<TRIPOS>ATOM
      1 O22        -2.4720   -1.1940    1.2160 o         1 G08     -0.587000
      2 C21        -2.6190   -0.2230    0.4550 c         1 G08      0.731100
      3 O23        -3.4150    0.8390    0.8530 os        1 G08     -0.434900
      4 C24        -4.1710    0.6600    2.0550 c3        1 G08      0.129100
      5 C31        -5.6080    0.1730    1.7980 c3        1 G08     -0.131700
      6 C30        -6.1090    0.3090    0.3650 c3        1 G08     -0.104400
      7 C29        -7.0380    1.5220    0.3680 c3        1 G08      0.125400
      8 O28        -7.3620    1.8350    1.7290 os        1 G08     -0.419600
      9 C27        -6.4870    1.1570    2.6130 c3        1 G08      0.321900
     10 O26        -5.6590    2.1670    3.1750 os        1 G08     -0.418600
     11 C25        -4.3230    2.0580    2.6850 c3        1 G08      0.121400
     12 N20        -2.1200   -0.0490   -0.8210 n         1 G08     -0.505900
     13 C19        -1.0260   -0.8910   -1.2670 c3        1 G08      0.077700
     14 C32        -0.9760   -0.9550   -2.8040 c3        1 G08     -0.044100
     15 C38        -2.1930   -1.5790   -3.3890 ca        1 G08     -0.078300
     16 C37        -2.4580   -2.9380   -3.1830 ca        1 G08     -0.122000
     17 C36        -3.5880   -3.5270   -3.7480 ca        1 G08     -0.126000
     18 C35        -4.4610   -2.7650   -4.5250 ca        1 G08     -0.127000
     19 C34        -4.2000   -1.4120   -4.7350 ca        1 G08     -0.126000
     20 C33        -3.0710   -0.8200   -4.1700 ca        1 G08     -0.122000
     21 C17         0.3440   -0.4170   -0.7000 c3        1 G08      0.086100
     22 O18         0.7630    0.7800   -1.3220 oh        1 G08     -0.617800
     23 C16         1.3850   -1.5510   -0.8140 c3        1 G08      0.191800
     24 N11         2.6610   -1.2590   -0.2180 n3        1 G08     -0.804500
     25 C12         2.8160   -1.6050    1.1710 c3        1 G08      0.229800
     26 C13         3.0260   -3.1010    1.4710 c3        1 G08     -0.084700
     27 C15         4.4390   -3.5340    1.1490 c3        1 G08     -0.099100
     28 C14         2.7140   -3.3540    2.9320 c3        1 G08     -0.099100
     29 S8          3.8300   -0.5420   -1.1100 sy        1 G08      1.510200
     30 O9          4.9390   -1.3930   -1.2680 o         1 G08     -0.656800
     31 O10         3.2370   -0.0740   -2.3090 o         1 G08     -0.656800
     32 C5          4.3040    0.7730   -0.1610 ca        1 G08     -0.365500
     33 C4          5.5160    0.7460    0.5410 ca        1 G08     -0.023000
     34 C3          5.9360    1.8440    1.2850 ca        1 G08     -0.124000
     35 C6          3.5240    1.9340   -0.1090 ca        1 G08     -0.023000
     36 C7          3.9330    3.0400    0.6340 ca        1 G08     -0.124000
     37 C2          5.1370    2.9930    1.3400 ca        1 G08     -0.074600
     38 C1          5.6290    4.1540    2.1430 c         1 G08      0.661700
     39 O1          6.8420    4.4390    2.2040 o         1 G08     -0.596100
     40 N1          4.7080    4.8990    2.8350 n         1 G08     -0.670000
     41 H1         -3.6360   -0.0470    2.7450 h1        1 G08      0.093700
     42 H2         -5.7220   -0.8760    2.1630 hc        1 G08      0.085700
     43 H3         -5.2690    0.4530   -0.3590 hc        1 G08      0.066700
     44 H4         -6.6670   -0.6120    0.0640 hc        1 G08      0.066700
     45 H5         -6.5480    2.4220   -0.0840 h1        1 G08      0.051700
     46 H6         -8.0140    1.3210   -0.1420 h1        1 G08      0.051700
     47 H7         -7.1020    0.7260    3.4420 h2        1 G08      0.101700
     48 H8         -3.6510    2.1940    3.5690 h1        1 G08      0.063700
     49 H9         -4.1470    2.8660    1.9300 h1        1 G08      0.063700
     50 H10        -2.1610    0.8690   -1.2040 hn        1 G08      0.325500
     51 H11        -1.2220   -1.9310   -0.8640 h1        1 G08      0.090700
     52 H12        -0.8270    0.0770   -3.2210 hc        1 G08      0.062700
     53 H13        -0.0780   -1.5650   -3.0930 hc        1 G08      0.062700
     54 H14        -1.7720   -3.5430   -2.5720 ha        1 G08      0.129500
     55 H15        -3.7900   -4.5960   -3.5800 ha        1 G08      0.133000
     56 H16        -5.3510   -3.2320   -4.9710 ha        1 G08      0.133000
     57 H17        -4.8850   -0.8080   -5.3490 ha        1 G08      0.133000
     58 H18        -2.8710    0.2490   -4.3410 ha        1 G08      0.129500
     59 H19         0.2160   -0.1350    0.3870 h1        1 G08      0.084700
     60 H20         1.1380    0.5580   -2.1900 ho        1 G08      0.434000
     61 H21         0.9450   -2.4690   -0.3290 h1        1 G08      0.068700
     62 H22         1.5510   -1.7800   -1.9080 h1        1 G08      0.068700
     63 H23         3.7040   -1.0350    1.5770 h1        1 G08      0.049200
     64 H24         1.9010   -1.2580    1.7340 h1        1 G08      0.049200
     65 H25         2.3120   -3.7090    0.8460 hc        1 G08      0.053700
     66 H26         5.1700   -3.0150    1.8150 hc        1 G08      0.041700
     67 H27         4.5460   -4.6350    1.3040 hc        1 G08      0.041700
     68 H28         4.6990   -3.2970    0.0880 hc        1 G08      0.041700
     69 H29         3.3600   -2.7210    3.5870 hc        1 G08      0.041700
     70 H30         1.6450   -3.1210    3.1540 hc        1 G08      0.041700
     71 H31         2.9020   -4.4260    3.1810 hc        1 G08      0.041700
     72 H32         6.1530   -0.1570    0.4860 ha        1 G08      0.168500
     73 H33         6.9000    1.8280    1.8190 ha        1 G08      0.155500
     74 H34         2.5710    1.9730   -0.6720 ha        1 G08      0.168500
     75 H35         3.3080    3.9460    0.6400 ha        1 G08      0.155500
     76 H36         3.7490    4.6700    2.8250 hn        1 G08      0.316500
     77 H37         5.0150    5.6650    3.3820 hn        1 G08      0.316500
@<TRIPOS>BOND
     1    1    2 2   
     2    2    3 1   
     3    2   12 1   
     4    3    4 1   
     5    4    5 1   
     6    4   11 1   
     7    4   41 1   
     8    5    6 1   
     9    5    9 1   
    10    5   42 1   
    11    6    7 1   
    12    6   43 1   
    13    6   44 1   
    14    7    8 1   
    15    7   45 1   
    16    7   46 1   
    17    8    9 1   
    18    9   10 1   
    19    9   47 1   
    20   10   11 1   
    21   11   48 1   
    22   11   49 1   
    23   12   13 1   
    24   12   50 1   
    25   13   14 1   
    26   13   21 1   
    27   13   51 1   
    28   14   15 1   
    29   14   52 1   
    30   14   53 1   
    31   15   16 ar  
    32   15   20 ar  
    33   16   17 ar  
    34   16   54 1   
    35   17   18 ar  
    36   17   55 1   
    37   18   19 ar  
    38   18   56 1   
    39   19   20 ar  
    40   19   57 1   
    41   20   58 1   
    42   21   22 1   
    43   21   23 1   
    44   21   59 1   
    45   22   60 1   
    46   23   24 1   
    47   23   61 1   
    48   23   62 1   
    49   24   25 1   
    50   24   29 1   
    51   25   26 1   
    52   25   63 1   
    53   25   64 1   
    54   26   27 1   
    55   26   28 1   
    56   26   65 1   
    57   27   66 1   
    58   27   67 1   
    59   27   68 1   
    60   28   69 1   
    61   28   70 1   
    62   28   71 1   
    63   29   30 2   
    64   29   31 2   
    65   29   32 1   
    66   32   33 ar  
    67   32   35 ar  
    68   33   34 ar  
    69   33   72 1   
    70   34   37 ar  
    71   34   73 1   
    72   35   36 ar  
    73   35   74 1   
    74   36   37 ar  
    75   36   75 1   
    76   37   38 1   
    77   38   39 2   
    78   38   40 1   
    79   40   76 1   
    80   40   77 1   
@<TRIPOS>SUBSTRUCTURE
     1 G08         1 TEMP              0 ****  ****    0 ROOT
