@<TRIPOS>MOLECULE
G08
   77    73     1     0     0
SMALL
bcc


@<TRIPOS>ATOM
      1 O22        -1.8970    0.1730    2.0670 o         1 G08     -0.414000
      2 C21        -0.9700    0.2290    2.8530 c1        1 G08      0.390000
      3 O23        -1.0610   -0.4540    4.1300 o         1 G08     -0.268000
      4 C24        -1.7510   -1.7360    4.0650 c3        1 G08      0.020000
      5 C31        -1.8670   -2.4030    5.5770 c3        1 G08     -0.171000
      6 C30        -0.5250   -2.2510    6.3680 c3        1 G08     -0.183000
      7 C29        -0.1840   -3.6330    6.8280 c3        1 G08     -0.025000
      8 O28        -1.2490   -4.3210    6.6170 os        1 G08     -0.276000
      9 C27        -2.0090   -3.5990    5.4180 c3        1 G08      0.139000
     10 O26        -1.3040   -3.9170    4.0000 os        1 G08     -0.275000
     11 C25        -1.0650   -2.5710    3.3590 c3        1 G08     -0.029000
     12 N20         0.2600    0.9970    2.5030 n3        1 G08     -0.319000
     13 C19         0.2730    1.8370    1.3300 c3        1 G08      0.037000
     14 C32         0.9380    3.1570    1.6610 c3        1 G08     -0.122000
     15 C38        -0.1480    4.2000    2.0890 c1        1 G08     -0.073000
     16 C37        -1.0990    4.6550    1.1450 c1        1 G08     -0.126750
     17 C36        -1.9720    5.6880    1.4800 c1        1 G08     -0.126750
     18 C35        -1.9070    6.2800    2.7580 c1        1 G08     -0.126750
     19 C34        -0.9680    5.8320    3.6910 c1        1 G08     -0.126750
     20 C33        -0.0850    4.7880    3.3550 c1        1 G08     -0.122000
     21 C17         1.0410    1.1500    0.2240 c3        1 G08     -0.036000
     22 O18         2.3070    1.7200    0.1170 oh        1 G08     -0.330000
     23 C16         0.2750    1.3180   -1.1290 c3        1 G08     -0.047000
     24 N11         0.8380    0.3980   -2.1280 n3        1 G08     -0.830000
     25 C12         1.3290    0.9200   -3.3830 c3        1 G08     -0.022000
     26 C13         2.8830    1.3040   -3.2370 c3        1 G08     -0.133000
     27 C15         3.7170    0.1580   -3.6740 c3        1 G08     -0.212500
     28 C14         3.2070    2.5600   -4.1370 c3        1 G08     -0.212500
     29 S8          0.6730   -1.2750   -1.9210 s4        1 G08      2.057800
     30 O9          1.9540   -1.9050   -1.7100 o         1 G08     -0.539900
     31 O10        -0.0000   -1.5860   -0.6820 o         1 G08     -0.539900
     32 C5         -0.2010   -2.0140   -3.3630 c1        1 G08     -0.812000
     33 C4          0.4590   -2.1320   -4.5910 c2        1 G08     -0.027000
     34 C3         -0.1510   -2.7830   -5.6450 c1        1 G08     -0.139000
     35 C6         -1.4690   -2.5520   -3.2040 c1        1 G08     -0.023000
     36 C7         -2.0870   -3.2110   -4.2690 c1        1 G08     -0.103000
     37 C2         -1.4320   -3.3260   -5.4860 c1        1 G08     -0.058000
     38 C1         -2.0640   -4.1340   -6.6200 c2        1 G08      0.336000
     39 O1         -3.1580   -4.5970   -6.4840 o         1 G08     -0.355000
     40 N1         -1.4060   -4.2060   -7.9080 n         1 G08     -0.432000
     41 H1         -2.6620   -1.6180    3.6700 h1        1 G08      0.135000
     42 H2         -2.6230   -2.0200    6.0810 hc        1 G08      0.126000
     43 H3          0.1840   -1.9020    5.7750 hc        1 G08      0.105000
     44 H4         -0.6520   -1.6510    7.1460 hc        1 G08      0.105000
     45 H5          0.0380   -3.6300    7.7940 h1        1 G08      0.090500
     46 H6          0.5590   -3.9890    6.3090 h1        1 G08      0.090500
     47 H7         -2.9740   -3.8450    5.4020 h2        1 G08      0.141000
     48 H8         -1.3800   -2.5730    2.4420 h1        1 G08      0.105500
     49 H9         -0.1240   -2.3450    3.3920 h1        1 G08      0.105500
     50 H10         1.0140    0.9870    3.0930 hn        1 G08      0.241000
     51 H11        -0.6160    1.9940    1.0450 h1        1 G08      0.120000
     52 H12         1.5720    3.0270    2.3940 hc        1 G08      0.107500
     53 H13         1.4280    3.4970    0.8510 hc        1 G08      0.107500
     54 H14        -1.1450    4.2320    0.2290 ha        1 G08      0.131250
     55 H15        -2.6520    6.0160    0.8040 ha        1 G08      0.131250
     56 H16        -2.5210    7.0070    2.9930 ha        1 G08      0.131250
     57 H17        -0.9250    6.2530    4.5990 ha        1 G08      0.131250
     58 H18         0.5910    4.4670    4.0240 ha        1 G08      0.131000
     59 H19         1.1300    0.1980    0.4330 h1        1 G08      0.118000
     60 H20         2.9090    1.2030    0.5610 ho        1 G08      0.219000
     61 H21        -0.6530    1.1200   -0.9970 h1        1 G08      0.100000
     62 H22         0.3700    2.2510   -1.4510 h1        1 G08      0.100000
     63 H23         1.2210    0.2230   -4.1000 h1        1 G08      0.100500
     64 H24         0.8270    1.7010   -3.6200 h1        1 G08      0.100500
     65 H25         3.0830    1.5140   -2.2930 hc        1 G08      0.101000
     66 H26         3.3680   -0.2000   -4.4890 hc        1 G08      0.078833
     67 H27         4.6470    0.4630   -3.8190 hc        1 G08      0.078833
     68 H28         3.7060   -0.5260   -2.9900 hc        1 G08      0.078833
     69 H29         2.6560    3.3150   -3.8570 hc        1 G08      0.078833
     70 H30         3.0160    2.3470   -5.0760 hc        1 G08      0.078833
     71 H31         4.1630    2.7980   -4.0400 hc        1 G08      0.078833
     72 H32         1.3850   -1.7390   -4.7070 ha        1 G08      0.158000
     73 H33         0.3230   -2.8650   -6.5260 ha        1 G08      0.142000
     74 H34        -1.9380   -2.4700   -2.3290 ha        1 G08      0.180000
     75 H35        -3.0080   -3.6000   -4.1550 ha        1 G08      0.172000
     76 H36        -1.8110   -4.6450   -8.6080 hn        1 G08      0.229000
     77 H37        -0.6260   -3.7570   -8.0440 hn        1 G08      0.229000
@<TRIPOS>BOND
     1    1    2 1   
     2    2   12 1   
     3    3    4 1   
     4    4    5 1   
     5    4   11 1   
     6    4   41 1   
     7    5    6 1   
     8    5    9 1   
     9    5   42 1   
    10    6    7 1   
    11    6   43 1   
    12    6   44 1   
    13    7    8 1   
    14    7   45 1   
    15    7   46 1   
    16    8    9 1   
    17    9   10 1   
    18    9   47 1   
    19   10   11 1   
    20   11   48 1   
    21   11   49 1   
    22   12   13 1   
    23   12   50 1   
    24   13   14 1   
    25   13   21 1   
    26   13   51 1   
    27   14   15 1   
    28   14   52 1   
    29   14   53 1   
    30   15   20 1   
    31   16   17 1   
    32   16   54 1   
    33   17   55 1   
    34   18   19 1   
    35   18   56 1   
    36   19   57 1   
    37   20   58 1   
    38   21   22 1   
    39   21   23 1   
    40   21   59 1   
    41   22   60 1   
    42   23   24 1   
    43   23   61 1   
    44   23   62 1   
    45   24   25 1   
    46   24   29 1   
    47   25   26 1   
    48   25   63 1   
    49   25   64 1   
    50   26   27 1   
    51   26   28 1   
    52   26   65 1   
    53   27   66 1   
    54   27   67 1   
    55   27   68 1   
    56   28   69 1   
    57   28   70 1   
    58   28   71 1   
    59   29   30 1   
    60   29   31 1   
    61   32   33 1   
    62   32   35 1   
    63   33   34 1   
    64   33   72 1   
    65   34   73 1   
    66   35   74 1   
    67   36   37 1   
    68   36   75 1   
    69   37   38 1   
    70   38   39 1   
    71   38   40 1   
    72   40   76 1   
    73   40   77 1   
@<TRIPOS>SUBSTRUCTURE
     1 G08         1 TEMP              0 ****  ****    0 ROOT
