@<TRIPOS>MOLECULE
G08
   80    82     1     0     0
SMALL
bcc


@<TRIPOS>ATOM
      1 O22        -1.9060   -1.1330   -1.2640 o         1 G08     -0.351000
      2 C21        -1.2010   -0.9180   -0.2960 c         1 G08      0.623100
      3 O23        -1.3930   -1.5790    0.8810 os        1 G08     -0.379900
      4 C24        -0.4340   -2.5850    1.2870 c3        1 G08      0.128100
      5 C31         0.5250   -2.0940    2.3840 c3        1 G08     -0.144700
      6 C30         0.1960   -0.7770    3.0720 c3        1 G08     -0.118400
      7 C29         1.3210    0.1820    2.6830 c3        1 G08      0.110400
      8 O28         2.0580   -0.4220    1.5940 os        1 G08     -0.465600
      9 C27         1.8590   -1.8300    1.6310 c3        1 G08      0.307900
     10 O26         1.6480   -2.1340    0.2430 os        1 G08     -0.482600
     11 C25         0.5060   -3.0040    0.1480 c3        1 G08      0.075400
     12 N20        -0.1820    0.1820   -0.2670 ny        1 G08     -0.682800
     13 C19         0.1920    0.7200   -1.6220 c3        1 G08      0.103500
     14 C32         0.3910    2.2460   -1.5660 c3        1 G08     -0.046100
     15 C38        -0.6900    2.9420   -0.8200 ca        1 G08     -0.181300
     16 C37        -1.9210    3.2030   -1.4340 ca        1 G08     -0.133000
     17 C36        -2.9130    3.9030   -0.7470 ca        1 G08     -0.109500
     18 C35        -2.6800    4.3500    0.5550 ca        1 G08     -0.083000
     19 C34        -1.4530    4.0950    1.1710 ca        1 G08     -0.109500
     20 C33        -0.4610    3.3920    0.4880 ca        1 G08     -0.133000
     21 C17         1.4770    0.0160   -2.1540 c3        1 G08      0.123100
     22 O18         2.5850    0.3470   -1.3440 oh        1 G08     -0.597800
     23 C16         1.7850    0.5540   -3.5680 c3        1 G08      0.109800
     24 N11         2.7840   -0.1790   -4.3510 n7        1 G08     -0.916200
     25 C12         4.1410   -0.1610   -3.7870 c3        1 G08      0.119800
     26 C13         4.5910   -1.4550   -3.0950 c3        1 G08     -0.080700
     27 C15         4.6270   -2.6300   -4.0460 c3        1 G08     -0.104100
     28 C14         5.9600   -1.2220   -2.4860 c3        1 G08     -0.104100
     29 S8          2.6570    0.7460   -6.4340 s4        1 G08      1.621300
     30 O9          1.6310   -0.0690   -6.7930 o         1 G08     -0.404400
     31 O10         2.5350    2.0180   -5.9750 o         1 G08     -0.404400
     32 C5          4.0740    0.3990   -7.1290 ca        1 G08     -0.489500
     33 C4          4.2130   -0.7280   -7.9670 ca        1 G08      0.029000
     34 C3          5.3960   -0.9730   -8.6630 ca        1 G08     -0.097500
     35 C6          5.1810    1.2640   -6.9980 ca        1 G08      0.029000
     36 C7          6.3720    1.0250   -7.6820 ca        1 G08     -0.097500
     37 C2          6.4750   -0.0930   -8.5200 ca        1 G08     -0.072600
     38 C1          7.7820   -0.3620   -9.1650 c         1 G08      0.539700
     39 O1          8.8620   -0.4840   -8.6180 o         1 G08     -0.324100
     40 N1          7.7870   -0.4840  -10.6690 nz        1 G08     -0.754400
     41 H1         -1.1110   -3.4130    1.6450 h1        1 G08      0.158700
     42 H2          0.6450   -2.9160    3.1380 hc        1 G08      0.132700
     43 H3          0.1640   -0.9080    4.1850 hc        1 G08      0.095700
     44 H4         -0.8050   -0.3850    2.7600 hc        1 G08      0.095700
     45 H5          2.0410    0.3530    3.5250 h1        1 G08      0.080200
     46 H6          0.9560    1.1660    2.2920 h1        1 G08      0.080200
     47 H7          2.7760   -2.3510    1.9990 h2        1 G08      0.135700
     48 H8          0.8420   -4.0650    0.2870 h1        1 G08      0.096200
     49 H9          0.0840   -2.8700   -0.8790 h1        1 G08      0.096200
     50 H10         0.6720   -0.1540    0.2160 hn        1 G08      0.491300
     51 H11        -0.6690    0.4900   -2.3220 hx        1 G08      0.124700
     52 H12         1.3950    2.4700   -1.1110 hc        1 G08      0.088200
     53 H13         0.4050    2.6140   -2.6280 hc        1 G08      0.088200
     54 H14        -2.1040    2.8730   -2.4680 ha        1 G08      0.133500
     55 H15        -3.8770    4.1140   -1.2380 ha        1 G08      0.165000
     56 H16        -3.4600    4.9150    1.0930 ha        1 G08      0.172000
     57 H17        -1.2620    4.4650    2.1910 ha        1 G08      0.165000
     58 H18         0.5200    3.2350    0.9630 ha        1 G08      0.133500
     59 H19         1.3100   -1.0990   -2.1780 h1        1 G08      0.065700
     60 H20         2.6740   -0.3170   -0.6390 ho        1 G08      0.455000
     61 H21         2.1470    1.6210   -3.4600 h1        1 G08      0.103200
     62 H22         0.8240    0.5440   -4.1590 h1        1 G08      0.103200
     63 H23         4.8420    0.0520   -4.6460 h1        1 G08      0.077200
     64 H24         4.2290    0.6820   -3.0380 h1        1 G08      0.077200
     65 H25         3.8650   -1.6790   -2.2600 hc        1 G08      0.064700
     66 H26         5.2590   -2.4000   -4.9370 hc        1 G08      0.052367
     67 H27         3.6050   -2.9170   -4.3910 hc        1 G08      0.052367
     68 H28         5.0710   -3.5180   -3.5290 hc        1 G08      0.052367
     69 H29         6.7120   -0.9910   -3.2780 hc        1 G08      0.052367
     70 H30         6.2940   -2.1390   -1.9420 hc        1 G08      0.052367
     71 H31         5.9310   -0.3740   -1.7590 hc        1 G08      0.052367
     72 H32         3.3630   -1.4310   -8.0910 ha        1 G08      0.201000
     73 H33         5.4660   -1.8750   -9.2970 ha        1 G08      0.193500
     74 H34         5.1070    2.1630   -6.3510 ha        1 G08      0.201000
     75 H35         7.2280    1.7140   -7.5470 ha        1 G08      0.193500
     76 H36         8.7300   -0.7600  -10.9940 hn        1 G08      0.487133
     77 H37         7.1100   -1.1900  -10.9800 hn        1 G08      0.487133
     78 H202       -0.5850    0.9560    0.2990 hn        1 G08      0.491300
     79 H111        2.4790   -1.1410   -4.4550 hn        1 G08      0.413800
     80 H131        7.5470    0.4180  -11.1000 hn        1 G08      0.487133
@<TRIPOS>BOND
     1    1    2 2   
     2    2    3 1   
     3    2   12 1   
     4    3    4 1   
     5    4    5 1   
     6    4   11 1   
     7    4   41 1   
     8    5    6 1   
     9    5    9 1   
    10    5   42 1   
    11    6    7 1   
    12    6   43 1   
    13    6   44 1   
    14    7    8 1   
    15    7   45 1   
    16    7   46 1   
    17    8    9 1   
    18    9   10 1   
    19    9   47 1   
    20   10   11 1   
    21   11   48 1   
    22   11   49 1   
    23   12   13 1   
    24   12   50 1   
    25   12   78 1   
    26   13   14 1   
    27   13   21 1   
    28   13   51 1   
    29   14   15 1   
    30   14   52 1   
    31   14   53 1   
    32   15   16 ar  
    33   15   20 ar  
    34   16   17 ar  
    35   16   54 1   
    36   17   18 ar  
    37   17   55 1   
    38   18   19 ar  
    39   18   56 1   
    40   19   20 ar  
    41   19   57 1   
    42   20   58 1   
    43   21   22 1   
    44   21   23 1   
    45   21   59 1   
    46   22   60 1   
    47   23   24 1   
    48   23   61 1   
    49   23   62 1   
    50   24   25 1   
    51   24   79 1   
    52   25   26 1   
    53   25   63 1   
    54   25   64 1   
    55   26   27 1   
    56   26   28 1   
    57   26   65 1   
    58   27   66 1   
    59   27   67 1   
    60   27   68 1   
    61   28   69 1   
    62   28   70 1   
    63   28   71 1   
    64   29   30 1   
    65   29   31 1   
    66   29   32 1   
    67   32   33 ar  
    68   32   35 ar  
    69   33   34 ar  
    70   33   72 1   
    71   34   37 ar  
    72   34   73 1   
    73   35   36 ar  
    74   35   74 1   
    75   36   37 ar  
    76   36   75 1   
    77   37   38 1   
    78   38   39 2   
    79   38   40 1   
    80   40   76 1   
    81   40   77 1   
    82   40   80 1   
@<TRIPOS>SUBSTRUCTURE
     1 G08         1 TEMP              0 ****  ****    0 ROOT
