@<TRIPOS>MOLECULE
G0G
   72    74     1     0     0
SMALL
bcc


@<TRIPOS>ATOM
      1 O10        -0.6580    1.7820    0.1020 o         1 G0G     -0.442150
      2 S8          0.4980    1.2330   -0.3670 s4        1 G0G      1.680800
      3 N28         1.3760    0.9200    1.8110 n7        1 G0G     -0.902700
      4 C7          2.6200    0.1390    1.7260 c3        1 G0G      0.171600
      5 C12         3.8560    0.8720    2.1500 ca        1 G0G     -0.148300
      6 C13         5.0070    0.7810    1.3600 ca        1 G0G     -0.124500
      7 C29         6.1830    1.4140    1.7630 ca        1 G0G     -0.118250
      8 C31         6.2130    2.1440    2.9510 ca        1 G0G     -0.098000
      9 C30         5.0670    2.2340    3.7420 ca        1 G0G     -0.118250
     10 C14         3.8920    1.5960    3.3460 ca        1 G0G     -0.124500
     11 C23         0.4630    0.4340    2.8650 c3        1 G0G      0.129000
     12 C21        -0.7520    1.3920    3.0830 c3        1 G0G      0.131800
     13 N22        -1.9630    0.7410    2.6030 n7        1 G0G     -0.818200
     14 C25        -1.5990   -0.5130    1.9600 c3        1 G0G      0.131800
     15 C24        -0.2110   -0.9470    2.5290 c3        1 G0G      0.129000
     16 N32        -0.3460   -1.8320    3.7000 n7        1 G0G     -0.902700
     17 S9         -0.2490   -1.1500    6.0580 s4        1 G0G      1.680800
     18 O11         0.0470    0.1490    5.8000 o         1 G0G     -0.442150
     19 C27        -1.7360   -1.5360    6.3020 ca        1 G0G     -0.617000
     20 C18        -2.0860   -2.7900    6.8760 ca        1 G0G      0.030250
     21 C2         -3.4000   -3.1100    7.1630 ca        1 G0G     -0.148000
     22 C6         -4.4240   -2.1930    6.8850 ca        1 G0G      0.040000
     23 C5         -4.1130   -0.9560    6.3060 ca        1 G0G     -0.148000
     24 C20        -2.7980   -0.6340    6.0190 ca        1 G0G      0.030250
     25 O40         0.7060   -2.0530    6.3880 o         1 G0G     -0.442150
     26 C33         0.3280   -3.1340    3.5450 c3        1 G0G      0.171600
     27 C34         1.7640   -3.1110    3.1280 ca        1 G0G     -0.148300
     28 C35         2.1050   -3.4140    1.8040 ca        1 G0G     -0.124500
     29 C36         3.4440   -3.5330    1.4370 ca        1 G0G     -0.118250
     30 C37         4.4500   -3.3460    2.3860 ca        1 G0G     -0.098000
     31 C39         4.1140   -3.0380    3.7050 ca        1 G0G     -0.118250
     32 C38         2.7750   -2.9240    4.0770 ca        1 G0G     -0.124500
     33 O41         0.5840   -0.0850   -0.6920 o         1 G0G     -0.442150
     34 C26         1.5890    2.2040   -0.9080 ca        1 G0G     -0.617000
     35 C19         1.4640    3.6130   -0.7640 ca        1 G0G      0.030250
     36 C3          2.3960    4.4800   -1.3050 ca        1 G0G     -0.148000
     37 C4          3.4940    3.9770   -2.0150 ca        1 G0G      0.040000
     38 C1          3.6490    2.5940   -2.1710 ca        1 G0G     -0.148000
     39 C17         2.7190    1.7260   -1.6260 ca        1 G0G      0.030250
     40 H71         2.5390   -0.8100    2.3420 h1        1 G0G      0.077200
     41 H72         2.7190   -0.1850    0.6470 h1        1 G0G      0.077200
     42 H13         4.9950    0.1960    0.4280 ha        1 G0G      0.136000
     43 H29         7.0910    1.3300    1.1440 ha        1 G0G      0.155000
     44 H31         7.1430    2.6430    3.2690 ha        1 G0G      0.159000
     45 H30         5.0920    2.8030    4.6850 ha        1 G0G      0.155000
     46 H14         3.0050    1.6550    3.9940 ha        1 G0G      0.136000
     47 H23         1.0520    0.3680    3.8260 h1        1 G0G      0.097700
     48 H211       -0.5930    2.3970    2.6040 h1        1 G0G      0.066950
     49 H212       -0.8680    1.5630    4.1910 h1        1 G0G      0.066950
     50 HN22       -2.4730    1.3340    1.9720 hn        1 G0G      0.400800
     51 H251       -2.4140   -1.2620    2.1560 h1        1 G0G      0.066950
     52 H252       -1.4990   -0.4250    0.8410 h1        1 G0G      0.066950
     53 H24         0.3690   -1.4830    1.7210 h1        1 G0G      0.097700
     54 H18        -1.2820   -3.5170    7.1070 ha        1 G0G      0.173000
     55 H2         -3.6450   -4.0870    7.6180 ha        1 G0G      0.187750
     56 H6         -5.4740   -2.4470    7.1230 ha        1 G0G      0.186000
     57 H5         -4.9190   -0.2340    6.0830 ha        1 G0G      0.187750
     58 H20        -2.5610    0.3460    5.5590 ha        1 G0G      0.173000
     59 H331        0.2620   -3.6410    4.5550 h1        1 G0G      0.077200
     60 H332       -0.2430   -3.7730    2.8070 h1        1 G0G      0.077200
     61 H35         1.3170   -3.5940    1.0550 ha        1 G0G      0.136000
     62 H36         3.7070   -3.7990    0.4010 ha        1 G0G      0.155000
     63 H37         5.5080   -3.4600    2.1000 ha        1 G0G      0.159000
     64 H39         4.9050   -2.9040    4.4590 ha        1 G0G      0.155000
     65 H38         2.5170   -2.7240    5.1300 ha        1 G0G      0.136000
     66 H19         0.5900    4.0190   -0.2190 ha        1 G0G      0.173000
     67 H3          2.2720    5.5710   -1.1850 ha        1 G0G      0.187750
     68 H4          4.2360    4.6710   -2.4530 ha        1 G0G      0.186000
     69 H1          4.5110    2.1970   -2.7350 ha        1 G0G      0.187750
     70 H17         2.8440    0.6330   -1.7590 ha        1 G0G      0.173000
     71 H281        1.6100    1.8750    2.0610 hn        1 G0G      0.390800
     72 H321       -1.3350   -2.0430    3.7920 hn        1 G0G      0.390800
@<TRIPOS>BOND
     1    1    2 1   
     2    2   33 1   
     3    2   34 1   
     4    3    4 1   
     5    3   11 1   
     6    3   71 1   
     7    4    5 1   
     8    4   40 1   
     9    4   41 1   
    10    5    6 ar  
    11    5   10 ar  
    12    6    7 ar  
    13    6   42 1   
    14    7    8 ar  
    15    7   43 1   
    16    8    9 ar  
    17    8   44 1   
    18    9   10 ar  
    19    9   45 1   
    20   10   46 1   
    21   11   12 1   
    22   11   15 1   
    23   11   47 1   
    24   12   13 1   
    25   12   48 1   
    26   12   49 1   
    27   13   14 1   
    28   13   50 1   
    29   14   15 1   
    30   14   51 1   
    31   14   52 1   
    32   15   16 1   
    33   15   53 1   
    34   16   26 1   
    35   16   72 1   
    36   17   18 1   
    37   17   19 1   
    38   17   25 1   
    39   19   20 ar  
    40   19   24 ar  
    41   20   21 ar  
    42   20   54 1   
    43   21   22 ar  
    44   21   55 1   
    45   22   23 ar  
    46   22   56 1   
    47   23   24 ar  
    48   23   57 1   
    49   24   58 1   
    50   26   27 1   
    51   26   59 1   
    52   26   60 1   
    53   27   28 ar  
    54   27   32 ar  
    55   28   29 ar  
    56   28   61 1   
    57   29   30 ar  
    58   29   62 1   
    59   30   31 ar  
    60   30   63 1   
    61   31   32 ar  
    62   31   64 1   
    63   32   65 1   
    64   34   35 ar  
    65   34   39 ar  
    66   35   36 ar  
    67   35   66 1   
    68   36   37 ar  
    69   36   67 1   
    70   37   38 ar  
    71   37   68 1   
    72   38   39 ar  
    73   38   69 1   
    74   39   70 1   
@<TRIPOS>SUBSTRUCTURE
     1 G0G         1 TEMP              0 ****  ****    0 ROOT
