@<TRIPOS>MOLECULE
G0G
   70    74     1     0     0
SMALL
bcc


@<TRIPOS>ATOM
      1 O10        -1.7410   -0.6900   -2.7240 o         1 G0G     -0.659300
      2 S8         -2.4360    0.0190   -1.7150 sy        1 G0G      1.499700
      3 N28        -1.5630    0.0420   -0.3290 n3        1 G0G     -0.794500
      4 C7         -1.7060    1.1580    0.5850 c3        1 G0G      0.265100
      5 C12        -1.9570    0.8000    2.0220 ca        1 G0G     -0.118300
      6 C13        -3.2340    0.4210    2.4470 ca        1 G0G     -0.119750
      7 C29        -3.4730    0.1400    3.7910 ca        1 G0G     -0.129500
      8 C31        -2.4360    0.2340    4.7200 ca        1 G0G     -0.121500
      9 C30        -1.1600    0.6080    4.2990 ca        1 G0G     -0.129500
     10 C14        -0.9170    0.8880    2.9550 ca        1 G0G     -0.119750
     11 C23        -0.5340   -0.9060    0.0090 c3        1 G0G      0.184500
     12 C21        -0.9870   -2.4020    0.0640 c3        1 G0G      0.135300
     13 N22         0.1250   -3.2410   -0.3580 n3        1 G0G     -0.782200
     14 C25         0.9310   -2.4430   -1.2700 c3        1 G0G      0.135300
     15 C24         0.7110   -0.9210   -0.9740 c3        1 G0G      0.184500
     16 N32         1.8750   -0.2400   -0.4510 n3        1 G0G     -0.794500
     17 S9          2.5210   -0.6130    1.0030 sy        1 G0G      1.499700
     18 O11         2.0490   -1.8760    1.4340 o         1 G0G     -0.659300
     19 C27         4.1740   -0.7350    0.6840 ca        1 G0G     -0.376000
     20 C18         5.0480    0.3140    0.9990 ca        1 G0G     -0.016750
     21 C2          6.4180    0.1900    0.7860 ca        1 G0G     -0.156500
     22 C6          6.9350   -0.9910    0.2530 ca        1 G0G     -0.064500
     23 C5          6.0790   -2.0480   -0.0600 ca        1 G0G     -0.156500
     24 C20         4.7090   -1.9170    0.1570 ca        1 G0G     -0.016750
     25 O40         2.3210    0.4490    1.9150 o         1 G0G     -0.659300
     26 C33         2.4100    0.8190   -1.2720 c3        1 G0G      0.265100
     27 C34         1.6340    2.1060   -1.2850 ca        1 G0G     -0.118300
     28 C35         1.1500    2.6070   -2.4980 ca        1 G0G     -0.119750
     29 C36         0.4860    3.8320   -2.5340 ca        1 G0G     -0.129500
     30 C37         0.2970    4.5610   -1.3590 ca        1 G0G     -0.121500
     31 C39         0.7710    4.0590   -0.1470 ca        1 G0G     -0.129500
     32 C38         1.4370    2.8340   -0.1070 ca        1 G0G     -0.119750
     33 O41        -2.8160    1.3410   -2.0460 o         1 G0G     -0.659300
     34 C26        -3.8450   -0.8320   -1.3360 ca        1 G0G     -0.376000
     35 C19        -4.0250   -2.1550   -1.7570 ca        1 G0G     -0.016750
     36 C3         -5.2100   -2.8370   -1.4880 ca        1 G0G     -0.156500
     37 C4         -6.2380   -2.1970   -0.7940 ca        1 G0G     -0.064500
     38 C1         -6.0810   -0.8730   -0.3840 ca        1 G0G     -0.156500
     39 C17        -4.8940   -0.1990   -0.6580 ca        1 G0G     -0.016750
     40 H71        -0.7650    1.7880    0.5290 h1        1 G0G      0.062700
     41 H72        -2.5640    1.8010    0.2220 h1        1 G0G      0.062700
     42 H13        -4.0540    0.3410    1.7170 ha        1 G0G      0.144500
     43 H29        -4.4800   -0.1580    4.1190 ha        1 G0G      0.134750
     44 H31        -2.6240    0.0130    5.7800 ha        1 G0G      0.132500
     45 H30        -0.3370    0.6770    5.0270 ha        1 G0G      0.134750
     46 H14         0.1000    1.1730    2.6310 ha        1 G0G      0.144500
     47 H23        -0.1650   -0.6560    1.0520 h1        1 G0G      0.087700
     48 H211       -1.3230   -2.6610    1.1010 h1        1 G0G      0.060450
     49 H212       -1.8410   -2.5890   -0.6440 h1        1 G0G      0.060450
     50 HN22        0.6760   -3.5030    0.4440 hn        1 G0G      0.376800
     51 H251        2.0110   -2.7380   -1.2130 h1        1 G0G      0.060450
     52 H252        0.5610   -2.6400   -2.3150 h1        1 G0G      0.060450
     53 H24         0.4260   -0.4290   -1.9500 h1        1 G0G      0.087700
     54 H18         4.6380    1.2430    1.4360 ha        1 G0G      0.154000
     55 H2          7.0910    1.0220    1.0410 ha        1 G0G      0.142750
     56 H6          8.0180   -1.0910    0.0830 ha        1 G0G      0.138000
     57 H5          6.4830   -2.9840   -0.4730 ha        1 G0G      0.142750
     58 H20         4.0340   -2.7600   -0.0730 ha        1 G0G      0.154000
     59 H331        3.4540    1.0540   -0.9000 h1        1 G0G      0.062700
     60 H332        2.5120    0.4420   -2.3330 h1        1 G0G      0.062700
     61 H35         1.2880    2.0330   -3.4270 ha        1 G0G      0.144500
     62 H36         0.1010    4.2180   -3.4890 ha        1 G0G      0.134750
     63 H37        -0.2300    5.5250   -1.3890 ha        1 G0G      0.132500
     64 H39         0.6180    4.6280    0.7820 ha        1 G0G      0.134750
     65 H38         1.8010    2.4370    0.8560 ha        1 G0G      0.144500
     66 H19        -3.2210   -2.6560   -2.3280 ha        1 G0G      0.154000
     67 H3         -5.3330   -3.8770   -1.8240 ha        1 G0G      0.142750
     68 H4         -7.1740   -2.7350   -0.5770 ha        1 G0G      0.138000
     69 H1         -6.8950   -0.3600    0.1500 ha        1 G0G      0.142750
     70 H17        -4.7830    0.8590   -0.3610 ha        1 G0G      0.154000
@<TRIPOS>BOND
     1    1    2 2   
     2    2    3 1   
     3    2   33 2   
     4    2   34 1   
     5    3    4 1   
     6    3   11 1   
     7    4    5 1   
     8    4   40 1   
     9    4   41 1   
    10    5    6 ar  
    11    5   10 ar  
    12    6    7 ar  
    13    6   42 1   
    14    7    8 ar  
    15    7   43 1   
    16    8    9 ar  
    17    8   44 1   
    18    9   10 ar  
    19    9   45 1   
    20   10   46 1   
    21   11   12 1   
    22   11   15 1   
    23   11   47 1   
    24   12   13 1   
    25   12   48 1   
    26   12   49 1   
    27   13   14 1   
    28   13   50 1   
    29   14   15 1   
    30   14   51 1   
    31   14   52 1   
    32   15   16 1   
    33   15   53 1   
    34   16   17 1   
    35   16   26 1   
    36   17   18 2   
    37   17   19 1   
    38   17   25 2   
    39   19   20 ar  
    40   19   24 ar  
    41   20   21 ar  
    42   20   54 1   
    43   21   22 ar  
    44   21   55 1   
    45   22   23 ar  
    46   22   56 1   
    47   23   24 ar  
    48   23   57 1   
    49   24   58 1   
    50   26   27 1   
    51   26   59 1   
    52   26   60 1   
    53   27   28 ar  
    54   27   32 ar  
    55   28   29 ar  
    56   28   61 1   
    57   29   30 ar  
    58   29   62 1   
    59   30   31 ar  
    60   30   63 1   
    61   31   32 ar  
    62   31   64 1   
    63   32   65 1   
    64   34   35 ar  
    65   34   39 ar  
    66   35   36 ar  
    67   35   66 1   
    68   36   37 ar  
    69   36   67 1   
    70   37   38 ar  
    71   37   68 1   
    72   38   39 ar  
    73   38   69 1   
    74   39   70 1   
@<TRIPOS>SUBSTRUCTURE
     1 G0G         1 TEMP              0 ****  ****    0 ROOT
