@<TRIPOS>MOLECULE
G0G
   72    74     1     0     0
SMALL
bcc


@<TRIPOS>ATOM
      1 O10         0.8550    0.0790   -1.1510 o         1 G0G     -0.439900
      2 S8          2.0650    0.6710   -0.9720 s4        1 G0G      1.680800
      3 N28         2.1070   -0.5620    1.2610 n3        1 G0G     -0.894700
      4 C7          3.4870   -0.7420    1.7330 c3        1 G0G      0.175100
      5 C12         4.2270    0.5140    2.0750 ca        1 G0G     -0.144300
      6 C13         5.2590    0.9480    1.2340 ca        1 G0G     -0.128000
      7 C29         6.0470    2.0400    1.5980 ca        1 G0G     -0.123250
      8 C31         5.8030    2.7100    2.7980 ca        1 G0G     -0.099500
      9 C30         4.7690    2.2860    3.6340 ca        1 G0G     -0.123250
     10 C14         3.9860    1.1890    3.2760 ca        1 G0G     -0.128000
     11 C23         1.1450   -0.2590    2.3270 c3        1 G0G      0.122000
     12 C21         0.8580    1.2680    2.4480 c3        1 G0G      0.130800
     13 N22        -0.3960    1.5690    1.7720 n3        1 G0G     -0.824200
     14 C25        -1.0610    0.3230    1.4230 c3        1 G0G      0.130800
     15 C24        -0.2770   -0.8770    2.0410 c3        1 G0G      0.122000
     16 N32        -0.9310   -1.4400    3.2360 n3        1 G0G     -0.894700
     17 S9         -0.8700   -0.1800    5.2480 s4        1 G0G      1.680800
     18 O11        -1.3680    0.9230    4.6210 o         1 G0G     -0.439900
     19 C27        -1.8620   -1.0690    6.0540 ca        1 G0G     -0.615000
     20 C18        -1.4030   -2.1410    6.8690 ca        1 G0G      0.035750
     21 C2         -2.2760   -2.8850    7.6420 ca        1 G0G     -0.151250
     22 C6         -3.6460   -2.5930    7.6340 ca        1 G0G      0.041000
     23 C5         -4.1310   -1.5470    6.8370 ca        1 G0G     -0.151250
     24 C20        -3.2590   -0.8020    6.0640 ca        1 G0G      0.035750
     25 O40         0.4630   -0.3330    5.4660 o         1 G0G     -0.439900
     26 C33        -0.6560   -2.8710    3.4540 c3        1 G0G      0.175100
     27 C34         0.7510   -3.3350    3.2480 ca        1 G0G     -0.144300
     28 C35         1.0440   -4.1670    2.1600 ca        1 G0G     -0.128000
     29 C36         2.3200   -4.7110    2.0200 ca        1 G0G     -0.123250
     30 C37         3.3120   -4.4230    2.9590 ca        1 G0G     -0.099500
     31 C39         3.0260   -3.5830    4.0370 ca        1 G0G     -0.123250
     32 C38         1.7490   -3.0440    4.1840 ca        1 G0G     -0.128000
     33 O41         3.2250    0.0200   -1.2380 o         1 G0G     -0.439900
     34 C26         2.1120    2.2160   -0.8260 ca        1 G0G     -0.615000
     35 C19         0.9220    2.9960   -0.8110 ca        1 G0G      0.035750
     36 C3          0.9670    4.3790   -0.7820 ca        1 G0G     -0.151250
     37 C4          2.2000    5.0420   -0.7570 ca        1 G0G      0.041000
     38 C1          3.3900    4.3010   -0.7480 ca        1 G0G     -0.151250
     39 C17         3.3470    2.9200   -0.7750 ca        1 G0G      0.035750
     40 H71         3.5130   -1.4260    2.6360 h1        1 G0G      0.076450
     41 H72         4.0390   -1.2690    0.8960 h1        1 G0G      0.076450
     42 H13         5.4720    0.4060    0.2970 ha        1 G0G      0.138750
     43 H29         6.8770    2.3580    0.9480 ha        1 G0G      0.156250
     44 H31         6.4360    3.5620    3.0930 ha        1 G0G      0.161000
     45 H30         4.5840    2.8060    4.5870 ha        1 G0G      0.156250
     46 H14         3.1900    0.8420    3.9520 ha        1 G0G      0.138750
     47 H23         1.5430   -0.6340    3.3170 h1        1 G0G      0.093200
     48 H211        1.6730    1.8890    1.9840 h1        1 G0G      0.070950
     49 H212        0.8300    1.5310    3.5440 h1        1 G0G      0.070950
     50 HN22       -0.9820    2.1440    2.3520 hn        1 G0G      0.392800
     51 H251       -1.0120    0.2140    0.3000 h1        1 G0G      0.070950
     52 H252       -2.1460    0.3310    1.7140 h1        1 G0G      0.070950
     53 H24        -0.2100   -1.6940    1.2630 h1        1 G0G      0.093200
     54 H18        -0.3190   -2.3710    6.8890 ha        1 G0G      0.174500
     55 H2         -1.8920   -3.7080    8.2730 ha        1 G0G      0.186750
     56 H6         -4.3430   -3.1840    8.2570 ha        1 G0G      0.185000
     57 H5         -5.2110   -1.3140    6.8330 ha        1 G0G      0.186750
     58 H20        -3.6480    0.0320    5.4490 ha        1 G0G      0.174500
     59 H331       -0.9520   -3.0840    4.5250 h1        1 G0G      0.076450
     60 H332       -1.3330   -3.4890    2.7900 h1        1 G0G      0.076450
     61 H35         0.2620   -4.4180    1.4260 ha        1 G0G      0.138750
     62 H36         2.5390   -5.3840    1.1750 ha        1 G0G      0.156250
     63 H37         4.3150   -4.8690    2.8570 ha        1 G0G      0.161000
     64 H39         3.8050   -3.3620    4.7840 ha        1 G0G      0.156250
     65 H38         1.5300   -2.3960    5.0480 ha        1 G0G      0.138750
     66 H19        -0.0570    2.4780   -0.8280 ha        1 G0G      0.174500
     67 H3          0.0290    4.9610   -0.7850 ha        1 G0G      0.186750
     68 H4          2.2360    6.1470   -0.7430 ha        1 G0G      0.185000
     69 H1          4.3620    4.8240   -0.7240 ha        1 G0G      0.186750
     70 H17         4.2920    2.3390   -0.7550 ha        1 G0G      0.174500
     71 H281        1.8330   -1.4420    0.8410 hn        1 G0G      0.387300
     72 H321       -1.9300   -1.3650    3.0730 hn        1 G0G      0.387300
@<TRIPOS>BOND
     1    1    2 1   
     2    2   33 1   
     3    2   34 1   
     4    3    4 1   
     5    3   11 1   
     6    3   71 1   
     7    4    5 1   
     8    4   40 1   
     9    4   41 1   
    10    5    6 ar  
    11    5   10 ar  
    12    6    7 ar  
    13    6   42 1   
    14    7    8 ar  
    15    7   43 1   
    16    8    9 ar  
    17    8   44 1   
    18    9   10 ar  
    19    9   45 1   
    20   10   46 1   
    21   11   12 1   
    22   11   15 1   
    23   11   47 1   
    24   12   13 1   
    25   12   48 1   
    26   12   49 1   
    27   13   14 1   
    28   13   50 1   
    29   14   15 1   
    30   14   51 1   
    31   14   52 1   
    32   15   16 1   
    33   15   53 1   
    34   16   26 1   
    35   16   72 1   
    36   17   18 1   
    37   17   19 1   
    38   17   25 1   
    39   19   20 ar  
    40   19   24 ar  
    41   20   21 ar  
    42   20   54 1   
    43   21   22 ar  
    44   21   55 1   
    45   22   23 ar  
    46   22   56 1   
    47   23   24 ar  
    48   23   57 1   
    49   24   58 1   
    50   26   27 1   
    51   26   59 1   
    52   26   60 1   
    53   27   28 ar  
    54   27   32 ar  
    55   28   29 ar  
    56   28   61 1   
    57   29   30 ar  
    58   29   62 1   
    59   30   31 ar  
    60   30   63 1   
    61   31   32 ar  
    62   31   64 1   
    63   32   65 1   
    64   34   35 ar  
    65   34   39 ar  
    66   35   36 ar  
    67   35   66 1   
    68   36   37 ar  
    69   36   67 1   
    70   37   38 ar  
    71   37   68 1   
    72   38   39 ar  
    73   38   69 1   
    74   39   70 1   
@<TRIPOS>SUBSTRUCTURE
     1 G0G         1 TEMP              0 ****  ****    0 ROOT
