@<TRIPOS>MOLECULE
G0G
   70    63     1     0     0
SMALL
bcc


@<TRIPOS>ATOM
      1 O10        -0.0750    0.1620   -2.5370 o         1 G0G     -0.949000
      2 S8          0.2900   -1.0430   -1.8460 ss        1 G0G      2.846000
      3 N28         1.3520   -0.7180   -0.5610 n2        1 G0G     -0.816000
      4 C7          2.4500   -1.6720   -0.2500 c3        1 G0G      0.015000
      5 C12         3.3180   -1.9050   -1.5250 c2        1 G0G     -0.087000
      6 C13         3.0500   -2.9820   -2.3420 c1        1 G0G     -0.129000
      7 C29         3.9550   -3.3450   -3.3450 c1        1 G0G     -0.118250
      8 C31         5.1290   -2.6190   -3.5210 c1        1 G0G     -0.118250
      9 C30         5.4030   -1.5370   -2.7030 c1        1 G0G     -0.129000
     10 C14         4.5020   -1.1730   -1.7020 c2        1 G0G     -0.127000
     11 C23         1.0110    0.3560    0.4200 c3        1 G0G     -0.018000
     12 C21         2.0220    1.6310    0.2290 c3        1 G0G     -0.099000
     13 N22         1.5540    2.3250   -0.7700 n3        1 G0G     -0.270000
     14 C25         0.0470    2.0290   -0.7830 c3        1 G0G     -0.102000
     15 C24        -0.1560    0.7950    0.1980 c3        1 G0G     -0.012000
     16 N32        -0.8110    1.2570    1.5080 n3        1 G0G     -0.809000
     17 S9         -1.9750    0.2560    2.2880 s4        1 G0G      2.061800
     18 O11        -1.6800   -1.1370    2.0930 o         1 G0G     -0.548400
     19 C27        -3.6290    0.6570    1.7150 c1        1 G0G     -0.831500
     20 C18        -4.7290    0.4230    2.5410 c2        1 G0G     -0.014000
     21 C2         -6.0030    0.7420    2.1040 c1        1 G0G     -0.159000
     22 C6         -6.1860    1.2930    0.8480 c1        1 G0G     -0.118250
     23 C5         -5.0920    1.5270    0.0260 c1        1 G0G     -0.118250
     24 C20        -3.8110    1.2060    0.4640 c1        1 G0G     -0.007000
     25 O40        -1.8800    0.3640    3.7210 o         1 G0G     -0.548400
     26 C33        -0.5020    2.5840    2.0540 c3        1 G0G      0.024000
     27 C34        -1.1510    2.7320    3.4630 c2        1 G0G     -0.105000
     28 C35        -2.4930    3.0910    3.5790 c2        1 G0G     -0.119000
     29 C36        -3.0480    3.3120    4.8350 c1        1 G0G     -0.133000
     30 C37        -2.2650    3.1760    5.9750 c1        1 G0G     -0.118250
     31 C39        -0.9270    2.8180    5.8610 c1        1 G0G     -0.118250
     32 C38        -0.3700    2.5960    4.6020 c1        1 G0G     -0.128000
     33 O41        -0.9870   -1.4860   -1.3660 o         1 G0G     -0.949000
     34 C26         1.0210   -2.2530   -2.9790 c1        1 G0G     -0.831500
     35 C19         0.9350   -3.6050   -2.6870 c2        1 G0G     -0.014000
     36 C3          1.3060   -4.5480   -3.6400 c1        1 G0G     -0.159000
     37 C4          1.7640   -4.1340   -4.8900 c1        1 G0G     -0.118250
     38 C1          1.8490   -2.7850   -5.1830 c1        1 G0G     -0.118250
     39 C17         1.4790   -1.8400   -4.2300 c1        1 G0G     -0.007000
     40 H71         2.0680   -2.5240    0.0440 h1        1 G0G      0.117000
     41 H72         3.0100   -1.3020    0.4610 h1        1 G0G      0.117000
     42 H13         2.2360   -3.4880   -2.2220 ha        1 G0G      0.136000
     43 H29         3.7640   -4.1000   -3.9170 ha        1 G0G      0.136750
     44 H31         5.7720   -2.8790   -4.2370 ha        1 G0G      0.136750
     45 H30         6.2280   -1.0270   -2.8270 ha        1 G0G      0.131000
     46 H14         4.6970   -0.4020   -1.1180 ha        1 G0G      0.133000
     47 H23         1.0740    0.0130    1.3280 h1        1 G0G      0.124000
     48 H211        2.0330    2.1740    1.0390 h1        1 G0G      0.098500
     49 H212        2.9270    1.3150    0.0240 h1        1 G0G      0.098500
     50 HN22        1.9370    2.0230   -1.5640 hn        1 G0G      0.177000
     51 H251       -0.4570    2.8110   -0.4560 h1        1 G0G      0.105500
     52 H252       -0.2410    1.7940   -1.6830 h1        1 G0G      0.105500
     53 H24        -0.7030    0.1040   -0.2320 h1        1 G0G      0.101000
     54 H18        -4.5990    0.0340    3.4280 ha        1 G0G      0.154000
     55 H2         -6.7690    0.5790    2.6790 ha        1 G0G      0.141500
     56 H6         -7.0930    1.5200    0.5370 ha        1 G0G      0.136750
     57 H5         -5.2190    1.9110   -0.8500 ha        1 G0G      0.136750
     58 H20        -3.0460    1.3690   -0.1100 ha        1 G0G      0.166000
     59 H331       -0.8540    3.2680    1.4610 h1        1 G0G      0.102000
     60 H332        0.4710    2.6880    2.1310 h1        1 G0G      0.102000
     61 H35        -3.0420    3.1870    2.7800 ha        1 G0G      0.136000
     62 H36        -3.9940    3.5650    4.9170 ha        1 G0G      0.133000
     63 H37        -2.6570    3.3320    6.8620 ha        1 G0G      0.136750
     64 H39        -0.3810    2.7230    6.6560 ha        1 G0G      0.136750
     65 H38         0.5730    2.3440    4.5210 ha        1 G0G      0.164000
     66 H19         0.6140   -3.8970   -1.8100 ha        1 G0G      0.154000
     67 H3          1.2460   -5.4960   -3.4350 ha        1 G0G      0.141500
     68 H4          2.0260   -4.8020   -5.5650 ha        1 G0G      0.136750
     69 H1          2.1750   -2.4920   -6.0720 ha        1 G0G      0.136750
     70 H17         1.5390   -0.8930   -4.4360 ha        1 G0G      0.166000
@<TRIPOS>BOND
     1    1    2 1   
     2    2   33 1   
     3    3    4 1   
     4    3   11 1   
     5    4    5 1   
     6    4   40 1   
     7    4   41 1   
     8    5    6 1   
     9    5   10 1   
    10    6   42 1   
    11    7    8 1   
    12    7   43 1   
    13    8   44 1   
    14    9   10 1   
    15    9   45 1   
    16   10   46 1   
    17   11   12 1   
    18   11   15 1   
    19   11   47 1   
    20   12   13 1   
    21   12   48 1   
    22   12   49 1   
    23   13   14 1   
    24   13   50 1   
    25   14   15 1   
    26   14   51 1   
    27   14   52 1   
    28   15   16 1   
    29   15   53 1   
    30   16   17 1   
    31   16   26 1   
    32   17   18 1   
    33   17   25 1   
    34   19   20 1   
    35   19   24 1   
    36   20   21 1   
    37   20   54 1   
    38   21   55 1   
    39   22   23 1   
    40   22   56 1   
    41   23   57 1   
    42   24   58 1   
    43   26   27 1   
    44   26   59 1   
    45   26   60 1   
    46   27   28 1   
    47   27   32 1   
    48   28   29 1   
    49   28   61 1   
    50   29   62 1   
    51   30   31 1   
    52   30   63 1   
    53   31   64 1   
    54   32   65 1   
    55   34   35 1   
    56   34   39 1   
    57   35   36 1   
    58   35   66 1   
    59   36   67 1   
    60   37   38 1   
    61   37   68 1   
    62   38   69 1   
    63   39   70 1   
@<TRIPOS>SUBSTRUCTURE
     1 G0G         1 TEMP              0 ****  ****    0 ROOT
