@<TRIPOS>MOLECULE
G0G
   72    74     1     0     0
SMALL
bcc


@<TRIPOS>ATOM
      1 O10        -0.6680    1.7370    0.0750 o         1 G0G     -0.441900
      2 S8          0.4910    1.1870   -0.3860 s4        1 G0G      1.680800
      3 N28         1.3700    0.9100    1.7960 n3        1 G0G     -0.902700
      4 C7          2.6190    0.1340    1.7220 c3        1 G0G      0.171600
      5 C12         3.8500    0.8800    2.1360 ca        1 G0G     -0.148300
      6 C13         5.0020    0.7850    1.3470 ca        1 G0G     -0.124500
      7 C29         6.1740    1.4290    1.7410 ca        1 G0G     -0.118250
      8 C31         6.2000    2.1760    2.9200 ca        1 G0G     -0.098000
      9 C30         5.0530    2.2710    3.7090 ca        1 G0G     -0.118250
     10 C14         3.8820    1.6210    3.3220 ca        1 G0G     -0.124500
     11 C23         0.4600    0.4340    2.8560 c3        1 G0G      0.129000
     12 C21        -0.7600    1.3880    3.0610 c3        1 G0G      0.131800
     13 N22        -1.9680    0.7230    2.5910 n3        1 G0G     -0.818200
     14 C25        -1.5970   -0.5370    1.9650 c3        1 G0G      0.131800
     15 C24        -0.2070   -0.9560    2.5400 c3        1 G0G      0.129000
     16 N32        -0.3370   -1.8250    3.7230 n3        1 G0G     -0.902700
     17 S9         -0.2450   -1.1100    6.0720 s4        1 G0G      1.680800
     18 O11         0.0440    0.1870    5.7950 o         1 G0G     -0.441900
     19 C27        -1.7290   -1.5000    6.3200 ca        1 G0G     -0.617000
     20 C18        -2.0730   -2.7490    6.9110 ca        1 G0G      0.030250
     21 C2         -3.3860   -3.0710    7.2020 ca        1 G0G     -0.148000
     22 C6         -4.4140   -2.1640    6.9110 ca        1 G0G      0.040000
     23 C5         -4.1090   -0.9330    6.3160 ca        1 G0G     -0.148000
     24 C20        -2.7960   -0.6080    6.0240 ca        1 G0G      0.030250
     25 O40         0.7150   -2.0040    6.4140 o         1 G0G     -0.441900
     26 C33         0.3440   -3.1260    3.5860 c3        1 G0G      0.171600
     27 C34         1.7800   -3.1000    3.1690 ca        1 G0G     -0.148300
     28 C35         2.1230   -3.4200    1.8490 ca        1 G0G     -0.124500
     29 C36         3.4630   -3.5360    1.4840 ca        1 G0G     -0.118250
     30 C37         4.4680   -3.3310    2.4310 ca        1 G0G     -0.098000
     31 C39         4.1290   -3.0060    3.7450 ca        1 G0G     -0.118250
     32 C38         2.7890   -2.8940    4.1160 ca        1 G0G     -0.124500
     33 O41         0.5830   -0.1350   -0.6930 o         1 G0G     -0.441900
     34 C26         1.5770    2.1560   -0.9420 ca        1 G0G     -0.617000
     35 C19         1.4440    3.5660   -0.8170 ca        1 G0G      0.030250
     36 C3          2.3720    4.4300   -1.3710 ca        1 G0G     -0.148000
     37 C4          3.4730    3.9220   -2.0730 ca        1 G0G      0.040000
     38 C1          3.6340    2.5370   -2.2090 ca        1 G0G     -0.148000
     39 C17         2.7090    1.6730   -1.6520 ca        1 G0G      0.030250
     40 H71         2.7200   -0.2040    0.6480 h1        1 G0G      0.077200
     41 H72         2.5430   -0.8060    2.3510 h1        1 G0G      0.077200
     42 H13         4.9940    0.1870    0.4230 ha        1 G0G      0.136000
     43 H29         7.0820    1.3430    1.1240 ha        1 G0G      0.155000
     44 H31         7.1280    2.6850    3.2310 ha        1 G0G      0.159000
     45 H30         5.0750    2.8530    4.6440 ha        1 G0G      0.155000
     46 H14         2.9940    1.6830    3.9690 ha        1 G0G      0.136000
     47 H23         1.0490    0.3840    3.8180 h1        1 G0G      0.097700
     48 H211       -0.8770    1.5730    4.1670 h1        1 G0G      0.066950
     49 H212       -0.6060    2.3860    2.5680 h1        1 G0G      0.066950
     50 HN22       -2.4810    1.3050    1.9520 hn        1 G0G      0.400800
     51 H251       -2.4080   -1.2880    2.1720 h1        1 G0G      0.066950
     52 H252       -1.4970   -0.4640    0.8440 h1        1 G0G      0.066950
     53 H24         0.3760   -1.4990    1.7400 h1        1 G0G      0.097700
     54 H18        -1.2650   -3.4670    7.1530 ha        1 G0G      0.173000
     55 H2         -3.6260   -4.0430    7.6710 ha        1 G0G      0.187750
     56 H6         -5.4630   -2.4200    7.1530 ha        1 G0G      0.186000
     57 H5         -4.9200   -0.2190    6.0830 ha        1 G0G      0.187750
     58 H20        -2.5640    0.3670    5.5510 ha        1 G0G      0.173000
     59 H331       -0.2240   -3.7770    2.8560 h1        1 G0G      0.077200
     60 H332        0.2800   -3.6190    4.6030 h1        1 G0G      0.077200
     61 H35         1.3370   -3.6150    1.1030 ha        1 G0G      0.136000
     62 H36         3.7270   -3.8160    0.4520 ha        1 G0G      0.155000
     63 H37         5.5260   -3.4440    2.1470 ha        1 G0G      0.159000
     64 H39         4.9200   -2.8580    4.4980 ha        1 G0G      0.155000
     65 H38         2.5310   -2.6820    5.1660 ha        1 G0G      0.136000
     66 H19         0.5680    3.9760   -0.2790 ha        1 G0G      0.173000
     67 H3          2.2420    5.5220   -1.2670 ha        1 G0G      0.187750
     68 H4          4.2110    4.6130   -2.5220 ha        1 G0G      0.186000
     69 H1          4.4990    2.1370   -2.7680 ha        1 G0G      0.187750
     70 H17         2.8400    0.5790   -1.7690 ha        1 G0G      0.173000
     71 H281        1.5990    1.8690    2.0330 hn        1 G0G      0.390800
     72 H321       -1.3250   -2.0410    3.8180 hn        1 G0G      0.390800
@<TRIPOS>BOND
     1    1    2 1   
     2    2   33 1   
     3    2   34 1   
     4    3    4 1   
     5    3   11 1   
     6    3   71 1   
     7    4    5 1   
     8    4   40 1   
     9    4   41 1   
    10    5    6 ar  
    11    5   10 ar  
    12    6    7 ar  
    13    6   42 1   
    14    7    8 ar  
    15    7   43 1   
    16    8    9 ar  
    17    8   44 1   
    18    9   10 ar  
    19    9   45 1   
    20   10   46 1   
    21   11   12 1   
    22   11   15 1   
    23   11   47 1   
    24   12   13 1   
    25   12   48 1   
    26   12   49 1   
    27   13   14 1   
    28   13   50 1   
    29   14   15 1   
    30   14   51 1   
    31   14   52 1   
    32   15   16 1   
    33   15   53 1   
    34   16   26 1   
    35   16   72 1   
    36   17   18 1   
    37   17   19 1   
    38   17   25 1   
    39   19   20 ar  
    40   19   24 ar  
    41   20   21 ar  
    42   20   54 1   
    43   21   22 ar  
    44   21   55 1   
    45   22   23 ar  
    46   22   56 1   
    47   23   24 ar  
    48   23   57 1   
    49   24   58 1   
    50   26   27 1   
    51   26   59 1   
    52   26   60 1   
    53   27   28 ar  
    54   27   32 ar  
    55   28   29 ar  
    56   28   61 1   
    57   29   30 ar  
    58   29   62 1   
    59   30   31 ar  
    60   30   63 1   
    61   31   32 ar  
    62   31   64 1   
    63   32   65 1   
    64   34   35 ar  
    65   34   39 ar  
    66   35   36 ar  
    67   35   66 1   
    68   36   37 ar  
    69   36   67 1   
    70   37   38 ar  
    71   37   68 1   
    72   38   39 ar  
    73   38   69 1   
    74   39   70 1   
@<TRIPOS>SUBSTRUCTURE
     1 G0G         1 TEMP              0 ****  ****    0 ROOT
