@<TRIPOS>MOLECULE
G0P
   71    73     1     0     0
SMALL
bcc


@<TRIPOS>ATOM
      1 C12        -0.0970   -0.7370    0.5890 c3        1 G0P      0.084000
      2 C13         1.3820   -0.6280    1.0000 c3        1 G0P     -0.090400
      3 C14         1.4040   -0.4070    2.5100 c3        1 G0P     -0.090400
      4 C15        -0.0570   -0.3210    2.9690 c3        1 G0P      0.084000
      5 N16        -0.8930   -0.5280    1.7860 n         1 G0P     -0.432800
      6 C17        -2.2300   -0.7270    1.8980 c         1 G0P      0.636100
      7 O18        -2.8390   -0.7110    2.9910 o         1 G0P     -0.607100
      8 C19        -3.0760   -0.9440    0.6050 c3        1 G0P      0.053500
      9 C20        -3.3780    0.4320    0.0040 c3        1 G0P     -0.100400
     10 C21        -3.9910    0.3470   -1.3790 c3        1 G0P     -0.086400
     11 C22        -4.0600    1.7240   -2.0140 c3        1 G0P     -0.108400
     12 C23        -4.6670    1.6080   -3.4090 c3        1 G0P      0.100800
     13 N24        -4.7540    2.9200   -4.1160 n4        1 G0P     -0.838600
     14 N25        -4.3140   -1.7160    0.9670 n4        1 G0P     -0.676800
     15 C26        -4.6910   -2.8130   -0.0250 c         1 G0P      0.593700
     16 O27        -4.3660   -2.5770   -1.1880 o         1 G0P     -0.503100
     17 C28        -5.3700   -3.9670    0.5110 ca        1 G0P     -0.281600
     18 C29        -5.5130   -5.0750   -0.3590 ca        1 G0P     -0.018000
     19 C30        -6.1460   -6.2300    0.0600 ca        1 G0P     -0.185000
     20 C31        -6.6640   -6.3040    1.3680 ca        1 G0P      0.264100
     21 C32        -6.5440   -5.1910    2.2450 ca        1 G0P     -0.185000
     22 C33        -5.9070   -4.0460    1.8160 ca        1 G0P     -0.018000
     23 O34        -7.2950   -7.3780    1.9100 os        1 G0P     -0.303900
     24 C35        -7.4130   -8.5830    1.1380 c3        1 G0P      0.309900
     25 O36        -8.1780   -8.1590    0.0320 os        1 G0P     -0.434600
     26 C37        -8.6470   -9.2330   -0.7960 c3        1 G0P      0.152100
     27 C38        -9.5040   -8.5710   -1.8780 c3        1 G0P      0.138400
     28 O39        -8.6080   -8.0220   -2.8320 oh        1 G0P     -0.615800
     29 C40        -9.4630  -10.2640   -0.0040 c3        1 G0P      0.120100
     30 O41       -10.6640   -9.6460    0.4150 oh        1 G0P     -0.592800
     31 C42        -8.6400  -10.7680    1.1960 c3        1 G0P      0.114100
     32 O43        -9.5070  -11.5880    1.9540 oh        1 G0P     -0.592800
     33 C44        -8.1660   -9.5760    2.0470 c3        1 G0P      0.085100
     34 O45        -7.2870  -10.0970    3.0220 oh        1 G0P     -0.588800
     35 H121       -0.3570    0.0430   -0.1780 h1        1 G0P      0.060200
     36 H122       -0.3080   -1.7510    0.1480 h1        1 G0P      0.060200
     37 H132        1.9270   -1.5650    0.7240 hc        1 G0P      0.076200
     38 H131        1.8680    0.2240    0.4640 hc        1 G0P      0.076200
     39 H141        1.9230   -1.2500    3.0290 hc        1 G0P      0.076200
     40 H142        1.9460    0.5370    2.7680 hc        1 G0P      0.076200
     41 H151       -0.2970   -1.1010    3.7430 h1        1 G0P      0.060200
     42 H152       -0.2950    0.6880    3.4060 h1        1 G0P      0.060200
     43 H191       -2.5000   -1.5670   -0.1440 hx        1 G0P      0.129700
     44 H201       -4.0420    1.0210    0.6930 hc        1 G0P      0.090200
     45 H202       -2.3990    0.9860   -0.0560 hc        1 G0P      0.090200
     46 H211       -3.3810   -0.3440   -2.0220 hc        1 G0P      0.068700
     47 H212       -5.0220   -0.0940   -1.3180 hc        1 G0P      0.068700
     48 H222       -4.6820    2.4030   -1.3710 hc        1 G0P      0.076200
     49 H221       -3.0270    2.1600   -2.0730 hc        1 G0P      0.076200
     50 H231       -4.0400    0.9170   -4.0460 hx        1 G0P      0.118700
     51 H232       -5.7120    1.1860   -3.3420 hx        1 G0P      0.118700
     52 H242       -3.8200    3.3300   -4.2250 hn        1 G0P      0.468800
     53 H241       -5.3370    3.5750   -3.5840 hn        1 G0P      0.468800
     54 H251       -4.1670   -2.1380    1.9020 hn        1 G0P      0.468800
     55 H291       -5.1140   -5.0100   -1.3870 ha        1 G0P      0.148500
     56 H301       -6.2840   -7.0730   -0.6410 ha        1 G0P      0.190000
     57 H321       -6.9740   -5.2610    3.2570 ha        1 G0P      0.190000
     58 H331       -5.8530   -3.2000    2.5200 ha        1 G0P      0.148500
     59 H351       -6.3980   -8.9560    0.8300 h2        1 G0P      0.073700
     60 H371       -7.7540   -9.7430   -1.2550 h1        1 G0P      0.067700
     61 H381      -10.1630   -9.3480   -2.3460 h1        1 G0P      0.060700
     62 H382      -10.1320   -7.7590   -1.4250 h1        1 G0P      0.060700
     63 H391       -9.1340   -7.8090   -3.6110 ho        1 G0P      0.413000
     64 H401       -9.7020  -11.1410   -0.6700 h1        1 G0P      0.074700
     65 H411      -11.1330  -10.2900    0.9660 ho        1 G0P      0.437000
     66 H421       -7.7520  -11.3590    0.8420 h1        1 G0P      0.066700
     67 H431       -8.9970  -11.9180    2.7070 ho        1 G0P      0.437000
     68 H441       -9.0540   -9.0650    2.5130 h1        1 G0P      0.096700
     69 H451       -7.2160   -9.4370    3.7230 ho        1 G0P      0.422000
     70 H243       -5.1690    2.7870   -5.0470 hn        1 G0P      0.468800
     71 H252       -5.1020   -1.0670    1.0490 hn        1 G0P      0.468800
@<TRIPOS>BOND
     1    1    2 1   
     2    1    5 1   
     3    1   35 1   
     4    1   36 1   
     5    2    3 1   
     6    2   37 1   
     7    2   38 1   
     8    3    4 1   
     9    3   39 1   
    10    3   40 1   
    11    4    5 1   
    12    4   41 1   
    13    4   42 1   
    14    5    6 1   
    15    6    7 2   
    16    6    8 1   
    17    8    9 1   
    18    8   14 1   
    19    8   43 1   
    20    9   10 1   
    21    9   44 1   
    22    9   45 1   
    23   10   11 1   
    24   10   46 1   
    25   10   47 1   
    26   11   12 1   
    27   11   48 1   
    28   11   49 1   
    29   12   13 1   
    30   12   50 1   
    31   12   51 1   
    32   13   52 1   
    33   13   53 1   
    34   13   70 1   
    35   14   15 1   
    36   14   54 1   
    37   14   71 1   
    38   15   16 2   
    39   15   17 1   
    40   17   18 ar  
    41   17   22 ar  
    42   18   19 ar  
    43   18   55 1   
    44   19   20 ar  
    45   19   56 1   
    46   20   21 ar  
    47   20   23 1   
    48   21   22 ar  
    49   21   57 1   
    50   22   58 1   
    51   23   24 1   
    52   24   25 1   
    53   24   33 1   
    54   24   59 1   
    55   25   26 1   
    56   26   27 1   
    57   26   29 1   
    58   26   60 1   
    59   27   28 1   
    60   27   61 1   
    61   27   62 1   
    62   28   63 1   
    63   29   30 1   
    64   29   31 1   
    65   29   64 1   
    66   30   65 1   
    67   31   32 1   
    68   31   33 1   
    69   31   66 1   
    70   32   67 1   
    71   33   34 1   
    72   33   68 1   
    73   34   69 1   
@<TRIPOS>SUBSTRUCTURE
     1 G0P         1 TEMP              0 ****  ****    0 ROOT
