@<TRIPOS>MOLECULE
G0P
   71    73     1     0     0
SMALL
bcc


@<TRIPOS>ATOM
      1 C12        -0.0780   -0.7550    0.5070 c3        1 G0P      0.084000
      2 C13         1.4090   -0.6540    0.8870 c3        1 G0P     -0.090400
      3 C14         1.4650   -0.4440    2.3980 c3        1 G0P     -0.090400
      4 C15         0.0140   -0.3580    2.8890 c3        1 G0P      0.084000
      5 N16        -0.8490   -0.5530    1.7220 n         1 G0P     -0.432800
      6 C17        -2.1830   -0.7490    1.8620 c         1 G0P      0.636100
      7 O18        -2.7680   -0.7400    2.9680 o         1 G0P     -0.607100
      8 C19        -3.0570   -0.9520    0.5860 c3        1 G0P      0.053500
      9 C20        -3.3670    0.4300    0.0030 c3        1 G0P     -0.100400
     10 C21        -4.0110    0.3580   -1.3670 c3        1 G0P     -0.086400
     11 C22        -4.0900    1.7400   -1.9890 c3        1 G0P     -0.108400
     12 C23        -4.7260    1.6380   -3.3710 c3        1 G0P      0.100800
     13 N24        -4.8250    2.9550   -4.0660 nz        1 G0P     -0.838600
     14 N25        -4.2900   -1.7240    0.9690 ny        1 G0P     -0.676800
     15 C26        -4.6910   -2.8110   -0.0240 c         1 G0P      0.593700
     16 O27        -4.3910   -2.5660   -1.1920 o         1 G0P     -0.503100
     17 C28        -5.3620   -3.9670    0.5170 ca        1 G0P     -0.281600
     18 C29        -5.5270   -5.0670   -0.3590 ca        1 G0P     -0.018000
     19 C30        -6.1550   -6.2250    0.0650 ca        1 G0P     -0.185000
     20 C31        -6.6440   -6.3080    1.3830 ca        1 G0P      0.264100
     21 C32        -6.5020   -5.2020    2.2660 ca        1 G0P     -0.185000
     22 C33        -5.8710   -4.0560    1.8330 ca        1 G0P     -0.018000
     23 O34        -7.2660   -7.3840    1.9300 os        1 G0P     -0.303900
     24 C35        -7.4050   -8.5830    1.1510 c3        1 G0P      0.309900
     25 O36        -8.1920   -8.1470    0.0650 os        1 G0P     -0.434600
     26 C37        -8.6830   -9.2130   -0.7610 c3        1 G0P      0.152100
     27 C38        -9.5600   -8.5400   -1.8190 c3        1 G0P      0.138400
     28 O39        -8.6840   -7.9850   -2.7870 oh        1 G0P     -0.615800
     29 C40        -9.4850  -10.2480    0.0400 c3        1 G0P      0.120100
     30 O41       -10.6740   -9.6300    0.4900 oh        1 G0P     -0.592800
     31 C42        -8.6380  -10.7640    1.2170 c3        1 G0P      0.114100
     32 O43        -9.4900  -11.5880    1.9870 oh        1 G0P     -0.592800
     33 C44        -8.1410   -9.5810    2.0670 c3        1 G0P      0.085100
     34 O45        -7.2430  -10.1120    3.0190 oh        1 G0P     -0.588800
     35 H121       -0.3020   -1.7640    0.0620 h1        1 G0P      0.060200
     36 H122       -0.3520    0.0330   -0.2470 h1        1 G0P      0.060200
     37 H132        1.9450   -1.5890    0.5920 hc        1 G0P      0.076200
     38 H131        1.8860    0.2010    0.3470 hc        1 G0P      0.076200
     39 H141        1.9920   -1.2940    2.8990 hc        1 G0P      0.076200
     40 H142        2.0150    0.4960    2.6520 hc        1 G0P      0.076200
     41 H151       -0.2110    0.6470    3.3390 h1        1 G0P      0.060200
     42 H152       -0.2110   -1.1450    3.6620 h1        1 G0P      0.060200
     43 H191       -2.4990   -1.5710   -0.1800 hx        1 G0P      0.129700
     44 H201       -2.3880    0.9810   -0.0740 hc        1 G0P      0.090200
     45 H202       -4.0140    1.0150    0.7110 hc        1 G0P      0.090200
     46 H211       -5.0420   -0.0810   -1.2870 hc        1 G0P      0.068700
     47 H212       -3.4180   -0.3300   -2.0290 hc        1 G0P      0.068700
     48 H222       -4.6950    2.4160   -1.3270 hc        1 G0P      0.076200
     49 H221       -3.0560    2.1740   -2.0670 hc        1 G0P      0.076200
     50 H231       -5.7720    1.2180   -3.2850 hx        1 G0P      0.118700
     51 H232       -4.1160    0.9500   -4.0270 hx        1 G0P      0.118700
     52 H242       -3.8920    3.3640   -4.1910 hn        1 G0P      0.468800
     53 H241       -5.3940    3.6080   -3.5150 hn        1 G0P      0.468800
     54 H251       -5.0740   -1.0730    1.0730 hn        1 G0P      0.468800
     55 H291       -5.1510   -4.9960   -1.3940 ha        1 G0P      0.148500
     56 H301       -6.3100   -7.0610   -0.6400 ha        1 G0P      0.190000
     57 H321       -6.9100   -5.2800    3.2870 ha        1 G0P      0.190000
     58 H331       -5.8000   -3.2160    2.5420 ha        1 G0P      0.148500
     59 H351       -6.3980   -8.9560    0.8180 h2        1 G0P      0.073700
     60 H371       -7.8010   -9.7220   -1.2440 h1        1 G0P      0.067700
     61 H381      -10.1770   -7.7290   -1.3460 h1        1 G0P      0.060700
     62 H382      -10.2330   -9.3110   -2.2780 h1        1 G0P      0.060700
     63 H391       -9.2270   -7.7650   -3.5540 ho        1 G0P      0.413000
     64 H401       -9.7400  -11.1190   -0.6280 h1        1 G0P      0.074700
     65 H411      -11.1330  -10.2780    1.0460 ho        1 G0P      0.437000
     66 H421       -7.7580  -11.3550    0.8400 h1        1 G0P      0.066700
     67 H431       -8.9640  -11.9260    2.7260 ho        1 G0P      0.437000
     68 H441       -9.0170   -9.0710    2.5570 h1        1 G0P      0.096700
     69 H451       -7.1540   -9.4590    3.7240 ho        1 G0P      0.422000
     70 H243       -5.2600    2.8320   -4.9880 hn        1 G0P      0.468800
     71 H252       -4.1230   -2.1530    1.8970 hn        1 G0P      0.468800
@<TRIPOS>BOND
     1    1    2 1   
     2    1    5 1   
     3    1   35 1   
     4    1   36 1   
     5    2    3 1   
     6    2   37 1   
     7    2   38 1   
     8    3    4 1   
     9    3   39 1   
    10    3   40 1   
    11    4    5 1   
    12    4   41 1   
    13    4   42 1   
    14    5    6 1   
    15    6    7 2   
    16    6    8 1   
    17    8    9 1   
    18    8   14 1   
    19    8   43 1   
    20    9   10 1   
    21    9   44 1   
    22    9   45 1   
    23   10   11 1   
    24   10   46 1   
    25   10   47 1   
    26   11   12 1   
    27   11   48 1   
    28   11   49 1   
    29   12   13 1   
    30   12   50 1   
    31   12   51 1   
    32   13   52 1   
    33   13   53 1   
    34   13   70 1   
    35   14   15 1   
    36   14   54 1   
    37   14   71 1   
    38   15   16 2   
    39   15   17 1   
    40   17   18 ar  
    41   17   22 ar  
    42   18   19 ar  
    43   18   55 1   
    44   19   20 ar  
    45   19   56 1   
    46   20   21 ar  
    47   20   23 1   
    48   21   22 ar  
    49   21   57 1   
    50   22   58 1   
    51   23   24 1   
    52   24   25 1   
    53   24   33 1   
    54   24   59 1   
    55   25   26 1   
    56   26   27 1   
    57   26   29 1   
    58   26   60 1   
    59   27   28 1   
    60   27   61 1   
    61   27   62 1   
    62   28   63 1   
    63   29   30 1   
    64   29   31 1   
    65   29   64 1   
    66   30   65 1   
    67   31   32 1   
    68   31   33 1   
    69   31   66 1   
    70   32   67 1   
    71   33   34 1   
    72   33   68 1   
    73   34   69 1   
@<TRIPOS>SUBSTRUCTURE
     1 G0P         1 TEMP              0 ****  ****    0 ROOT
