@<TRIPOS>MOLECULE
G0S
   32    31     1     0     0
SMALL
bcc


@<TRIPOS>ATOM
      1 C1          0.2370   -0.2850   -0.2400 c3        1 G0S     -0.117000
      2 C2          1.7390   -0.3370   -0.2150 c3        1 G0S     -0.013000
      3 O2          2.1790   -1.5360   -0.9000 oh        1 G0S     -0.349000
      4 C3          2.2870   -0.3420    1.1760 c3        1 G0S      0.006000
      5 O3          1.9550   -1.6020    1.8080 oh        1 G0S     -0.336000
      6 C4          1.7370    0.7710    2.0040 c3        1 G0S      0.005000
      7 O4          2.2590    2.0250    1.5060 oh        1 G0S     -0.317000
      8 C5          0.2240    0.8210    1.9690 c3        1 G0S     -0.014000
      9 O5         -0.3100    0.8220    0.5920 os        1 G0S     -0.250000
     10 C6         -0.2380    2.0650    2.6720 c3        1 G0S     -0.004000
     11 O6         -1.6140    1.9460    2.9920 oh        1 G0S     -0.338000
     12 S1         -0.3020   -0.0720   -1.9160 ss        1 G0S      0.026000
     13 C1A        -1.8350   -0.9900   -2.1780 c3        1 G0S     -0.223000
     14 C3A        -3.6350   -1.4000   -3.8200 c1        1 G0S      0.336000
     15 C2A        -2.2030   -0.9560   -3.6510 c2        1 G0S     -0.237000
     16 O3A        -3.9290   -2.6250   -3.7500 o         1 G0S     -0.571500
     17 OXT        -4.5370   -0.5470   -4.0650 o         1 G0S     -0.571500
     18 H1         -0.1110   -1.1280    0.0970 h2        1 G0S      0.115000
     19 H2          2.0960    0.4580   -0.6960 h1        1 G0S      0.110000
     20 HA          2.7890   -1.3140   -1.5380 ho        1 G0S      0.242000
     21 H3          2.7140   -2.0010    2.1010 ho        1 G0S      0.231000
     22 H4          2.0330    0.6500    2.9410 h1        1 G0S      0.090000
     23 HB          2.9620    2.2920    2.0280 ho        1 G0S      0.196000
     24 H5         -0.1420    0.0130    2.4600 h1        1 G0S      0.106000
     25 H6A        -0.1070    2.8210    2.0980 h1        1 G0S      0.094500
     26 H6B         0.2870    2.1890    3.5080 h1        1 G0S      0.094500
     27 H6         -1.8470    2.6000    3.5840 ho        1 G0S      0.219000
     28 H1A        -1.7140   -1.9020   -1.8990 h1        1 G0S      0.114000
     29 H1B        -2.5430   -0.5860   -1.6600 h1        1 G0S      0.114000
     30 H2A        -1.6170   -1.5560   -4.1460 ha        1 G0S      0.081000
     31 H2B        -2.1010   -0.0400   -3.9940 ha        1 G0S      0.081000
     32 HC          3.2860   -0.2520    1.1320 h1        1 G0S      0.077000
@<TRIPOS>BOND
     1    1    2 1   
     2    1    9 1   
     3    1   12 1   
     4    1   18 1   
     5    2    3 1   
     6    2    4 1   
     7    2   19 1   
     8    3   20 1   
     9    4    5 1   
    10    4    6 1   
    11    4   32 1   
    12    5   21 1   
    13    6    7 1   
    14    6    8 1   
    15    6   22 1   
    16    7   23 1   
    17    8    9 1   
    18    8   10 1   
    19    8   24 1   
    20   10   11 1   
    21   10   25 1   
    22   10   26 1   
    23   11   27 1   
    24   12   13 1   
    25   13   15 1   
    26   13   28 1   
    27   13   29 1   
    28   14   16 1   
    29   14   17 1   
    30   15   30 1   
    31   15   31 1   
@<TRIPOS>SUBSTRUCTURE
     1 G0S         1 TEMP              0 ****  ****    0 ROOT
