@<TRIPOS>MOLECULE
G0S
   32    32     1     0     0
SMALL
bcc


@<TRIPOS>ATOM
      1 C1         -0.4220   -0.0890   -0.0530 c3        1 G0S      0.177200
      2 C2         -1.4810   -1.1880    0.0760 c3        1 G0S      0.096100
      3 O2         -1.0460   -2.4310   -0.4460 oh        1 G0S     -0.621800
      4 C3         -2.7240   -0.7950   -0.7400 c3        1 G0S      0.107100
      5 O3         -3.7820   -1.7200   -0.5370 oh        1 G0S     -0.620800
      6 C4         -3.2440    0.5800   -0.2900 c3        1 G0S      0.126100
      7 O4         -3.8040    0.5410    1.0110 oh        1 G0S     -0.596800
      8 C5         -2.0950    1.5980   -0.3030 c3        1 G0S      0.090100
      9 O5         -0.9460    1.1490    0.4160 os        1 G0S     -0.392600
     10 C6         -2.5120    2.9060    0.3760 c3        1 G0S      0.147400
     11 O6         -1.5280    3.9050    0.2090 oh        1 G0S     -0.610800
     12 S1          0.9660   -0.4830    0.9800 ss        1 G0S     -0.335200
     13 C1A         2.3650    0.0100   -0.0180 c3        1 G0S      0.038700
     14 C3A         4.6410   -0.8830   -0.5960 c         1 G0S      0.917600
     15 C2A         3.5650   -0.7170    0.5080 c3        1 G0S     -0.208400
     16 O3A         4.2560   -0.9990   -1.7930 o         1 G0S     -0.836300
     17 OXT         5.8440   -0.9100   -0.2200 o         1 G0S     -0.836300
     18 H1         -0.1000    0.0140   -1.1240 h2        1 G0S      0.070700
     19 H2         -1.7680   -1.3150    1.1590 h1        1 G0S      0.072700
     20 HA         -0.1270   -2.5510   -0.1570 ho        1 G0S      0.442000
     21 H3         -3.3930   -2.6020   -0.6070 ho        1 G0S      0.430000
     22 H4         -4.0450    0.9170   -1.0080 h1        1 G0S      0.044700
     23 HB         -4.2870   -0.2940    1.0860 ho        1 G0S      0.419000
     24 H5         -1.8020    1.7860   -1.3750 h1        1 G0S      0.051700
     25 H6A        -3.4340    3.3110   -0.1160 h1        1 G0S      0.058200
     26 H6B        -2.7040    2.7180    1.4650 h1        1 G0S      0.058200
     27 H6         -0.7020    3.5480    0.5640 ho        1 G0S      0.420000
     28 H1A         2.1960   -0.2680   -1.0900 h1        1 G0S      0.074700
     29 H1B         2.4950    1.1150    0.0470 h1        1 G0S      0.074700
     30 H2A         4.0150   -0.1770    1.3770 hc        1 G0S      0.041200
     31 H2B         3.2870   -1.7480    0.8470 hc        1 G0S      0.041200
     32 HC         -2.4630   -0.7670   -1.8340 h1        1 G0S      0.057700
@<TRIPOS>BOND
     1    1    2 1   
     2    1    9 1   
     3    1   12 1   
     4    1   18 1   
     5    2    3 1   
     6    2    4 1   
     7    2   19 1   
     8    3   20 1   
     9    4    5 1   
    10    4    6 1   
    11    4   32 1   
    12    5   21 1   
    13    6    7 1   
    14    6    8 1   
    15    6   22 1   
    16    7   23 1   
    17    8    9 1   
    18    8   10 1   
    19    8   24 1   
    20   10   11 1   
    21   10   25 1   
    22   10   26 1   
    23   11   27 1   
    24   12   13 1   
    25   13   15 1   
    26   13   28 1   
    27   13   29 1   
    28   14   15 1   
    29   14   16 1   
    30   14   17 1   
    31   15   30 1   
    32   15   31 1   
@<TRIPOS>SUBSTRUCTURE
     1 G0S         1 TEMP              0 ****  ****    0 ROOT
