@<TRIPOS>MOLECULE
G0S
   32    32     1     0     0
SMALL
bcc


@<TRIPOS>ATOM
      1 C1         -0.2960    0.4860    0.1780 c3        1 G0S      0.178200
      2 C2          1.1980    0.1650    0.0690 c3        1 G0S      0.096100
      3 O2          1.4510   -1.0110   -0.6810 oh        1 G0S     -0.621800
      4 C3          1.7660   -0.0960    1.4740 c3        1 G0S      0.107100
      5 O3          3.1750   -0.2620    1.4320 oh        1 G0S     -0.620800
      6 C4          1.4880    1.1050    2.3920 c3        1 G0S      0.126100
      7 O4          2.2450    2.2460    2.0260 oh        1 G0S     -0.596800
      8 C5         -0.0040    1.4640    2.3370 c3        1 G0S      0.090100
      9 O5         -0.4880    1.6290    1.0040 os        1 G0S     -0.392600
     10 C6         -0.2740    2.8010    3.0340 c3        1 G0S      0.147400
     11 O6         -1.6590    3.0500    3.1450 oh        1 G0S     -0.610800
     12 S1         -0.9280    0.9010   -1.4280 ss        1 G0S     -0.335200
     13 C1A        -2.5380    0.1240   -1.4410 c3        1 G0S      0.038700
     14 C3A        -3.9470   -1.2020   -3.0430 c         1 G0S      0.917600
     15 C2A        -2.9460   -0.0310   -2.8740 c3        1 G0S     -0.208400
     16 O3A        -3.8490   -2.1900   -2.2620 o         1 G0S     -0.836300
     17 OXT        -4.7930   -1.1010   -3.9730 o         1 G0S     -0.836300
     18 H1         -0.8510   -0.3920    0.6050 h2        1 G0S      0.070700
     19 H2          1.7420    1.0330   -0.4010 h1        1 G0S      0.072700
     20 HA          0.8610   -0.9850   -1.4520 ho        1 G0S      0.442000
     21 H3          3.3590   -0.8620    0.6970 ho        1 G0S      0.430000
     22 H4          1.7620    0.8250    3.4490 h1        1 G0S      0.044700
     23 HB          3.1200    1.9310    1.7630 ho        1 G0S      0.419000
     24 H5         -0.5850    0.6370    2.8340 h1        1 G0S      0.051700
     25 H6A         0.2320    3.6270    2.4670 h1        1 G0S      0.058200
     26 H6B         0.1090    2.7630    4.0870 h1        1 G0S      0.058200
     27 H6         -2.0240    3.0170    2.2510 ho        1 G0S      0.420000
     28 H1A        -3.2600    0.7580   -0.8770 h1        1 G0S      0.074700
     29 H1B        -2.4880   -0.8830   -0.9530 h1        1 G0S      0.074700
     30 H2A        -2.0580   -0.2690   -3.5160 hc        1 G0S      0.041200
     31 H2B        -3.4140    0.9060   -3.2640 hc        1 G0S      0.041200
     32 HC          1.2970   -1.0240    1.9040 h1        1 G0S      0.057700
@<TRIPOS>BOND
     1    1    2 1   
     2    1    9 1   
     3    1   12 1   
     4    1   18 1   
     5    2    3 1   
     6    2    4 1   
     7    2   19 1   
     8    3   20 1   
     9    4    5 1   
    10    4    6 1   
    11    4   32 1   
    12    5   21 1   
    13    6    7 1   
    14    6    8 1   
    15    6   22 1   
    16    7   23 1   
    17    8    9 1   
    18    8   10 1   
    19    8   24 1   
    20   10   11 1   
    21   10   25 1   
    22   10   26 1   
    23   11   27 1   
    24   12   13 1   
    25   13   15 1   
    26   13   28 1   
    27   13   29 1   
    28   14   15 1   
    29   14   16 1   
    30   14   17 1   
    31   15   30 1   
    32   15   31 1   
@<TRIPOS>SUBSTRUCTURE
     1 G0S         1 TEMP              0 ****  ****    0 ROOT
