@<TRIPOS>MOLECULE
G0S
   32    32     1     0     0
SMALL
bcc


@<TRIPOS>ATOM
      1 C1         -0.2940    0.4920    0.1740 c3        1 G0S      0.177200
      2 C2          1.2030    0.1920    0.0550 c3        1 G0S      0.096100
      3 O2          1.4690   -0.9600   -0.7260 oh        1 G0S     -0.621800
      4 C3          1.7770   -0.0980    1.4520 c3        1 G0S      0.107100
      5 O3          3.1880   -0.2450    1.4030 oh        1 G0S     -0.620800
      6 C4          1.4850    1.0750    2.4010 c3        1 G0S      0.126100
      7 O4          2.2270    2.2340    2.0640 oh        1 G0S     -0.596800
      8 C5         -0.0110    1.4160    2.3590 c3        1 G0S      0.090100
      9 O5         -0.4990    1.6100    1.0310 os        1 G0S     -0.392600
     10 C6         -0.2960    2.7310    3.0910 c3        1 G0S      0.147400
     11 O6         -1.6840    2.9590    3.2110 oh        1 G0S     -0.610800
     12 S1         -0.9350    0.9410   -1.4190 ss        1 G0S     -0.335200
     13 C1A        -2.5350    0.1440   -1.4500 c3        1 G0S      0.038700
     14 C3A        -3.9320   -1.1560   -3.0850 c         1 G0S      0.917600
     15 C2A        -2.9440    0.0230   -2.8860 c3        1 G0S     -0.208400
     16 O3A        -3.8190   -2.1640   -2.3310 o         1 G0S     -0.836300
     17 OXT        -4.7810   -1.0390   -4.0090 o         1 G0S     -0.836300
     18 H1         -0.8370   -0.4040    0.5800 h2        1 G0S      0.070700
     19 H2          1.7350    1.0790   -0.3920 h1        1 G0S      0.072700
     20 HA          0.8780   -0.9210   -1.4960 ho        1 G0S      0.442000
     21 H3          3.3780   -0.8230    0.6520 ho        1 G0S      0.430000
     22 H4          1.7650    0.7700    3.4500 h1        1 G0S      0.044700
     23 HB          3.1070    1.9370    1.7920 ho        1 G0S      0.419000
     24 H5         -0.5800    0.5680    2.8350 h1        1 G0S      0.051700
     25 H6A         0.0890    2.6700    4.1420 h1        1 G0S      0.058200
     26 H6B         0.1990    3.5780    2.5460 h1        1 G0S      0.058200
     27 H6         -2.0500    2.9450    2.3160 ho        1 G0S      0.420000
     28 H1A        -3.2640    0.7520   -0.8670 h1        1 G0S      0.074700
     29 H1B        -2.4710   -0.8760   -0.9890 h1        1 G0S      0.074700
     30 H2A        -3.4250    0.9640   -3.2490 hc        1 G0S      0.041200
     31 H2B        -2.0550   -0.1860   -3.5350 hc        1 G0S      0.041200
     32 HC          1.3210   -1.0430    1.8580 h1        1 G0S      0.057700
@<TRIPOS>BOND
     1    1    2 1   
     2    1    9 1   
     3    1   12 1   
     4    1   18 1   
     5    2    3 1   
     6    2    4 1   
     7    2   19 1   
     8    3   20 1   
     9    4    5 1   
    10    4    6 1   
    11    4   32 1   
    12    5   21 1   
    13    6    7 1   
    14    6    8 1   
    15    6   22 1   
    16    7   23 1   
    17    8    9 1   
    18    8   10 1   
    19    8   24 1   
    20   10   11 1   
    21   10   25 1   
    22   10   26 1   
    23   11   27 1   
    24   12   13 1   
    25   13   15 1   
    26   13   28 1   
    27   13   29 1   
    28   14   15 1   
    29   14   16 1   
    30   14   17 1   
    31   15   30 1   
    32   15   31 1   
@<TRIPOS>SUBSTRUCTURE
     1 G0S         1 TEMP              0 ****  ****    0 ROOT
