@<TRIPOS>MOLECULE
G0T
   70    73     1     0     0
SMALL
bcc


@<TRIPOS>ATOM
      1 C1          4.6730    4.1550    2.3530 ca        1 G0T     -0.149000
      2 C2          3.6500    5.0990    2.2530 ca        1 G0T     -0.135000
      3 C3          4.7460    3.1150    1.4320 ca        1 G0T     -0.096000
      4 C4          2.7000    4.9860    1.2430 ca        1 G0T     -0.137000
      5 C5         -2.7350    2.6110   -0.9530 ca        1 G0T     -0.147000
      6 C6          5.2670   -1.7070   -0.9700 ca        1 G0T     -0.083000
      7 C7          3.1030   -2.2260   -0.0150 ca        1 G0T     -0.083000
      8 C8         -3.9240    1.9650   -0.6370 ca        1 G0T     -0.163000
      9 C9          5.8280   -2.8170   -0.3330 ca        1 G0T     -0.197000
     10 C10         3.6450   -3.3320    0.6290 ca        1 G0T     -0.197000
     11 C11         3.7900    2.9980    0.4130 ca        1 G0T     -0.093600
     12 C12        -1.4940    0.5180   -0.8200 ca        1 G0T     -0.060600
     13 C13         3.9130   -1.4120   -0.8220 ca        1 G0T     -0.118300
     14 C14         2.7510    3.9300    0.3210 ca        1 G0T     -0.036300
     15 C15        -1.5310    1.9020   -1.0420 ca        1 G0T     -0.099300
     16 C16        -3.9030    0.5830   -0.4050 ca        1 G0T      0.061100
     17 C17        -2.6950   -0.1370   -0.5020 ca        1 G0T      0.069100
     18 C18         5.0110   -3.6240    0.4630 ca        1 G0T      0.096100
     19 C19         4.0080    1.8990   -0.5850 c         1 G0T      0.651700
     20 C21        -7.9660   -3.7490    1.1330 c         1 G0T      0.909600
     21 C22        -3.9420   -2.1270   -0.3600 c3        1 G0T      0.094400
     22 C23        -5.0050   -1.3510    0.4100 c3        1 G0T      0.103100
     23 C25         3.2900   -0.2430   -1.5340 c3        1 G0T      0.106300
     24 C26         1.6950    3.8480   -0.7480 c3        1 G0T      0.214100
     25 C27        -0.2790    2.6350   -1.4320 c3        1 G0T      0.224100
     26 C28        -0.2640    3.8680    0.6760 c3        1 G0T      0.158100
     27 C30        -6.3900   -1.9740    0.2910 c3        1 G0T     -0.062400
     28 N1          3.0800    0.9080   -0.6910 n         1 G0T     -0.516900
     29 N2          0.5000    3.1430   -0.3060 n3        1 G0T     -0.723600
     30 O1          0.1910   -0.5550   -2.1290 o         1 G0T     -0.838300
     31 O2         -8.6910   -3.9170    2.1570 o         1 G0T     -0.855800
     32 O3          5.0530    1.9240   -1.2860 o         1 G0T     -0.674100
     33 O4          0.5380   -0.4180    0.0600 o         1 G0T     -0.838300
     34 O5         -8.2930   -4.1410   -0.0250 o         1 G0T     -0.855800
     35 O6         -2.6600   -1.5010   -0.2530 os        1 G0T     -0.299900
     36 O7         -5.1180   -0.0130   -0.1220 os        1 G0T     -0.333900
     37 O8          5.4540   -4.7510    1.1460 os        1 G0T     -0.337900
     38 H1          5.4210    4.2340    3.1540 ha        1 G0T      0.117000
     39 H2          3.5920    5.9260    2.9730 ha        1 G0T      0.115000
     40 H3          5.5600    2.3760    1.4880 ha        1 G0T      0.141000
     41 H4          1.8900    5.7280    1.1650 ha        1 G0T      0.126000
     42 H5         -2.7410    3.6960   -1.1340 ha        1 G0T      0.106000
     43 H6          5.9040   -1.0550   -1.5880 ha        1 G0T      0.175000
     44 H7          2.0280   -1.9610    0.0970 ha        1 G0T      0.175000
     45 H8         -4.8730    2.5100   -0.5690 ha        1 G0T      0.127000
     46 H9          6.8940   -3.0360   -0.4630 ha        1 G0T      0.128000
     47 H10         3.0230   -3.9790    1.2620 ha        1 G0T      0.128000
     48 H11        -3.7870   -3.1440    0.0850 h1        1 G0T      0.065700
     49 H12        -4.2210   -2.2100   -1.4420 h1        1 G0T      0.065700
     50 H13        -4.6960   -1.2560    1.4890 h1        1 G0T      0.054700
     51 H14         7.0510   -5.2840   -0.1020 h1        1 G0T      0.029367
     52 H15         7.4800   -4.2610    1.3560 h1        1 G0T      0.029367
     53 H16         6.9550   -6.0070    1.5850 h1        1 G0T      0.029367
     54 H17         3.9430    0.0530   -2.4050 h1        1 G0T      0.097200
     55 H18         2.2640   -0.5610   -1.9150 h1        1 G0T      0.097200
     56 H19         1.4560    4.9030   -1.0840 h1        1 G0T      0.035700
     57 H20         2.1220    3.3050   -1.6410 h1        1 G0T      0.035700
     58 H21         0.3890    1.9190   -1.9980 h1        1 G0T      0.043200
     59 H22        -0.5640    3.4780   -2.1330 h1        1 G0T      0.043200
     60 H23        -0.6370    4.8640    0.3040 h1        1 G0T      0.027033
     61 H24        -1.1460    3.2470    0.9840 h1        1 G0T      0.027033
     62 H25         0.3800    4.0460    1.5780 h1        1 G0T      0.027033
     63 H26        -6.5570   -2.6220    2.3550 hc        1 G0T      0.023700
     64 H27        -5.8070   -3.8320    1.2360 hc        1 G0T      0.023700
     65 H28        -7.1590   -1.1680    0.4220 hc        1 G0T      0.058700
     66 H29        -6.5350   -2.4060   -0.7340 hc        1 G0T      0.058700
     67 H30         2.2400    0.9010   -0.1370 hn        1 G0T      0.379500
     68 C29        -6.6060   -3.0530    1.3240 c3        1 G0T     -0.193400
     69 C20        -0.1780   -0.2200   -0.9650 c         1 G0T      0.928200
     70 C24         6.8220   -5.0790    0.9730 c3        1 G0T      0.121700
@<TRIPOS>BOND
     1    1    2 ar  
     2    1    3 ar  
     3    1   38 1   
     4    2    4 ar  
     5    2   39 1   
     6    3   11 ar  
     7    3   40 1   
     8    4   14 ar  
     9    4   41 1   
    10    5    8 ar  
    11    5   15 ar  
    12    5   42 1   
    13    6    9 ar  
    14    6   13 ar  
    15    6   43 1   
    16    7   10 ar  
    17    7   13 ar  
    18    7   44 1   
    19    8   16 ar  
    20    8   45 1   
    21    9   18 ar  
    22    9   46 1   
    23   10   18 ar  
    24   10   47 1   
    25   11   14 ar  
    26   11   19 1   
    27   12   15 ar  
    28   12   17 ar  
    29   12   69 1   
    30   13   23 1   
    31   14   24 1   
    32   15   25 1   
    33   16   17 ar  
    34   16   36 1   
    35   17   35 1   
    36   18   37 1   
    37   19   28 1   
    38   19   32 2   
    39   20   31 1   
    40   20   34 1   
    41   20   68 1   
    42   21   22 1   
    43   21   35 1   
    44   21   48 1   
    45   21   49 1   
    46   22   27 1   
    47   22   36 1   
    48   22   50 1   
    49   23   28 1   
    50   23   54 1   
    51   23   55 1   
    52   24   29 1   
    53   24   56 1   
    54   24   57 1   
    55   25   29 1   
    56   25   58 1   
    57   25   59 1   
    58   26   29 1   
    59   26   60 1   
    60   26   61 1   
    61   26   62 1   
    62   27   65 1   
    63   27   66 1   
    64   27   68 1   
    65   28   67 1   
    66   30   69 1   
    67   33   69 1   
    68   37   70 1   
    69   51   70 1   
    70   52   70 1   
    71   53   70 1   
    72   63   68 1   
    73   64   68 1   
@<TRIPOS>SUBSTRUCTURE
     1 G0T         1 TEMP              0 ****  ****    0 ROOT
