@<TRIPOS>MOLECULE
G0T
   70    59     1     0     0
SMALL
bcc


@<TRIPOS>ATOM
      1 C1         -4.4940    1.6560   -0.0730 c1        1 G0T     -0.127333
      2 C2         -4.3140    1.0470    1.1710 c1        1 G0T     -0.127333
      3 C3         -3.4860    2.4640   -0.6090 c1        1 G0T     -0.127333
      4 C4         -3.1230    1.2480    1.8820 c1        1 G0T     -0.127333
      5 C5          0.1190   -2.0920    3.4130 c1        1 G0T     -0.144000
      6 C6         -2.2130    3.5350   -4.9640 c1        1 G0T     -0.089000
      7 C7         -1.5280    5.8410   -4.8710 c1        1 G0T     -0.127333
      8 C8          0.5340   -3.4460    3.3350 c1        1 G0T     -0.161000
      9 C9         -2.7990    3.7630   -6.2060 c1        1 G0T     -0.214000
     10 C10        -2.1120    6.0670   -6.1070 c1        1 G0T     -0.127333
     11 C11        -2.3030    2.6630    0.0980 c1        1 G0T     -0.113000
     12 C12         2.4740   -1.3440    3.1670 c1        1 G0T     -0.059000
     13 C13        -1.5790    4.5710   -4.2980 c1        1 G0T     -0.101000
     14 C14        -2.1210    2.0540    1.3460 c1        1 G0T     -0.014000
     15 C15         1.0950   -1.0320    3.3280 c1        1 G0T     -0.124000
     16 C16         1.8760   -3.7520    3.1780 c1        1 G0T      0.013000
     17 C17         2.8800   -2.6620    3.0910 c1        1 G0T      0.025000
     18 C18        -2.7480    5.0270   -6.7760 c1        1 G0T      0.054000
     19 C19        -1.3510    3.6530   -0.6390 c2        1 G0T      0.332000
     20 C20         3.8330   -0.6750    2.9590 c1        1 G0T      0.379000
     21 C21         4.1010   -9.2310    2.9700 c1        1 G0T      0.329000
     22 C22         4.5200   -4.3020    2.4880 c3        1 G0T     -0.056000
     23 C23         3.6920   -5.3230    3.1930 c3        1 G0T     -0.008000
     24 C24        -3.2270    5.0070   -9.0830 c3        1 G0T     -0.069000
     25 C25        -0.8220    4.2910   -2.9830 c2        1 G0T     -0.001000
     26 C26        -0.8380    1.9810    2.2310 c3        1 G0T     -0.072000
     27 C27         0.6410    0.4450    3.3800 c2        1 G0T     -0.030000
     28 C28        -0.7590   -0.3530    1.6660 c3        1 G0T     -0.118000
     29 C29         3.6880   -7.8780    3.5510 c2        1 G0T     -0.222000
     30 C30         4.0240   -6.7630    2.5420 c3        1 G0T     -0.140000
     31 N1         -1.7480    4.2380   -1.9010 n         1 G0T     -0.333000
     32 N2         -0.6610    0.5730    2.7500 n3        1 G0T     -0.267000
     33 O1          4.6350   -0.5740    3.9190 os        1 G0T     -0.545000
     34 O2          3.2430   -9.9640    2.4140 o         1 G0T     -0.590500
     35 O3         -0.2850    3.9560   -0.1390 o         1 G0T     -0.424000
     36 O4          4.1720   -0.2900    1.8180 o         1 G0T     -0.608000
     37 O5          5.3120   -9.5770    2.9800 o         1 G0T     -0.590500
     38 O6          4.2970   -3.0500    2.7920 o         1 G0T     -0.184000
     39 O7          2.3830   -5.1540    3.1510 os        1 G0T     -0.216000
     40 O8         -3.2870    5.7210   -7.8760 os        1 G0T     -0.222000
     41 H1         -5.3070    1.4610   -0.6070 ha        1 G0T      0.135167
     42 H2         -5.0310    0.4720    1.5530 ha        1 G0T      0.135167
     43 H3         -3.6120    2.8890   -1.4770 ha        1 G0T      0.135167
     44 H4         -2.9930    0.8180    2.7630 ha        1 G0T      0.135167
     45 H5         -0.8350   -1.8750    3.4950 ha        1 G0T      0.107000
     46 H6         -2.2490    2.6270   -4.5550 ha        1 G0T      0.159000
     47 H7         -1.0780    6.5770   -4.3970 ha        1 G0T      0.135167
     48 H8         -0.1290   -4.1670    3.3920 ha        1 G0T      0.127000
     49 H9         -3.3070    3.0510   -6.6440 ha        1 G0T      0.121000
     50 H10        -2.1130    6.9800   -6.4950 ha        1 G0T      0.135167
     51 H11         5.4460   -4.4930    2.6720 h1        1 G0T      0.104500
     52 H12         4.3740   -4.4070    1.5290 h1        1 G0T      0.104500
     53 H13         3.9710   -5.3390    4.1450 h1        1 G0T      0.093000
     54 H14        -3.6250    5.5410   -9.7970 h1        1 G0T      0.072000
     55 H15        -3.7200    4.1700   -8.9900 h1        1 G0T      0.072000
     56 H16        -2.2970    4.8150   -9.3010 h1        1 G0T      0.072000
     57 H17        -0.1630    5.0180   -2.8200 h4        1 G0T      0.125000
     58 H18        -0.3480    3.4280   -3.0530 h4        1 G0T      0.125000
     59 H19        -0.9290    2.6120    3.0010 h1        1 G0T      0.128000
     60 H20        -0.0520    2.2340    1.6900 h1        1 G0T      0.128000
     61 H21         0.5840    0.7360    4.3070 h4        1 G0T      0.104500
     62 H22         1.2860    0.9990    2.9060 h4        1 G0T      0.104500
     63 H23        -1.0530   -1.2420    2.0140 h1        1 G0T      0.063000
     64 H24        -1.4170   -0.0240    1.0100 h1        1 G0T      0.063000
     65 H25         0.1340   -0.4450    1.2260 h1        1 G0T      0.063000
     66 H26         4.1750   -7.7190    4.3900 ha        1 G0T      0.062500
     67 H27         2.7250   -7.8800    3.7270 ha        1 G0T      0.062500
     68 H28         3.4910   -6.8830    1.7370 hc        1 G0T      0.099000
     69 H29         4.9720   -6.8070    2.3140 hc        1 G0T      0.099000
     70 H30        -2.6190    4.5110   -2.0270 hn        1 G0T      0.278000
@<TRIPOS>BOND
     1    1    3 1   
     2    1   41 1   
     3    2    4 1   
     4    2   42 1   
     5    3   43 1   
     6    4   44 1   
     7    5   15 1   
     8    5   45 1   
     9    6   13 1   
    10    6   46 1   
    11    7   10 1   
    12    7   47 1   
    13    8   16 1   
    14    8   48 1   
    15    9   18 1   
    16    9   49 1   
    17   10   50 1   
    18   11   14 1   
    19   11   19 1   
    20   12   15 1   
    21   12   17 1   
    22   14   26 1   
    23   16   39 1   
    24   18   40 1   
    25   19   31 1   
    26   19   35 1   
    27   20   36 1   
    28   21   34 1   
    29   21   37 1   
    30   22   23 1   
    31   22   38 1   
    32   22   51 1   
    33   22   52 1   
    34   23   30 1   
    35   23   39 1   
    36   23   53 1   
    37   24   40 1   
    38   24   54 1   
    39   24   55 1   
    40   24   56 1   
    41   25   31 1   
    42   25   57 1   
    43   25   58 1   
    44   26   32 1   
    45   26   59 1   
    46   26   60 1   
    47   27   32 1   
    48   27   61 1   
    49   27   62 1   
    50   28   32 1   
    51   28   63 1   
    52   28   64 1   
    53   28   65 1   
    54   29   30 1   
    55   29   66 1   
    56   29   67 1   
    57   30   68 1   
    58   30   69 1   
    59   31   70 1   
@<TRIPOS>SUBSTRUCTURE
     1 G0T         1 TEMP              0 ****  ****    0 ROOT
