@<TRIPOS>MOLECULE
G0T
   70    73     1     0     0
SMALL
bcc


@<TRIPOS>ATOM
      1 C1         -1.1770    0.2890    0.6060 c2        1 G0T     -0.149000
      2 C2          0.2140   -0.2150    0.5350 c3        1 G0T     -0.138000
      3 C3         -1.8640    0.3190    1.7600 c2        1 G0T     -0.166000
      4 C4          0.8470   -0.4490    1.8320 c1        1 G0T     -0.237000
      5 C5          4.2450   -3.0800    6.1400 ca        1 G0T     -0.137000
      6 C6         -6.2930    0.8320    4.7900 c3        1 G0T     -0.121000
      7 C7         -6.2790   -1.4030    3.6870 c2        1 G0T     -0.460000
      8 C8          4.4960   -4.3510    6.6420 ca        1 G0T     -0.158000
      9 C9         -5.9720    1.4650    3.4680 c2        1 G0T      0.003000
     10 C10        -6.2610   -0.7840    2.4680 c2        1 G0T      0.016000
     11 C11        -1.3030   -0.1540    3.0260 c2        1 G0T      0.053000
     12 C12         1.8570   -3.3260    6.5750 ca        1 G0T     -0.046000
     13 C13        -5.8610   -0.6320    4.8800 c3        1 G0T     -0.014000
     14 C14         0.1390   -0.3910    3.0180 c2        1 G0T     -0.262000
     15 C15         2.9460   -2.5650    6.1180 ca        1 G0T     -0.123000
     16 C16         3.4260   -5.1140    7.1290 ca        1 G0T      0.028000
     17 C17         2.1110   -4.6020    7.1010 ca        1 G0T      0.032000
     18 C18        -5.9220    0.5730    2.3480 c2        1 G0T     -0.345000
     19 C19        -2.1280   -0.4150    4.0930 c2        1 G0T     -0.025000
     20 C21         2.6490  -10.6170    9.7200 c2        1 G0T      0.329000
     21 C22         1.4420   -6.4110    8.4460 c3        1 G0T     -0.059000
     22 C23         2.6020   -7.2130    7.8700 c3        1 G0T     -0.007000
     23 C25        -4.3530   -0.7030    4.9950 c2        1 G0T      0.070000
     24 C26         0.8490   -0.5950    4.2350 c2        1 G0T      0.181000
     25 C27         2.7260   -1.1490    5.6700 c3        1 G0T     -0.013000
     26 C28         2.9130   -1.4390    3.2260 c3        1 G0T     -0.086000
     27 C30         3.0780   -8.3120    8.8120 c3        1 G0T     -0.142000
     28 N1         -3.5550   -0.3400    4.0240 n3        1 G0T     -0.059000
     29 N2          2.1120   -1.0150    4.3500 n3        1 G0T     -0.157000
     30 O1          0.2180   -1.6540    7.0860 o         1 G0T     -0.568000
     31 O2          2.8360  -11.8060    9.3280 o         1 G0T     -0.588000
     32 O3         -1.7040   -0.6500    5.3780 oh        1 G0T     -0.289000
     33 O4         -0.3760   -3.2470    5.6790 o         1 G0T     -0.568000
     34 O5          2.7480  -10.2530   10.9270 o         1 G0T     -0.588000
     35 O6          1.0450   -5.3520    7.5660 os        1 G0T     -0.177000
     36 O7          3.7420   -6.3500    7.6540 os        1 G0T     -0.213000
     37 O8         -5.6460    1.0810    1.0880 oh        1 G0T     -0.269000
     38 H1         -1.6280    0.6600   -0.3270 ha        1 G0T      0.112000
     39 H2          0.2350   -1.1920   -0.0290 hc        1 G0T      0.107500
     40 H3         -2.8810    0.7490    1.7530 ha        1 G0T      0.142000
     41 H4          0.8490    0.5100   -0.0460 hc        1 G0T      0.107500
     42 H5          5.0820   -2.4740    5.7640 ha        1 G0T      0.109000
     43 H6         -5.8240    1.4140    5.6250 hc        1 G0T      0.079500
     44 H7         -6.5450   -2.4520    3.8200 ha        1 G0T      0.116000
     45 H8          5.5110   -4.7670    6.6700 ha        1 G0T      0.133000
     46 H9         -7.4070    0.8690    4.9330 hc        1 G0T      0.079500
     47 H10        -6.4650   -1.3550    1.5480 ha        1 G0T      0.102000
     48 H11         1.7180   -5.9750    9.4410 h1        1 G0T      0.108500
     49 H12         0.5220   -7.0450    8.5370 h1        1 G0T      0.108500
     50 H13         2.3120   -7.6350    6.8670 h1        1 G0T      0.098000
     51 H14        -6.4460    1.5510    0.8080 ho        1 G0T      0.150000
     52 H15        -5.8480    3.4520    4.2640 ha        1 G0T      0.092500
     53 H16        -5.5900    3.2910    2.4320 ha        1 G0T      0.092500
     54 H17        -6.2830   -1.0840    5.8200 hc        1 G0T      0.092000
     55 H18        -3.9080   -1.1050    5.9320 h4        1 G0T      0.182000
     56 H19         0.3380   -0.3830    5.2130 h4        1 G0T      0.216000
     57 H20        -1.4250   -1.5960    5.4710 ho        1 G0T      0.298000
     58 H21         2.0670   -0.6410    6.4400 h1        1 G0T      0.118000
     59 H22         3.7160   -0.6080    5.6250 h1        1 G0T      0.118000
     60 H23         3.1860   -0.5470    2.6000 h1        1 G0T      0.100333
     61 H24         2.3220   -2.1450    2.5780 h1        1 G0T      0.100333
     62 H25         3.8370   -1.9530    3.6010 h1        1 G0T      0.100333
     63 H26         1.1700   -9.3360    8.7970 hc        1 G0T      0.063500
     64 H27         2.3920  -10.0060    7.6410 hc        1 G0T      0.063500
     65 H28         4.1540   -8.5350    8.5870 hc        1 G0T      0.100000
     66 H29         3.0260   -7.9600    9.8760 hc        1 G0T      0.100000
     67 H30        -3.9690   -0.0020    3.1500 hn        1 G0T      0.306000
     68 C29         2.2570   -9.5690    8.6620 c3        1 G0T     -0.224000
     69 C20         0.4710   -2.7340    6.4670 c2        1 G0T      0.356000
     70 C24        -5.8000    2.8010    3.3870 c2        1 G0T     -0.376000
@<TRIPOS>BOND
     1    1    2 1   
     2    1    3 1   
     3    1   38 1   
     4    2    4 1   
     5    2   39 1   
     6    2   41 1   
     7    3   11 1   
     8    3   40 1   
     9    4   14 1   
    10    5    8 1   
    11    5   15 1   
    12    5   42 1   
    13    6    9 1   
    14    6   13 1   
    15    6   43 1   
    16    6   46 1   
    17    7   10 1   
    18    7   13 1   
    19    7   44 1   
    20    8   16 1   
    21    8   45 1   
    22    9   18 1   
    23    9   70 1   
    24   10   18 1   
    25   10   47 1   
    26   11   14 1   
    27   11   19 1   
    28   12   15 1   
    29   12   17 1   
    30   12   69 1   
    31   13   23 1   
    32   13   54 1   
    33   14   24 1   
    34   15   25 1   
    35   16   17 1   
    36   16   36 1   
    37   17   35 1   
    38   18   37 1   
    39   19   28 1   
    40   19   32 1   
    41   20   31 1   
    42   20   34 1   
    43   20   68 1   
    44   21   22 1   
    45   21   35 1   
    46   21   48 1   
    47   21   49 1   
    48   22   27 1   
    49   22   36 1   
    50   22   50 1   
    51   23   28 1   
    52   23   55 1   
    53   24   29 1   
    54   24   56 1   
    55   25   29 1   
    56   25   58 1   
    57   25   59 1   
    58   26   29 1   
    59   26   60 1   
    60   26   61 1   
    61   26   62 1   
    62   27   65 1   
    63   27   66 1   
    64   27   68 1   
    65   28   67 1   
    66   30   69 1   
    67   32   57 1   
    68   33   69 1   
    69   37   51 1   
    70   52   70 1   
    71   53   70 1   
    72   63   68 1   
    73   64   68 1   
@<TRIPOS>SUBSTRUCTURE
     1 G0T         1 TEMP              0 ****  ****    0 ROOT
