@<TRIPOS>MOLECULE
G10
   75    78     1     0     0
SMALL
bcc


@<TRIPOS>ATOM
      1 N1          0.7980    0.9510    1.9110 nh        1 G10     -0.847200
      2 C2          2.1280    0.7320    1.6170 ca        1 G10      0.233600
      3 C3          2.9120   -0.1540    2.4040 ca        1 G10     -0.233000
      4 C4          4.2250   -0.4110    2.0580 ca        1 G10      0.032500
      5 C5          4.8280    0.1770    0.9350 ca        1 G10     -0.466500
      6 C6          4.0490    1.0510    0.1610 ca        1 G10      0.032500
      7 C7          2.7340    1.3360    0.4820 ca        1 G10     -0.233000
      8 S8          6.4260   -0.1060    0.5570 sy        1 G10      1.517200
      9 O9          6.7790    0.6890   -0.5590 o         1 G10     -0.657300
     10 O10         7.2250    0.0550    1.7130 o         1 G10     -0.657300
     11 N11         6.4440   -1.6950    0.1280 n3        1 G10     -0.802500
     12 C12         6.0550   -2.1060   -1.1930 c3        1 G10      0.222800
     13 C13         7.1210   -2.8490   -2.0180 c3        1 G10     -0.082700
     14 C14         6.5310   -3.1820   -3.3730 c3        1 G10     -0.093600
     15 C15         8.3790   -2.0240   -2.1710 c3        1 G10     -0.093600
     16 C16         6.8310   -2.7180    1.0560 c3        1 G10      0.179800
     17 C17         5.6970   -3.6770    1.4850 c3        1 G10      0.084100
     18 O18         5.7360   -4.8770    0.7280 oh        1 G10     -0.605800
     19 C19         5.8580   -4.0820    2.9790 c3        1 G10      0.114700
     20 N20         4.7030   -4.7980    3.4820 n         1 G10     -0.501900
     21 C21         3.5720   -4.1080    3.8420 c         1 G10      0.743100
     22 O22         3.4340   -2.9020    4.1090 o         1 G10     -0.597000
     23 O23         2.4570   -4.9380    3.9200 os        1 G10     -0.433900
     24 C24         1.4250   -4.5420    4.8170 c3        1 G10      0.139100
     25 C25         0.0930   -4.5480    4.0420 c3        1 G10      0.111400
     26 O26        -0.8900   -5.1630    4.8770 os        1 G10     -0.412600
     27 C27        -0.2740   -5.8760    5.9370 c3        1 G10      0.325900
     28 O28        -0.4900   -7.2490    5.6410 os        1 G10     -0.404600
     29 C29         0.7180   -7.8790    5.2330 c3        1 G10      0.085400
     30 C30         1.9030   -6.9790    5.7200 c3        1 G10      0.401600
     31 C31         1.2430   -5.5790    5.9390 c3        1 G10     -0.183700
     32 C32         7.1460   -4.9030    3.1620 c3        1 G10     -0.037100
     33 C33         7.3280   -6.3780    5.1800 ca        1 G10     -0.121500
     34 C34         7.6600   -6.5760    6.5200 ca        1 G10     -0.127000
     35 C35         8.1470   -5.5170    7.2840 ca        1 G10     -0.128000
     36 C36         8.3020   -4.2560    6.7060 ca        1 G10     -0.127000
     37 C37         7.9710   -4.0560    5.3680 ca        1 G10     -0.121500
     38 C38         7.4810   -5.1170    4.5950 ca        1 G10     -0.085300
     39 F39         2.9750   -7.0090    4.8620 f         1 G10     -0.226300
     40 F40         2.4740   -7.4520    6.8850 f         1 G10     -0.226300
     41 H1          0.4800    0.6960    2.8140 hn        1 G10      0.418800
     42 H2          0.3550    1.7300    1.4860 hn        1 G10      0.418800
     43 H3          2.4840   -0.6530    3.2880 ha        1 G10      0.147500
     44 H4          4.8110   -1.1010    2.6950 ha        1 G10      0.151500
     45 H5          4.5080    1.5310   -0.7240 ha        1 G10      0.151500
     46 H6          2.1590    2.0300   -0.1470 ha        1 G10      0.147500
     47 H7          5.7560   -1.1810   -1.7700 h1        1 G10      0.046700
     48 H8          5.1460   -2.7740   -1.1200 h1        1 G10      0.046700
     49 H9          7.3790   -3.8140   -1.4970 hc        1 G10      0.043700
     50 H10         5.5940   -3.7790   -3.2600 hc        1 G10      0.040533
     51 H11         6.2910   -2.2480   -3.9380 hc        1 G10      0.040533
     52 H12         7.2610   -3.7780   -3.9720 hc        1 G10      0.040533
     53 H13         8.1300   -0.9790   -2.4800 hc        1 G10      0.040533
     54 H14         8.9380   -1.9810   -1.2050 hc        1 G10      0.040533
     55 H15         9.0470   -2.4770   -2.9430 hc        1 G10      0.040533
     56 H16         7.2520   -2.2160    1.9790 h1        1 G10      0.075200
     57 H17         7.6570   -3.3430    0.6050 h1        1 G10      0.075200
     58 H18         4.6910   -3.1840    1.3500 h1        1 G10      0.054700
     59 H19         5.6750   -4.6250   -0.2020 ho        1 G10      0.411000
     60 H20         5.9420   -3.1220    3.5740 h1        1 G10      0.088700
     61 H21         4.5950   -5.7500    3.2070 hn        1 G10      0.338500
     62 H22         1.6350   -3.5290    5.2550 h1        1 G10      0.102700
     63 H23        -0.2770   -3.5130    3.8330 h1        1 G10      0.070200
     64 H24         0.1780   -5.1350    3.0920 h1        1 G10      0.070200
     65 H25        -0.8370   -5.6450    6.8780 h2        1 G10      0.113700
     66 H26         0.7340   -8.8860    5.7200 h1        1 G10      0.082200
     67 H27         0.7380   -7.9620    4.1180 h1        1 G10      0.082200
     68 H28         1.5840   -5.1620    6.9180 hc        1 G10      0.108700
     69 H29         7.9800   -4.3360    2.6670 hc        1 G10      0.067200
     70 H30         7.0460   -5.8830    2.6230 hc        1 G10      0.067200
     71 H32         7.5350   -7.5710    6.9730 ha        1 G10      0.132500
     72 H33         8.4090   -5.6740    8.3410 ha        1 G10      0.131000
     73 H34         8.6860   -3.4190    7.3060 ha        1 G10      0.132500
     74 H35         8.0950   -3.0610    4.9130 ha        1 G10      0.132500
     75 H31         6.9420   -7.2170    4.5820 ha        1 G10      0.132500
@<TRIPOS>BOND
     1    1    2 1   
     2    1   41 1   
     3    1   42 1   
     4    2    3 ar  
     5    2    7 ar  
     6    3    4 ar  
     7    3   43 1   
     8    4    5 ar  
     9    4   44 1   
    10    5    6 ar  
    11    5    8 1   
    12    6    7 ar  
    13    6   45 1   
    14    7   46 1   
    15    8    9 2   
    16    8   10 2   
    17    8   11 1   
    18   11   12 1   
    19   11   16 1   
    20   12   13 1   
    21   12   47 1   
    22   12   48 1   
    23   13   14 1   
    24   13   15 1   
    25   13   49 1   
    26   14   50 1   
    27   14   51 1   
    28   14   52 1   
    29   15   53 1   
    30   15   54 1   
    31   15   55 1   
    32   16   17 1   
    33   16   56 1   
    34   16   57 1   
    35   17   18 1   
    36   17   19 1   
    37   17   58 1   
    38   18   59 1   
    39   19   20 1   
    40   19   32 1   
    41   19   60 1   
    42   20   21 1   
    43   20   61 1   
    44   21   22 2   
    45   21   23 1   
    46   23   24 1   
    47   24   25 1   
    48   24   31 1   
    49   24   62 1   
    50   25   26 1   
    51   25   63 1   
    52   25   64 1   
    53   26   27 1   
    54   27   28 1   
    55   27   31 1   
    56   27   65 1   
    57   28   29 1   
    58   29   30 1   
    59   29   66 1   
    60   29   67 1   
    61   30   31 1   
    62   30   39 1   
    63   30   40 1   
    64   31   68 1   
    65   32   38 1   
    66   32   69 1   
    67   32   70 1   
    68   33   34 ar  
    69   33   38 ar  
    70   33   75 1   
    71   34   35 ar  
    72   34   71 1   
    73   35   36 ar  
    74   35   72 1   
    75   36   37 ar  
    76   36   73 1   
    77   37   38 ar  
    78   37   74 1   
@<TRIPOS>SUBSTRUCTURE
     1 G10         1 TEMP              0 ****  ****    0 ROOT
