@<TRIPOS>MOLECULE
G10
   77    79     1     0     0
SMALL
bcc


@<TRIPOS>ATOM
      1 N1          3.0380    3.6430   -2.8620 nv        1 G10     -0.763200
      2 C2          3.3070    2.7600   -1.8910 ca        1 G10      0.334600
      3 C3          2.4860    1.5890   -1.6880 ca        1 G10     -0.231500
      4 C4          2.7600    0.7140   -0.6830 ca        1 G10      0.067000
      5 C5          3.8570    0.8870    0.2270 ca        1 G10     -0.729500
      6 C6          4.6770    2.0430   -0.0050 ca        1 G10      0.067000
      7 C7          4.4300    2.9370   -1.0000 ca        1 G10     -0.231500
      8 S8          4.1050   -0.0530    1.3900 s4        1 G10      1.695300
      9 O9          5.1030    0.2300    2.2740 o         1 G10     -0.461900
     10 O10         3.1970   -1.0320    1.6710 o         1 G10     -0.461900
     11 N11         5.6170   -1.7100    0.3210 n7        1 G10     -0.897200
     12 C12         4.9910   -2.3570   -0.8280 c3        1 G10      0.112800
     13 C13         5.9280   -3.0670   -1.8140 c3        1 G10     -0.083700
     14 C14         5.0940   -3.6840   -2.9180 c3        1 G10     -0.102600
     15 C15         6.9590   -2.1220   -2.3900 c3        1 G10     -0.102600
     16 C16         6.1940   -2.6180    1.3110 c3        1 G10      0.105800
     17 C17         5.1990   -3.6070    1.9410 c3        1 G10      0.109100
     18 O18         4.8720   -4.6940    1.1020 oh        1 G10     -0.598800
     19 C19         5.7740   -4.1410    3.2840 c3        1 G10      0.100500
     20 N20         4.8160   -5.1400    3.8850 ny        1 G10     -0.633800
     21 C21         3.6700   -4.5040    4.5930 c         1 G10      0.632100
     22 O22         3.5980   -3.3110    4.8510 o         1 G10     -0.432000
     23 O23         2.7320   -5.4370    4.8700 os        1 G10     -0.388900
     24 C24         1.7070   -5.0840    5.8400 c3        1 G10      0.135100
     25 C25         0.4590   -5.8830    5.4110 c3        1 G10      0.120400
     26 O26        -0.0890   -6.4820    6.5810 os        1 G10     -0.387600
     27 C27         0.7990   -6.3780    7.6840 c3        1 G10      0.333900
     28 O28         1.1770   -7.7080    7.9890 os        1 G10     -0.376600
     29 C29         2.5270   -7.9660    7.6260 c3        1 G10      0.095400
     30 C30         3.2280   -6.5830    7.4100 c3        1 G10      0.395600
     31 C31         2.0480   -5.5670    7.2530 c3        1 G10     -0.205700
     32 C32         7.1590   -4.7800    3.1040 c3        1 G10     -0.050100
     33 C33         7.6130   -6.8310    4.4650 ca        1 G10     -0.128500
     34 C34         8.1170   -7.4470    5.6090 ca        1 G10     -0.109500
     35 C35         8.6560   -6.6760    6.6410 ca        1 G10     -0.087000
     36 C36         8.6920   -5.2850    6.5250 ca        1 G10     -0.109500
     37 C37         8.1920   -4.6660    5.3810 ca        1 G10     -0.128500
     38 C38         7.6460   -5.4350    4.3460 ca        1 G10     -0.178300
     39 F39         4.1150   -6.6020    6.3510 f         1 G10     -0.241800
     40 F40         4.0650   -6.2300    8.4430 f         1 G10     -0.241800
     41 H1          3.6050    4.4530   -2.9900 hn        1 G10      0.474300
     42 H2          2.2560    3.5180   -3.4670 hn        1 G10      0.474300
     43 H3          1.6230    1.4130   -2.3540 ha        1 G10      0.179500
     44 H4          2.1070   -0.1710   -0.5410 ha        1 G10      0.168500
     45 H5          5.5380    2.2100    0.6720 ha        1 G10      0.168500
     46 H6          5.0880    3.8150   -1.1290 ha        1 G10      0.179500
     47 H7          4.2310   -3.1010   -0.4500 h1        1 G10      0.076200
     48 H8          4.4380   -1.5460   -1.3870 h1        1 G10      0.076200
     49 H9          6.4630   -3.8960   -1.2680 hc        1 G10      0.040700
     50 H10         5.7500   -4.2630   -3.6140 hc        1 G10      0.050700
     51 H11         4.3290   -4.3780   -2.4950 hc        1 G10      0.050700
     52 H12         4.5720   -2.8930   -3.5080 hc        1 G10      0.050700
     53 H13         7.5120   -2.6240   -3.2230 hc        1 G10      0.050700
     54 H14         7.7070   -1.8170   -1.6200 hc        1 G10      0.050700
     55 H15         6.4710   -1.2050   -2.8020 hc        1 G10      0.050700
     56 H16         6.6180   -1.9680    2.1340 h1        1 G10      0.081700
     57 H17         7.0430   -3.2130    0.8610 h1        1 G10      0.081700
     58 H18         4.2040   -3.1020    2.1450 h1        1 G10      0.119700
     59 H19         5.6570   -4.9560    0.6000 ho        1 G10      0.432000
     60 H20         5.8540   -3.2790    4.0140 hx        1 G10      0.132700
     61 H21         5.3230   -5.7340    4.5750 hn        1 G10      0.496300
     62 H22         1.5380   -3.9750    5.8150 h1        1 G10      0.112700
     63 H23         0.7200   -6.6910    4.6800 h1        1 G10      0.087200
     64 H24        -0.3360   -5.2140    4.9910 h1        1 G10      0.087200
     65 H25         0.2160   -5.9850    8.5590 h2        1 G10      0.142700
     66 H26         2.9850   -8.5320    8.4780 h1        1 G10      0.097700
     67 H27         2.5510   -8.5610    6.6790 h1        1 G10      0.097700
     68 H28         2.2210   -4.6970    7.9360 hc        1 G10      0.127700
     69 H29         7.1290   -5.5180    2.2570 hc        1 G10      0.082700
     70 H30         7.8670   -3.9550    2.8140 hc        1 G10      0.082700
     71 H33         9.0630   -7.1650    7.5410 ha        1 G10      0.165000
     72 H34         9.1280   -4.6760    7.3330 ha        1 G10      0.161500
     73 H35         8.2430   -3.5700    5.2860 ha        1 G10      0.134500
     74 H31         7.2260   -7.4500    3.6410 ha        1 G10      0.134500
     75 H111        6.3740   -1.1260   -0.0130 hn        1 G10      0.396800
     76 H202        4.4490   -5.7500    3.1370 hn        1 G10      0.496300
     77 H32         8.1020   -8.5460    5.6930 ha        1 G10      0.161500
@<TRIPOS>BOND
     1    1    2 1   
     2    1   41 1   
     3    1   42 1   
     4    2    3 ar  
     5    2    7 ar  
     6    3    4 ar  
     7    3   43 1   
     8    4    5 ar  
     9    4   44 1   
    10    5    6 ar  
    11    5    8 1   
    12    6    7 ar  
    13    6   45 1   
    14    7   46 1   
    15    8    9 1   
    16    8   10 1   
    17   11   12 1   
    18   11   16 1   
    19   11   75 1   
    20   12   13 1   
    21   12   47 1   
    22   12   48 1   
    23   13   14 1   
    24   13   15 1   
    25   13   49 1   
    26   14   50 1   
    27   14   51 1   
    28   14   52 1   
    29   15   53 1   
    30   15   54 1   
    31   15   55 1   
    32   16   17 1   
    33   16   56 1   
    34   16   57 1   
    35   17   18 1   
    36   17   19 1   
    37   17   58 1   
    38   18   59 1   
    39   19   20 1   
    40   19   32 1   
    41   19   60 1   
    42   20   21 1   
    43   20   61 1   
    44   20   76 1   
    45   21   22 2   
    46   21   23 1   
    47   23   24 1   
    48   24   25 1   
    49   24   31 1   
    50   24   62 1   
    51   25   26 1   
    52   25   63 1   
    53   25   64 1   
    54   26   27 1   
    55   27   28 1   
    56   27   31 1   
    57   27   65 1   
    58   28   29 1   
    59   29   30 1   
    60   29   66 1   
    61   29   67 1   
    62   30   31 1   
    63   30   39 1   
    64   30   40 1   
    65   31   68 1   
    66   32   38 1   
    67   32   69 1   
    68   32   70 1   
    69   33   34 ar  
    70   33   38 ar  
    71   33   74 1   
    72   34   35 ar  
    73   34   77 1   
    74   35   36 ar  
    75   35   71 1   
    76   36   37 ar  
    77   36   72 1   
    78   37   38 ar  
    79   37   73 1   
@<TRIPOS>SUBSTRUCTURE
     1 G10         1 TEMP              0 ****  ****    0 ROOT
