@<TRIPOS>MOLECULE
G10
   77    79     1     0     0
SMALL
bcc


@<TRIPOS>ATOM
      1 N1          2.7110    3.4020   -3.1660 nh        1 G10     -0.763200
      2 C2          3.0150    2.5100   -2.2150 ca        1 G10      0.335600
      3 C3          2.0750    1.4910   -1.8080 ca        1 G10     -0.232000
      4 C4          2.3920    0.6040   -0.8270 ca        1 G10      0.068500
      5 C5          3.6540    0.6160   -0.1400 ca        1 G10     -0.726500
      6 C6          4.5850    1.6200   -0.5750 ca        1 G10      0.068500
      7 C7          4.2980    2.5220   -1.5510 ca        1 G10     -0.232000
      8 S8          3.9600   -0.3260    1.0060 s4        1 G10      1.693300
      9 O9          5.1110   -0.1800    1.7190 o         1 G10     -0.460900
     10 O10         2.9730   -1.1480    1.4710 o         1 G10     -0.460900
     11 N11         4.8790   -2.4020   -0.1090 n3        1 G10     -0.896200
     12 C12         5.6330   -2.2370   -1.3550 c3        1 G10      0.130800
     13 C13         7.1290   -1.9170   -1.2360 c3        1 G10     -0.070700
     14 C14         7.7440   -2.0130   -2.6200 c3        1 G10     -0.106100
     15 C15         7.3820   -0.5480   -0.6470 c3        1 G10     -0.106100
     16 C16         5.5610   -3.2230    0.8900 c3        1 G10      0.102800
     17 C17         4.5830   -3.9950    1.7940 c3        1 G10      0.095100
     18 O18         3.8640   -4.9820    1.0850 oh        1 G10     -0.595800
     19 C19         5.3330   -4.6240    2.9970 c3        1 G10      0.103500
     20 N20         4.3630   -5.4170    3.8390 n4        1 G10     -0.634800
     21 C21         3.5230   -4.5660    4.7280 c         1 G10      0.632100
     22 O22         3.6940   -3.3660    4.8910 o         1 G10     -0.433000
     23 O23         2.5450   -5.3150    5.2840 os        1 G10     -0.388900
     24 C24         1.8360   -4.7480    6.4200 c3        1 G10      0.135100
     25 C25         0.4160   -5.3480    6.3450 c3        1 G10      0.120400
     26 O26         0.0680   -5.7910    7.6530 os        1 G10     -0.387600
     27 C27         1.1910   -5.7790    8.5230 c3        1 G10      0.333900
     28 O28         1.4250   -7.1350    8.8520 os        1 G10     -0.376600
     29 C29         2.6000   -7.6320    8.2270 c3        1 G10      0.095400
     30 C30         3.4330   -6.3980    7.7430 c3        1 G10      0.395600
     31 C31         2.4150   -5.2090    7.7610 c3        1 G10     -0.205700
     32 C32         6.5030   -5.5160    2.5570 c3        1 G10     -0.050100
     33 C33         6.8440   -7.6180    3.8730 ca        1 G10     -0.128500
     34 C34         7.4570   -8.3220    4.9070 ca        1 G10     -0.109500
     35 C35         8.3400   -7.6700    5.7710 ca        1 G10     -0.086000
     36 C36         8.6110   -6.3120    5.5960 ca        1 G10     -0.109500
     37 C37         8.0010   -5.6060    4.5600 ca        1 G10     -0.128500
     38 C38         7.1120   -6.2540    3.6950 ca        1 G10     -0.179300
     39 F39         4.0400   -6.6170    6.5210 f         1 G10     -0.241800
     40 F40         4.5280   -6.1380    8.5330 f         1 G10     -0.241800
     41 H1          1.8210    3.3910   -3.6150 hn        1 G10      0.473800
     42 H2          3.3620    4.1070   -3.4360 hn        1 G10      0.473800
     43 H3          1.0870    1.4420   -2.2980 ha        1 G10      0.179500
     44 H4          1.6480   -0.1600   -0.5240 ha        1 G10      0.170000
     45 H5          5.5750    1.6530   -0.0750 ha        1 G10      0.170000
     46 H6          5.0470    3.2800   -1.8390 ha        1 G10      0.179500
     47 H7          5.1300   -1.3980   -1.9160 h1        1 G10      0.062700
     48 H8          5.5390   -3.1710   -1.9860 h1        1 G10      0.062700
     49 H9          7.6270   -2.6850   -0.5800 hc        1 G10      0.053700
     50 H10         7.2650   -1.2840   -3.3180 hc        1 G10      0.050200
     51 H11         7.6220   -3.0410   -3.0390 hc        1 G10      0.050200
     52 H12         8.8360   -1.7820   -2.5660 hc        1 G10      0.050200
     53 H13         7.0060   -0.4840    0.4030 hc        1 G10      0.050200
     54 H14         6.8850    0.2420   -1.2610 hc        1 G10      0.050200
     55 H15         8.4800   -0.3380   -0.6360 hc        1 G10      0.050200
     56 H16         6.1900   -2.5310    1.5220 h1        1 G10      0.084700
     57 H17         6.2490   -3.9740    0.3990 h1        1 G10      0.084700
     58 H18         3.7770   -3.3000    2.1900 h1        1 G10      0.121700
     59 H19         4.4740   -5.4630    0.5080 ho        1 G10      0.428000
     60 H20         5.7310   -3.7870    3.6500 hx        1 G10      0.134700
     61 H21         3.7420   -5.9610    3.2180 hn        1 G10      0.496300
     62 H22         1.8340   -3.6290    6.3360 h1        1 G10      0.112700
     63 H23        -0.3440   -4.5790    6.0540 h1        1 G10      0.087700
     64 H24         0.3780   -6.2240    5.6460 h1        1 G10      0.087700
     65 H25         0.8900   -5.2510    9.4670 h2        1 G10      0.142700
     66 H26         2.3160   -8.2700    7.3520 h1        1 G10      0.097700
     67 H27         3.1510   -8.2230    9.0030 h1        1 G10      0.097700
     68 H28         2.8700   -4.3470    8.3120 hc        1 G10      0.127700
     69 H29         6.1590   -6.2320    1.7640 hc        1 G10      0.083200
     70 H30         7.2750   -4.8390    2.0970 hc        1 G10      0.083200
     71 H33         8.8310   -8.2310    6.5840 ha        1 G10      0.165000
     72 H34         9.3160   -5.7990    6.2700 ha        1 G10      0.161500
     73 H35         8.2360   -4.5400    4.4130 ha        1 G10      0.135000
     74 H31         6.1810   -8.1490    3.1730 ha        1 G10      0.135000
     75 H111        4.0010   -2.8510   -0.3430 hn        1 G10      0.388800
     76 H202        4.8910   -6.0820    4.4420 hn        1 G10      0.496300
     77 H32         7.2550   -9.3980    5.0350 ha        1 G10      0.161500
@<TRIPOS>BOND
     1    1    2 1   
     2    1   41 1   
     3    1   42 1   
     4    2    3 ar  
     5    2    7 ar  
     6    3    4 ar  
     7    3   43 1   
     8    4    5 ar  
     9    4   44 1   
    10    5    6 ar  
    11    5    8 1   
    12    6    7 ar  
    13    6   45 1   
    14    7   46 1   
    15    8    9 1   
    16    8   10 1   
    17   11   12 1   
    18   11   16 1   
    19   11   75 1   
    20   12   13 1   
    21   12   47 1   
    22   12   48 1   
    23   13   14 1   
    24   13   15 1   
    25   13   49 1   
    26   14   50 1   
    27   14   51 1   
    28   14   52 1   
    29   15   53 1   
    30   15   54 1   
    31   15   55 1   
    32   16   17 1   
    33   16   56 1   
    34   16   57 1   
    35   17   18 1   
    36   17   19 1   
    37   17   58 1   
    38   18   59 1   
    39   19   20 1   
    40   19   32 1   
    41   19   60 1   
    42   20   21 1   
    43   20   61 1   
    44   20   76 1   
    45   21   22 2   
    46   21   23 1   
    47   23   24 1   
    48   24   25 1   
    49   24   31 1   
    50   24   62 1   
    51   25   26 1   
    52   25   63 1   
    53   25   64 1   
    54   26   27 1   
    55   27   28 1   
    56   27   31 1   
    57   27   65 1   
    58   28   29 1   
    59   29   30 1   
    60   29   66 1   
    61   29   67 1   
    62   30   31 1   
    63   30   39 1   
    64   30   40 1   
    65   31   68 1   
    66   32   38 1   
    67   32   69 1   
    68   32   70 1   
    69   33   34 ar  
    70   33   38 ar  
    71   33   74 1   
    72   34   35 ar  
    73   34   77 1   
    74   35   36 ar  
    75   35   71 1   
    76   36   37 ar  
    77   36   72 1   
    78   37   38 ar  
    79   37   73 1   
@<TRIPOS>SUBSTRUCTURE
     1 G10         1 TEMP              0 ****  ****    0 ROOT
