@<TRIPOS>MOLECULE
G11
   51    54     1     0     0
SMALL
bcc


@<TRIPOS>ATOM
      1 C1         -0.0820   -0.2810    0.2090 cp        1 G11     -0.185500
      2 C2         -0.7680   -0.2710   -1.1000 cp        1 G11      0.523800
      3 C3          1.3100   -0.4270    0.2160 ca        1 G11     -0.016000
      4 C4         -0.7870   -0.1700    1.4210 ca        1 G11      0.060700
      5 C5         -0.3300    0.6290   -2.0990 ca        1 G11     -0.236300
      6 N6         -1.7870   -1.1490   -1.3160 nb        1 G11     -0.639000
      7 C7          2.0170   -0.4700    1.4290 ca        1 G11     -0.213600
      8 C8         -0.0650   -0.2200    2.6280 ca        1 G11     -0.130000
      9 C9         -2.2560   -0.0020    1.4720 c3        1 G11     -0.085800
     10 C10        -2.3800   -1.1510   -2.5150 ca        1 G11      0.454200
     11 C11        -0.9580    0.6210   -3.3430 ca        1 G11      0.006000
     12 C12         3.4660   -0.6590    1.3320 c         1 G11      0.573700
     13 C13         1.3130   -0.3750    2.6410 ca        1 G11     -0.066000
     14 C14        -2.0120   -0.2850   -3.5720 ca        1 G11     -0.323900
     15 N15         4.2740   -0.3960    2.5920 ny        1 G11     -0.636800
     16 O16         4.0980   -1.0110    0.3450 o         1 G11     -0.415100
     17 C17        -2.6290   -0.2790   -4.8980 c         1 G11      0.569700
     18 C18         5.6620    0.0210    2.3220 cx        1 G11     -0.011500
     19 N19        -3.9280   -1.0380   -5.0510 ny        1 G11     -0.674800
     20 O20        -2.2060    0.2830   -5.8990 o         1 G11     -0.404100
     21 C21         6.0820    1.4700    2.4580 cx        1 G11     -0.097900
     22 C22         6.5590    0.4660    3.4600 cx        1 G11     -0.097900
     23 C23        -4.6640   -0.7060   -6.3190 c3        1 G11      0.149800
     24 C24        -5.9100   -1.5260   -6.4440 cx        1 G11     -0.225700
     25 C25        -5.8190   -2.9730   -6.8710 cx        1 G11     -0.095900
     26 C26        -6.3330   -1.9520   -7.8330 cx        1 G11     -0.095900
     27 H3          1.8610   -0.5210   -0.7380 ha        1 G11      0.171000
     28 H5          0.4930    1.3310   -1.8940 ha        1 G11      0.179000
     29 H8         -0.6130   -0.1430    3.5840 ha        1 G11      0.178000
     30 H9         -2.6110    0.6870    0.6670 hc        1 G11      0.077367
     31 H9A        -2.5820    0.4130    2.4590 hc        1 G11      0.077367
     32 H9B        -2.7540   -0.9980    1.3320 hc        1 G11      0.077367
     33 H10        -3.1820   -1.9080   -2.6150 h4        1 G11      0.029100
     34 H11        -0.6350    1.3130   -4.1430 ha        1 G11      0.188000
     35 H13         1.8180   -0.4410    3.6180 ha        1 G11      0.138000
     36 HN15        4.3030   -1.2660    3.1400 hn        1 G11      0.459300
     37 H18         6.0960   -0.5940    1.4960 hx        1 G11      0.165700
     38 HN19       -4.5330   -0.8310   -4.2480 hn        1 G11      0.459800
     39 H21         6.7840    1.8680    1.6980 hc        1 G11      0.113950
     40 H21A        5.3500    2.2370    2.7740 hc        1 G11      0.113950
     41 H22         6.1700    0.5110    4.4950 hc        1 G11      0.113950
     42 H22A        7.6130    0.1200    3.4380 hc        1 G11      0.113950
     43 H23        -4.9100    0.3950   -6.2930 hx        1 G11      0.118700
     44 H23A       -3.9590   -0.8920   -7.1810 hx        1 G11      0.118700
     45 H24        -6.7070   -1.2330   -5.7320 hc        1 G11      0.108700
     46 H25        -4.8250   -3.4220   -7.0510 hc        1 G11      0.097950
     47 H25A       -6.5250   -3.6990   -6.4240 hc        1 G11      0.097950
     48 H26        -7.4130   -1.9260   -8.0750 hc        1 G11      0.097950
     49 H26A       -5.7120   -1.6610   -8.7000 hc        1 G11      0.097950
     50 H152        3.8010    0.3260    3.1480 hn        1 G11      0.459300
     51 H192       -3.7260   -2.0450   -5.0450 hn        1 G11      0.459800
@<TRIPOS>BOND
     1    1    2 1   
     2    1    3 ar  
     3    1    4 ar  
     4    2    5 ar  
     5    2    6 ar  
     6    3    7 ar  
     7    3   27 1   
     8    4    8 ar  
     9    4    9 1   
    10    5   11 ar  
    11    5   28 1   
    12    6   10 ar  
    13    7   12 1   
    14    7   13 ar  
    15    8   13 ar  
    16    8   29 1   
    17    9   30 1   
    18    9   31 1   
    19    9   32 1   
    20   10   14 ar  
    21   10   33 1   
    22   11   14 ar  
    23   11   34 1   
    24   12   15 1   
    25   12   16 2   
    26   13   35 1   
    27   14   17 1   
    28   15   18 1   
    29   15   36 1   
    30   15   50 1   
    31   17   19 1   
    32   17   20 2   
    33   18   21 1   
    34   18   22 1   
    35   18   37 1   
    36   19   23 1   
    37   19   38 1   
    38   19   51 1   
    39   21   22 1   
    40   21   39 1   
    41   21   40 1   
    42   22   41 1   
    43   22   42 1   
    44   23   24 1   
    45   23   43 1   
    46   23   44 1   
    47   24   25 1   
    48   24   26 1   
    49   24   45 1   
    50   25   26 1   
    51   25   46 1   
    52   25   47 1   
    53   26   48 1   
    54   26   49 1   
@<TRIPOS>SUBSTRUCTURE
     1 G11         1 TEMP              0 ****  ****    0 ROOT
