@<TRIPOS>MOLECULE
G11
   51    54     1     0     0
SMALL
bcc


@<TRIPOS>ATOM
      1 C1         -0.0830   -0.2830    0.2090 cp        1 G11     -0.185500
      2 C2         -0.7680   -0.2740   -1.1000 cp        1 G11      0.523800
      3 C3          1.3080   -0.4270    0.2180 ca        1 G11     -0.016000
      4 C4         -0.7900   -0.1700    1.4210 ca        1 G11      0.060700
      5 C5         -0.3290    0.6260   -2.1000 ca        1 G11     -0.236300
      6 N6         -1.7860   -1.1530   -1.3170 nb        1 G11     -0.639000
      7 C7          2.0140   -0.4700    1.4320 ca        1 G11     -0.213600
      8 C8         -0.0690   -0.2190    2.6290 ca        1 G11     -0.130000
      9 C9         -2.2590   -0.0040    1.4700 c3        1 G11     -0.085800
     10 C10        -2.3780   -1.1550   -2.5170 ca        1 G11      0.454200
     11 C11        -0.9550    0.6170   -3.3440 ca        1 G11      0.006000
     12 C12         3.4630   -0.6580    1.3370 c         1 G11      0.573700
     13 C13         1.3090   -0.3740    2.6430 ca        1 G11     -0.066000
     14 C14        -2.0090   -0.2890   -3.5740 ca        1 G11     -0.323900
     15 N15         4.2700   -0.3930    2.5980 n4        1 G11     -0.636800
     16 O16         4.0970   -1.0110    0.3510 o         1 G11     -0.415100
     17 C17        -2.6240   -0.2860   -4.9000 c         1 G11      0.569700
     18 C18         5.6580    0.0240    2.3300 cx        1 G11     -0.011500
     19 N19        -3.9240   -1.0410   -5.0530 n4        1 G11     -0.674800
     20 O20        -2.1990    0.2730   -5.9030 o         1 G11     -0.404100
     21 C21         6.0780    1.4730    2.4650 cx        1 G11     -0.097900
     22 C22         6.5540    0.4700    3.4680 cx        1 G11     -0.097900
     23 C23        -4.6620   -0.7050   -6.3190 c3        1 G11      0.149800
     24 C24        -5.9100   -1.5220   -6.4450 cx        1 G11     -0.225700
     25 C25        -5.8220   -2.9680   -6.8750 cx        1 G11     -0.095900
     26 C26        -6.3360   -1.9430   -7.8340 cx        1 G11     -0.095900
     27 H3          1.8610   -0.5220   -0.7350 ha        1 G11      0.171000
     28 H5          0.4940    1.3280   -1.8940 ha        1 G11      0.179000
     29 H8         -0.6190   -0.1420    3.5840 ha        1 G11      0.178000
     30 H9         -2.5860    0.4120    2.4560 hc        1 G11      0.077367
     31 H9A        -2.6140    0.6850    0.6640 hc        1 G11      0.077367
     32 H9B        -2.7560   -0.9990    1.3300 hc        1 G11      0.077367
     33 H10        -3.1790   -1.9130   -2.6170 h4        1 G11      0.029100
     34 H11        -0.6310    1.3080   -4.1440 ha        1 G11      0.188000
     35 H13         1.8130   -0.4390    3.6200 ha        1 G11      0.138000
     36 HN15        4.2980   -1.2640    3.1460 hn        1 G11      0.459300
     37 H18         6.0930   -0.5910    1.5050 hx        1 G11      0.165700
     38 HN19       -3.7250   -2.0490   -5.0510 hn        1 G11      0.459800
     39 H21         5.3450    2.2400    2.7790 hc        1 G11      0.113950
     40 H21A        6.7800    1.8710    1.7050 hc        1 G11      0.113950
     41 H22         6.1630    0.5160    4.5020 hc        1 G11      0.113950
     42 H22A        7.6070    0.1250    3.4480 hc        1 G11      0.113950
     43 H23        -4.9060    0.3970   -6.2890 hx        1 G11      0.118700
     44 H23A       -3.9580   -0.8890   -7.1830 hx        1 G11      0.118700
     45 H24        -6.7060   -1.2290   -5.7300 hc        1 G11      0.108700
     46 H25        -4.8300   -3.4180   -7.0580 hc        1 G11      0.097950
     47 H25A       -6.5290   -3.6940   -6.4300 hc        1 G11      0.097950
     48 H26        -7.4170   -1.9140   -8.0740 hc        1 G11      0.097950
     49 H26A       -5.7150   -1.6510   -8.7010 hc        1 G11      0.097950
     50 H152        3.7960    0.3280    3.1530 hn        1 G11      0.459300
     51 H192       -4.5280   -0.8350   -4.2490 hn        1 G11      0.459800
@<TRIPOS>BOND
     1    1    2 1   
     2    1    3 ar  
     3    1    4 ar  
     4    2    5 ar  
     5    2    6 ar  
     6    3    7 ar  
     7    3   27 1   
     8    4    8 ar  
     9    4    9 1   
    10    5   11 ar  
    11    5   28 1   
    12    6   10 ar  
    13    7   12 1   
    14    7   13 ar  
    15    8   13 ar  
    16    8   29 1   
    17    9   30 1   
    18    9   31 1   
    19    9   32 1   
    20   10   14 ar  
    21   10   33 1   
    22   11   14 ar  
    23   11   34 1   
    24   12   15 1   
    25   12   16 2   
    26   13   35 1   
    27   14   17 1   
    28   15   18 1   
    29   15   36 1   
    30   15   50 1   
    31   17   19 1   
    32   17   20 2   
    33   18   21 1   
    34   18   22 1   
    35   18   37 1   
    36   19   23 1   
    37   19   38 1   
    38   19   51 1   
    39   21   22 1   
    40   21   39 1   
    41   21   40 1   
    42   22   41 1   
    43   22   42 1   
    44   23   24 1   
    45   23   43 1   
    46   23   44 1   
    47   24   25 1   
    48   24   26 1   
    49   24   45 1   
    50   25   26 1   
    51   25   46 1   
    52   25   47 1   
    53   26   48 1   
    54   26   49 1   
@<TRIPOS>SUBSTRUCTURE
     1 G11         1 TEMP              0 ****  ****    0 ROOT
