@<TRIPOS>MOLECULE
G11
   51    54     1     0     0
SMALL
bcc


@<TRIPOS>ATOM
      1 C1         -0.0830   -0.2980    0.2130 cp        1 G11     -0.185500
      2 C2         -0.7760   -0.2750   -1.0920 cp        1 G11      0.523800
      3 C3          1.3100   -0.4210    0.2120 ca        1 G11     -0.016000
      4 C4         -0.7850   -0.2200    1.4310 ca        1 G11      0.060700
      5 C5         -0.3570    0.6510   -2.0760 ca        1 G11     -0.236300
      6 N6         -1.7800   -1.1660   -1.3200 nb        1 G11     -0.639000
      7 C7          2.0230   -0.4750    1.4210 ca        1 G11     -0.213600
      8 C8         -0.0570   -0.2810    2.6340 ca        1 G11     -0.130000
      9 C9         -2.2560   -0.0780    1.4910 c3        1 G11     -0.085800
     10 C10        -2.3790   -1.1550   -2.5170 ca        1 G11      0.454200
     11 C11        -0.9900    0.6560   -3.3170 ca        1 G11      0.006000
     12 C12         3.4750   -0.6390    1.3150 c         1 G11      0.573700
     13 C13         1.3240   -0.4140    2.6380 ca        1 G11     -0.066000
     14 C14        -2.0300   -0.2630   -3.5590 ca        1 G11     -0.323900
     15 N15         4.2840   -0.3850    2.5760 n4        1 G11     -0.635800
     16 O16         4.1080   -0.9620    0.3190 o         1 G11     -0.415100
     17 C17        -2.6530   -0.2430   -4.8820 c         1 G11      0.569700
     18 C18         5.6650    0.0560    2.3090 cx        1 G11     -0.011500
     19 N19        -3.9380   -1.0220   -5.0440 n4        1 G11     -0.674800
     20 O20        -2.2450    0.3460   -5.8740 o         1 G11     -0.404100
     21 C21         6.0650    1.5080    2.4680 cx        1 G11     -0.097900
     22 C22         6.5600    0.4940    3.4510 cx        1 G11     -0.097900
     23 C23        -4.6860   -0.6810   -6.3030 c3        1 G11      0.149800
     24 C24        -5.9160   -1.5220   -6.4400 cx        1 G11     -0.225700
     25 C25        -5.8010   -2.9580   -6.8930 cx        1 G11     -0.095900
     26 C26        -6.3370   -1.9300   -7.8350 cx        1 G11     -0.095900
     27 H3          1.8590   -0.4890   -0.7450 ha        1 G11      0.171000
     28 H5          0.4550    1.3620   -1.8610 ha        1 G11      0.179000
     29 H8         -0.6020   -0.2310    3.5930 ha        1 G11      0.178000
     30 H9         -2.7380   -1.0790    1.3340 hc        1 G11      0.077367
     31 H9A        -2.6260    0.6200    0.7000 hc        1 G11      0.077367
     32 H9B        -2.5840    0.3130    2.4860 hc        1 G11      0.077367
     33 H10        -3.1680   -1.9240   -2.6280 h4        1 G11      0.029100
     34 H11        -0.6820    1.3680   -4.1050 ha        1 G11      0.188000
     35 H13         1.8340   -0.4890    3.6110 ha        1 G11      0.138000
     36 HN15        4.3270   -1.2650    3.1090 hn        1 G11      0.459300
     37 H18         6.1050   -0.5380    1.4710 hx        1 G11      0.165700
     38 HN19       -4.5440   -0.8410   -4.2360 hn        1 G11      0.459800
     39 H21         6.7580    1.9290    1.7120 hc        1 G11      0.113950
     40 H21A        5.3230    2.2590    2.7990 hc        1 G11      0.113950
     41 H22         7.6180    0.1640    3.4200 hc        1 G11      0.113950
     42 H22A        6.1740    0.5160    4.4880 hc        1 G11      0.113950
     43 H23        -3.9800   -0.8380   -7.1710 hx        1 G11      0.118700
     44 H23A       -4.9520    0.4140   -6.2560 hx        1 G11      0.118700
     45 H24        -6.7170   -1.2560   -5.7190 hc        1 G11      0.108700
     46 H25        -6.4910   -3.7060   -6.4580 hc        1 G11      0.097950
     47 H25A       -4.7990   -3.3860   -7.0850 hc        1 G11      0.097950
     48 H26        -7.4180   -1.9190   -8.0720 hc        1 G11      0.097950
     49 H26A       -5.7240   -1.6110   -8.6980 hc        1 G11      0.097950
     50 H152        3.8030    0.3200    3.1460 hn        1 G11      0.459300
     51 H192       -3.7190   -2.0260   -5.0580 hn        1 G11      0.459800
@<TRIPOS>BOND
     1    1    2 1   
     2    1    3 ar  
     3    1    4 ar  
     4    2    5 ar  
     5    2    6 ar  
     6    3    7 ar  
     7    3   27 1   
     8    4    8 ar  
     9    4    9 1   
    10    5   11 ar  
    11    5   28 1   
    12    6   10 ar  
    13    7   12 1   
    14    7   13 ar  
    15    8   13 ar  
    16    8   29 1   
    17    9   30 1   
    18    9   31 1   
    19    9   32 1   
    20   10   14 ar  
    21   10   33 1   
    22   11   14 ar  
    23   11   34 1   
    24   12   15 1   
    25   12   16 2   
    26   13   35 1   
    27   14   17 1   
    28   15   18 1   
    29   15   36 1   
    30   15   50 1   
    31   17   19 1   
    32   17   20 2   
    33   18   21 1   
    34   18   22 1   
    35   18   37 1   
    36   19   23 1   
    37   19   38 1   
    38   19   51 1   
    39   21   22 1   
    40   21   39 1   
    41   21   40 1   
    42   22   41 1   
    43   22   42 1   
    44   23   24 1   
    45   23   43 1   
    46   23   44 1   
    47   24   25 1   
    48   24   26 1   
    49   24   45 1   
    50   25   26 1   
    51   25   46 1   
    52   25   47 1   
    53   26   48 1   
    54   26   49 1   
@<TRIPOS>SUBSTRUCTURE
     1 G11         1 TEMP              0 ****  ****    0 ROOT
