@<TRIPOS>MOLECULE
G11
   49    52     1     0     0
SMALL
bcc


@<TRIPOS>ATOM
      1 C1         -1.1890    1.0410    0.6500 cp        1 G11     -0.162500
      2 C2          0.2230    0.6110    0.6250 cp        1 G11      0.476800
      3 C3         -2.1720    0.0560    0.4850 ca        1 G11     -0.059000
      4 C4         -1.5630    2.3810    0.8460 ca        1 G11     -0.012300
      5 C5          0.6130   -0.4540    1.4710 ca        1 G11     -0.241300
      6 N6          1.0940    1.2220   -0.2200 nb        1 G11     -0.663000
      7 C7         -3.5260    0.3990    0.5010 ca        1 G11     -0.152600
      8 C8         -2.9270    2.7060    0.8750 ca        1 G11     -0.148000
      9 C9         -0.5600    3.4550    1.0310 c3        1 G11     -0.060800
     10 C10         2.3650    0.7900   -0.2270 ca        1 G11      0.419200
     11 C11         1.9370   -0.8870    1.4500 ca        1 G11     -0.040000
     12 C12        -4.5280   -0.6930    0.3360 c         1 G11      0.679700
     13 C13        -3.9030    1.7300    0.7020 ca        1 G11     -0.091000
     14 C14         2.8440   -0.2520    0.5930 ca        1 G11     -0.257900
     15 N15        -5.6460   -0.4060   -0.4260 n         1 G11     -0.540900
     16 O16        -4.3630   -1.8140    0.8580 o         1 G11     -0.600100
     17 C17         4.2560   -0.7220    0.5580 c         1 G11      0.672700
     18 C18        -6.6500   -1.3710   -0.6960 cx        1 G11      0.053700
     19 N19         5.2420    0.2340    0.3970 n         1 G11     -0.553900
     20 O20         4.5370   -1.9260    0.7350 o         1 G11     -0.600100
     21 C21        -8.0930   -0.9640   -0.9230 cx        1 G11     -0.153900
     22 C22        -7.2840   -1.5000   -2.0680 cx        1 G11     -0.153900
     23 C23         6.6230   -0.1180    0.1960 c3        1 G11      0.110000
     24 C24         7.1170    0.0660   -1.2180 cx        1 G11     -0.165700
     25 C25         6.9290   -1.0400   -2.2230 cx        1 G11     -0.123900
     26 C26         8.2930   -0.7590   -1.6700 cx        1 G11     -0.123900
     27 H3         -1.8840   -1.0000    0.3480 ha        1 G11      0.159000
     28 H5         -0.1270   -0.9310    2.1310 ha        1 G11      0.160000
     29 H8         -3.2280    3.7520    1.0400 ha        1 G11      0.139000
     30 H9         -0.1120    3.7320    0.0430 hc        1 G11      0.054033
     31 H9A        -1.0280    4.3700    1.4730 hc        1 G11      0.054033
     32 H9B         0.2630    3.1190    1.7080 hc        1 G11      0.054033
     33 H10         3.0240    1.3050   -0.9510 h4        1 G11      0.022100
     34 H11         2.2750   -1.7220    2.0860 ha        1 G11      0.166000
     35 H13        -4.9660    2.0130    0.7440 ha        1 G11      0.138000
     36 HN15       -5.7070    0.4690   -0.8890 hn        1 G11      0.311500
     37 H18        -6.4610   -2.3110   -0.1250 h1        1 G11      0.122700
     38 HN19        4.9740    1.1520    0.1330 hn        1 G11      0.304500
     39 H21        -8.8840   -1.5920   -0.4760 hc        1 G11      0.073950
     40 H21A       -8.3710    0.1040   -0.9250 hc        1 G11      0.073950
     41 H22        -6.9890   -0.8100   -2.8780 hc        1 G11      0.073950
     42 H22A       -7.4890   -2.5150   -2.4500 hc        1 G11      0.073950
     43 H23         7.2430    0.5380    0.8750 h1        1 G11      0.067200
     44 H23A        6.7700   -1.1920    0.5140 h1        1 G11      0.067200
     45 H24         7.0470    1.1120   -1.5740 hc        1 G11      0.075700
     46 H25         6.4020   -1.9590   -1.9090 hc        1 G11      0.075200
     47 H25A        6.7080   -0.7740   -3.2720 hc        1 G11      0.075200
     48 H26         9.0530   -0.2870   -2.3180 hc        1 G11      0.075200
     49 H26A        8.7440   -1.4790   -0.9640 hc        1 G11      0.075200
@<TRIPOS>BOND
     1    1    2 1   
     2    1    3 ar  
     3    1    4 ar  
     4    2    5 ar  
     5    2    6 ar  
     6    3    7 ar  
     7    3   27 1   
     8    4    8 ar  
     9    4    9 1   
    10    5   11 ar  
    11    5   28 1   
    12    6   10 ar  
    13    7   12 1   
    14    7   13 ar  
    15    8   13 ar  
    16    8   29 1   
    17    9   30 1   
    18    9   31 1   
    19    9   32 1   
    20   10   14 ar  
    21   10   33 1   
    22   11   14 ar  
    23   11   34 1   
    24   12   15 1   
    25   12   16 2   
    26   13   35 1   
    27   14   17 1   
    28   15   18 1   
    29   15   36 1   
    30   17   19 1   
    31   17   20 2   
    32   18   21 1   
    33   18   22 1   
    34   18   37 1   
    35   19   23 1   
    36   19   38 1   
    37   21   22 1   
    38   21   39 1   
    39   21   40 1   
    40   22   41 1   
    41   22   42 1   
    42   23   24 1   
    43   23   43 1   
    44   23   44 1   
    45   24   25 1   
    46   24   26 1   
    47   24   45 1   
    48   25   26 1   
    49   25   46 1   
    50   25   47 1   
    51   26   48 1   
    52   26   49 1   
@<TRIPOS>SUBSTRUCTURE
     1 G11         1 TEMP              0 ****  ****    0 ROOT
