@<TRIPOS>MOLECULE
G12
   21    22     1     0     0
SMALL
bcc


@<TRIPOS>ATOM
      1 BR2        -3.8890   -0.4060    0.0580 br        1 G12     -0.015700
      2 C9         -2.0540   -0.0550    0.0070 cc        1 G12     -0.192500
      3 C8         -1.1750   -1.2180   -0.0440 c         1 G12      0.735800
      4 O15        -1.4290   -2.4180   -0.0590 o         1 G12     -0.532500
      5 O7          0.2120   -1.0320   -0.0840 os        1 G12     -0.313200
      6 C10        -1.5320    1.2040    0.0150 cd        1 G12      0.093600
      7 C13        -2.3670    2.4280    0.0650 c3        1 G12     -0.088900
      8 C5         -0.0940    1.3750   -0.0280 ca        1 G12     -0.197800
      9 C6          0.7350    0.2350   -0.0760 ca        1 G12      0.229100
     10 C4          2.1460    0.3380   -0.1190 ca        1 G12     -0.153900
     11 BR1         3.2500   -1.1750   -0.1830 br        1 G12     -0.041100
     12 C1          0.5120    2.6470   -0.0220 ca        1 G12     -0.027000
     13 C2          1.8830    2.7800   -0.0630 ca        1 G12     -0.189000
     14 C3          2.7020    1.6270   -0.1110 ca        1 G12      0.209100
     15 O11         4.0430    1.8850   -0.1490 oh        1 G12     -0.479100
     16 H131       -3.4590    2.1940    0.0950 hc        1 G12      0.068367
     17 H132       -2.1120    3.0230    0.9790 hc        1 G12      0.068367
     18 H133       -2.1700    3.0580   -0.8390 hc        1 G12      0.068367
     19 H1         -0.1170    3.5510    0.0160 ha        1 G12      0.148000
     20 H2          2.3660    3.7690   -0.0590 ha        1 G12      0.165000
     21 HO11        4.5290    1.0420   -0.1810 ho        1 G12      0.442000
@<TRIPOS>BOND
     1    1    2 1   
     2    2    3 1   
     3    2    6 2   
     4    3    4 2   
     5    3    5 1   
     6    5    9 1   
     7    6    7 1   
     8    6    8 1   
     9    7   16 1   
    10    7   17 1   
    11    7   18 1   
    12    8    9 ar  
    13    8   12 ar  
    14    9   10 ar  
    15   10   11 1   
    16   10   14 ar  
    17   12   13 ar  
    18   12   19 1   
    19   13   14 ar  
    20   13   20 1   
    21   14   15 1   
    22   15   21 1   
@<TRIPOS>SUBSTRUCTURE
     1 G12         1 TEMP              0 ****  ****    0 ROOT
