@<TRIPOS>MOLECULE
G12
   21    19     1     0     0
SMALL
bcc


@<TRIPOS>ATOM
      1 BR2        -4.2350    0.1050    1.0560 br        1 G12      0.110000
      2 C9         -2.3230    0.1050    1.0560 c2        1 G12     -0.299000
      3 C8         -1.5860    0.1050    2.3340 c2        1 G12      0.351000
      4 O15        -2.1930    0.0900    3.3860 o         1 G12     -0.257000
      5 O7         -0.1510    0.1050    2.3310 os        1 G12     -0.178000
      6 C10        -1.5940    0.1050   -0.1930 c1        1 G12      0.086000
      7 C13        -2.3120   -0.1990   -1.4890 c3        1 G12     -0.211000
      8 C5         -0.1070    0.1050   -0.1790 c1        1 G12     -0.186000
      9 C6          0.5950    0.1050    1.0380 c2        1 G12      0.184000
     10 C4          1.9930    0.1050    1.0400 c1        1 G12     -0.294000
     11 BR1         2.9470    0.1800    2.6950 br        1 G12      0.099000
     12 C1          0.5970    0.1050   -1.3890 c1        1 G12     -0.027000
     13 C2          1.9930    0.1050   -1.3850 c1        1 G12     -0.189000
     14 C3          2.6920    0.1050   -0.1680 c1        1 G12      0.164000
     15 O11         4.0990    0.0950   -0.1650 oh        1 G12     -0.233000
     16 H131       -2.1780    0.5370   -2.1160 hc        1 G12      0.107667
     17 H132       -3.2660   -0.3080   -1.3150 hc        1 G12      0.107667
     18 H133       -1.9560   -1.0220   -1.8730 hc        1 G12      0.107667
     19 H1          0.1120    0.1050   -2.2360 ha        1 G12      0.148000
     20 H2          2.4830    0.1050   -2.2290 ha        1 G12      0.165000
     21 HO11        4.3890   -0.7440   -0.1960 ho        1 G12      0.241000
@<TRIPOS>BOND
     1    1    2 1   
     2    2    3 1   
     3    2    6 1   
     4    3    4 1   
     5    3    5 1   
     6    5    9 1   
     7    6    7 1   
     8    7   16 1   
     9    7   17 1   
    10    7   18 1   
    11    8    9 1   
    12    8   12 1   
    13    9   10 1   
    14   10   11 1   
    15   12   19 1   
    16   13   14 1   
    17   13   20 1   
    18   14   15 1   
    19   15   21 1   
@<TRIPOS>SUBSTRUCTURE
     1 G12         1 TEMP              0 ****  ****    0 ROOT
