@<TRIPOS>MOLECULE
G12
   21    22     1     0     0
SMALL
bcc


@<TRIPOS>ATOM
      1 Br2        -0.0130   -0.0590    0.1060 br        1 G12     -0.015700
      2 C9          1.8520   -0.0070   -0.0070 cc        1 G12     -0.192500
      3 C8          2.5750    0.0480    1.2590 c         1 G12      0.735800
      4 O15         2.1690    0.0670    2.4170 o         1 G12     -0.532500
      5 O7          3.9740    0.0890    1.2520 os        1 G12     -0.313200
      6 C10         2.5310   -0.0180   -1.1880 cd        1 G12      0.093600
      7 C13         1.8610   -0.0730   -2.5090 c3        1 G12     -0.088900
      8 C5          3.9790    0.0250   -1.1730 ca        1 G12     -0.197800
      9 C6          4.6550    0.0780    0.0630 ca        1 G12      0.229100
     10 C4          6.0670    0.1220    0.1420 ca        1 G12     -0.153900
     11 Br1         6.9690    0.1920    1.7840 br        1 G12     -0.041100
     12 C1          4.7440    0.0160   -2.3570 ca        1 G12     -0.027000
     13 C2          6.1200    0.0580   -2.3140 ca        1 G12     -0.189000
     14 C3          6.7840    0.1110   -1.0650 ca        1 G12      0.209100
     15 O11         8.1470    0.1490   -1.1490 oh        1 G12     -0.479100
     16 H131        2.1360    0.8300   -3.1120 hc        1 G12      0.068367
     17 H132        2.1900   -0.9890   -3.0630 hc        1 G12      0.068367
     18 H133        0.7470   -0.1030   -2.4180 hc        1 G12      0.068367
     19 H1          4.2360   -0.0250   -3.3340 ha        1 G12      0.148000
     20 H2          6.7260    0.0510   -3.2320 ha        1 G12      0.165000
     21 HO11        8.5210    0.1840   -0.2510 ho        1 G12      0.442000
@<TRIPOS>BOND
     1    1    2 1   
     2    2    3 1   
     3    2    6 2   
     4    3    4 2   
     5    3    5 1   
     6    5    9 1   
     7    6    7 1   
     8    6    8 1   
     9    7   16 1   
    10    7   17 1   
    11    7   18 1   
    12    8    9 ar  
    13    8   12 ar  
    14    9   10 ar  
    15   10   11 1   
    16   10   14 ar  
    17   12   13 ar  
    18   12   19 1   
    19   13   14 ar  
    20   13   20 1   
    21   14   15 1   
    22   15   21 1   
@<TRIPOS>SUBSTRUCTURE
     1 G12         1 TEMP              0 ****  ****    0 ROOT
