@<TRIPOS>MOLECULE
G12
   21    22     1     0     0
SMALL
bcc


@<TRIPOS>ATOM
      1 BR2        -0.0110   -0.0650    0.1140 br        1 G12     -0.015700
      2 C9          1.8540   -0.0090   -0.0030 cc        1 G12     -0.192500
      3 C8          2.5790    0.0500    1.2610 c         1 G12      0.735800
      4 O15         2.1740    0.0710    2.4200 o         1 G12     -0.532500
      5 O7          3.9770    0.0940    1.2530 os        1 G12     -0.313200
      6 C10         2.5310   -0.0220   -1.1850 cd        1 G12      0.093600
      7 C13         1.8580   -0.0820   -2.5050 c3        1 G12     -0.088900
      8 C5          3.9790    0.0240   -1.1730 ca        1 G12     -0.197800
      9 C6          4.6570    0.0820    0.0620 ca        1 G12      0.229100
     10 C4          6.0690    0.1290    0.1390 ca        1 G12     -0.153900
     11 BR1         6.9730    0.2050    1.7780 br        1 G12     -0.041100
     12 C1          4.7410    0.0140   -2.3580 ca        1 G12     -0.027000
     13 C2          6.1180    0.0590   -2.3170 ca        1 G12     -0.189000
     14 C3          6.7840    0.1160   -1.0700 ca        1 G12      0.209100
     15 O11         8.1470    0.1570   -1.1560 oh        1 G12     -0.479100
     16 H131        2.1310    0.8200   -3.1110 hc        1 G12      0.068367
     17 H132        2.1880   -0.9980   -3.0580 hc        1 G12      0.068367
     18 H133        0.7450   -0.1140   -2.4120 hc        1 G12      0.068367
     19 H1          4.2320   -0.0300   -3.3340 ha        1 G12      0.148000
     20 H2          6.7220    0.0520   -3.2360 ha        1 G12      0.165000
     21 HO11        8.5220    0.1950   -0.2590 ho        1 G12      0.442000
@<TRIPOS>BOND
     1    1    2 1   
     2    2    3 1   
     3    2    6 2   
     4    3    4 2   
     5    3    5 1   
     6    5    9 1   
     7    6    7 1   
     8    6    8 1   
     9    7   16 1   
    10    7   17 1   
    11    7   18 1   
    12    8    9 ar  
    13    8   12 ar  
    14    9   10 ar  
    15   10   11 1   
    16   10   14 ar  
    17   12   13 ar  
    18   12   19 1   
    19   13   14 ar  
    20   13   20 1   
    21   14   15 1   
    22   15   21 1   
@<TRIPOS>SUBSTRUCTURE
     1 G12         1 TEMP              0 ****  ****    0 ROOT
