@<TRIPOS>MOLECULE
G13
   73    71     1     0     0
SMALL
bcc


@<TRIPOS>ATOM
      1 O25        -1.2880    2.1290    3.3700 o         1 G13     -0.368000
      2 C24        -0.0510    2.0520    3.3330 c1        1 G13      0.348000
      3 C26         0.7680    2.0530    4.6570 c1        1 G13     -0.106000
      4 C27         2.1430    1.8720    4.4930 c2        1 G13     -0.102000
      5 C28         2.9870    1.8660    5.6100 c1        1 G13     -0.139000
      6 C29         2.4580    2.0390    6.8810 c1        1 G13     -0.111000
      7 C30         1.0610    2.2230    7.0510 c1        1 G13     -0.045000
      8 C32         0.5360    2.4800    8.3360 c1        1 G13     -0.111000
      9 C31         0.2290    2.2290    5.9540 c1        1 G13     -0.003000
     10 C35        -1.1500    2.4940    6.1160 c1        1 G13     -0.112000
     11 C34        -1.6650    2.7490    7.3870 c1        1 G13     -0.126000
     12 C33        -0.8210    2.7410    8.4950 c1        1 G13     -0.126000
     13 N23         0.6290    1.8740    2.0600 n3        1 G13     -0.351000
     14 C20        -0.1120    1.7930    0.8820 c3        1 G13      0.006000
     15 C16         0.8280    1.4860   -0.3170 c3        1 G13      0.002000
     16 C17         1.0930    2.7350   -0.9680 c3        1 G13     -0.113000
     17 C22        -0.1510    3.6880   -0.6060 c3        1 G13     -0.153000
     18 C21        -0.7880    3.1300    0.6030 c3        1 G13     -0.167000
     19 C18         1.0170    2.4660   -2.2440 c3        1 G13     -0.163000
     20 C19        -0.0200    1.2050   -2.3660 c3        1 G13     -0.035000
     21 N15         0.2160    0.4980   -1.4410 n         1 G13     -0.315000
     22 C13        -0.3360   -0.8580   -1.2120 c2        1 G13      0.296000
     23 O14        -0.0080   -1.4930   -0.1990 o         1 G13     -0.410000
     24 C8         -1.1060   -1.5560   -2.3260 c3        1 G13      0.019000
     25 C9         -2.4000   -2.1450   -1.7620 c3        1 G13     -0.047000
     26 C12        -3.4470   -1.0360   -1.6180 c3        1 G13     -0.213667
     27 C11        -2.1270   -2.7540   -0.4060 c3        1 G13     -0.213667
     28 C10        -2.9260   -3.2260   -2.7130 c3        1 G13     -0.213667
     29 N7         -0.3040   -2.6020   -2.8790 n         1 G13     -0.356000
     30 C5          0.3870   -2.3950   -4.1850 c2        1 G13      0.260000
     31 O6          0.1520   -1.4020   -4.8420 o         1 G13     -0.388000
     32 C3          1.3340   -3.4770   -4.7380 c3        1 G13     -0.031000
     33 C4          2.7150   -3.2680   -4.1880 c3        1 G13     -0.214000
     34 N2          1.3720   -3.3930   -6.1590 n3        1 G13     -0.281000
     35 C1          1.8890   -4.6240   -6.6980 c3        1 G13     -0.133000
     36 H27         2.5120    1.7520    3.6090 ha        1 G13      0.166000
     37 H28         3.9510    1.7390    5.4950 ha        1 G13      0.136000
     38 H29         3.0490    2.0350    7.6630 ha        1 G13      0.132500
     39 H32         1.1170    2.4760    9.1010 ha        1 G13      0.132500
     40 H35        -1.7360    2.5000    5.3460 ha        1 G13      0.155000
     41 H34        -2.6260    2.9330    7.5000 ha        1 G13      0.133000
     42 H33        -1.1830    2.9190    9.3850 ha        1 G13      0.133000
     43 HN23        1.5390    1.7210    2.0420 hn        1 G13      0.226000
     44 H20        -0.7800    1.0980    0.9610 h1        1 G13      0.136000
     45 H16         1.6750    1.1110    0.0210 h1        1 G13      0.109000
     46 H17         1.9520    3.1190   -0.7130 hc        1 G13      0.101000
     47 H22        -0.8050    3.7000   -1.3630 hc        1 G13      0.088000
     48 H22A        0.1720    4.6070   -0.4230 hc        1 G13      0.088000
     49 H21        -0.6570    3.7340    1.3600 hc        1 G13      0.093000
     50 H21A       -1.7380    2.9940    0.4450 hc        1 G13      0.093000
     51 H18         0.6680    3.2440   -2.7380 hc        1 G13      0.095000
     52 H18A        1.8860    2.2160   -2.5840 hc        1 G13      0.095000
     53 H19         0.1300    0.7250   -3.2030 h1        1 G13      0.099500
     54 H19A       -0.9410    1.5210   -2.3190 h1        1 G13      0.099500
     55 H8         -1.3170   -0.9190   -3.0140 h1        1 G13      0.135000
     56 H12        -4.3480   -1.4460   -1.4120 hc        1 G13      0.083333
     57 H12A       -3.5030   -0.5290   -2.4530 hc        1 G13      0.083333
     58 H12B       -3.1840   -0.4290   -0.8820 hc        1 G13      0.083333
     59 H11        -1.4000   -3.3900   -0.4780 hc        1 G13      0.083333
     60 H11A       -1.8760   -2.0340    0.2350 hc        1 G13      0.083333
     61 H11B       -2.9310   -3.2100   -0.0850 hc        1 G13      0.083333
     62 H10        -3.8580   -3.4140   -2.5070 hc        1 G13      0.083333
     63 H10A       -2.3950   -4.0430   -2.6050 hc        1 G13      0.083333
     64 H10B       -2.8540   -2.9070   -3.6440 hc        1 G13      0.083333
     65 HN7        -0.2820   -3.4300   -2.4730 hn        1 G13      0.233000
     66 H3          1.0140   -4.3480   -4.4770 h1        1 G13      0.113000
     67 H4          3.3130   -3.9810   -4.5220 hc        1 G13      0.089667
     68 H4A         2.6860   -3.2980   -3.2080 hc        1 G13      0.089667
     69 H4B         3.0590   -2.3850   -4.4830 hc        1 G13      0.089667
     70 HN2         0.5380   -3.2520   -6.4750 hn        1 G13      0.170000
     71 H1          2.7850   -4.8060   -6.3080 h1        1 G13      0.076667
     72 H1A         1.9660   -4.5470   -7.6810 h1        1 G13      0.076667
     73 H1B         1.2890   -5.3480   -6.4770 h1        1 G13      0.076667
@<TRIPOS>BOND
     1    1    2 1   
     2    2   13 1   
     3    3    4 1   
     4    3    9 1   
     5    4    5 1   
     6    4   36 1   
     7    5   37 1   
     8    6    7 1   
     9    6   38 1   
    10    7    8 1   
    11    8   39 1   
    12    9   10 1   
    13   10   40 1   
    14   11   12 1   
    15   11   41 1   
    16   12   42 1   
    17   13   14 1   
    18   13   43 1   
    19   14   15 1   
    20   14   18 1   
    21   14   44 1   
    22   15   16 1   
    23   15   21 1   
    24   15   45 1   
    25   16   17 1   
    26   16   19 1   
    27   16   46 1   
    28   17   18 1   
    29   17   47 1   
    30   17   48 1   
    31   18   49 1   
    32   18   50 1   
    33   19   20 1   
    34   19   51 1   
    35   19   52 1   
    36   20   21 1   
    37   20   53 1   
    38   20   54 1   
    39   21   22 1   
    40   22   23 1   
    41   22   24 1   
    42   24   25 1   
    43   24   29 1   
    44   24   55 1   
    45   25   26 1   
    46   25   27 1   
    47   25   28 1   
    48   26   56 1   
    49   26   57 1   
    50   26   58 1   
    51   27   59 1   
    52   27   60 1   
    53   27   61 1   
    54   28   62 1   
    55   28   63 1   
    56   28   64 1   
    57   29   30 1   
    58   29   65 1   
    59   30   31 1   
    60   30   32 1   
    61   32   33 1   
    62   32   34 1   
    63   32   66 1   
    64   33   67 1   
    65   33   68 1   
    66   33   69 1   
    67   34   35 1   
    68   34   70 1   
    69   35   71 1   
    70   35   72 1   
    71   35   73 1   
@<TRIPOS>SUBSTRUCTURE
     1 G13         1 TEMP              0 ****  ****    0 ROOT
