@<TRIPOS>MOLECULE
G13
   73    76     1     0     0
SMALL
bcc


@<TRIPOS>ATOM
      1 O25        75.7740   61.8010   14.2800 o         1 G13     -0.607100
      2 C24        76.1780   62.4030   15.2960 c         1 G13      0.674700
      3 C26        75.8540   61.9480   16.6830 ca        1 G13     -0.126600
      4 C27        76.8830   61.6420   17.5480 ca        1 G13     -0.102000
      5 C28        76.6010   61.1990   18.8610 ca        1 G13     -0.139000
      6 C29        75.3020   61.0800   19.2890 ca        1 G13     -0.101000
      7 C30        74.2220   61.3890   18.4170 ca        1 G13     -0.045000
      8 C32        72.8720   61.2720   18.8460 ca        1 G13     -0.121000
      9 C31        74.4950   61.8200   17.0920 ca        1 G13     -0.003000
     10 C35        73.4030   62.1080   16.2250 ca        1 G13     -0.112000
     11 C34        72.1090   61.9830   16.6660 ca        1 G13     -0.126000
     12 C33        71.8390   61.5640   17.9910 ca        1 G13     -0.126000
     13 N23        76.9260   63.5660   15.2020 n         1 G13     -0.541900
     14 C20        77.4940   64.0030   13.9560 c3        1 G13      0.082700
     15 C16        79.0560   64.1390   13.9930 c3        1 G13      0.078700
     16 C17        79.4040   65.2260   12.9350 c3        1 G13     -0.073700
     17 C22        78.0930   65.8790   12.5180 c3        1 G13     -0.074400
     18 C21        77.0240   65.3960   13.4880 c3        1 G13     -0.088400
     19 C18        80.1530   64.4960   11.8220 c3        1 G13     -0.084400
     20 C19        80.4120   63.0640   12.3290 c3        1 G13      0.081000
     21 N15        79.7620   62.9250   13.6200 n         1 G13     -0.456800
     22 C13        80.0380   61.9410   14.5410 c         1 G13      0.652100
     23 O14        79.6530   62.0650   15.7260 o         1 G13     -0.649100
     24 C8         80.8160   60.6770   14.0890 c3        1 G13      0.045700
     25 C9         79.8570   59.4510   14.0920 c3        1 G13     -0.047000
     26 C12        78.5840   59.8360   13.3500 c3        1 G13     -0.095767
     27 C11        79.5060   59.0000   15.5000 c3        1 G13     -0.095767
     28 C10        80.5340   58.3060   13.3510 c3        1 G13     -0.095767
     29 N7         81.9860   60.4980   14.9100 n         1 G13     -0.546900
     30 C5         83.2020   61.0610   14.5700 c         1 G13      0.616100
     31 O6         83.3690   61.6300   13.4710 o         1 G13     -0.627100
     32 C3         84.3560   60.9230   15.5950 c3        1 G13      0.116500
     33 C4         84.1350   61.9940   16.6640 c3        1 G13     -0.096100
     34 N2         85.6770   61.0110   15.0020 n3        1 G13     -0.802200
     35 C1         86.0130   59.9110   14.1340 c3        1 G13      0.143100
     36 H27        77.9350   61.7250   17.2220 ha        1 G13      0.166000
     37 H28        77.4390   60.9550   19.5300 ha        1 G13      0.136000
     38 H29        75.0730   60.7430   20.3110 ha        1 G13      0.133000
     39 H32        72.6750   60.9400   19.8770 ha        1 G13      0.132000
     40 H35        73.6210   62.4140   15.1890 ha        1 G13      0.155000
     41 H34        71.2670   62.2030   15.9930 ha        1 G13      0.134000
     42 H33        70.7930   61.4740   18.3210 ha        1 G13      0.132000
     43 HN23       77.3630   63.9000   16.0310 hn        1 G13      0.312500
     44 H20        77.2010   63.2560   13.1560 h1        1 G13      0.096700
     45 H16        79.3900   64.4620   15.0200 h1        1 G13      0.069700
     46 H17        80.0770   65.9910   13.4010 hc        1 G13      0.061700
     47 H22        78.1790   66.9930   12.5460 hc        1 G13      0.048700
     48 H22A       77.8190   65.5910   11.4710 hc        1 G13      0.048700
     49 H21        76.0250   65.3260   12.9950 hc        1 G13      0.053700
     50 H21A       76.9330   66.1020   14.3510 hc        1 G13      0.053700
     51 H18        79.5550   64.4630   10.8790 hc        1 G13      0.055700
     52 H18A       81.1230   65.0030   11.5970 hc        1 G13      0.055700
     53 H19        79.9810   62.3110   11.6120 h1        1 G13      0.060200
     54 H19A       81.5190   62.8710   12.4240 h1        1 G13      0.060200
     55 H8         81.1740   60.8060   13.0210 h1        1 G13      0.095700
     56 H12        77.9850   60.5770   13.9360 hc        1 G13      0.044033
     57 H12A       78.8310   60.2800   12.3550 hc        1 G13      0.044033
     58 H12B       77.9520   58.9300   13.1870 hc        1 G13      0.044033
     59 H11        78.6550   58.2780   15.4610 hc        1 G13      0.044033
     60 H11A       80.3710   58.4880   15.9850 hc        1 G13      0.044033
     61 H11B       79.2010   59.8740   16.1280 hc        1 G13      0.044033
     62 H10        79.8530   57.4200   13.3290 hc        1 G13      0.044033
     63 H10A       80.7640   58.6020   12.2990 hc        1 G13      0.044033
     64 H10B       81.4830   58.0090   13.8550 hc        1 G13      0.044033
     65 HN7        81.8250   60.2310   15.8540 hn        1 G13      0.319500
     66 H3         84.2820   59.9050   16.0830 h1        1 G13      0.073700
     67 H4         84.9420   61.9430   17.4330 hc        1 G13      0.050367
     68 H4A        84.1380   63.0150   16.2120 hc        1 G13      0.050367
     69 H4B        83.1520   61.8250   17.1640 hc        1 G13      0.050367
     70 HN2        85.7740   61.8850   14.5160 hn        1 G13      0.374800
     71 H1         85.3080   59.7950   13.2650 h1        1 G13      0.037367
     72 H1A        87.0480   60.0830   13.7360 h1        1 G13      0.037367
     73 H1B        86.0090   58.9580   14.7250 h1        1 G13      0.037367
@<TRIPOS>BOND
     1    1    2 2   
     2    2    3 1   
     3    2   13 1   
     4    3    4 ar  
     5    3    9 ar  
     6    4    5 ar  
     7    4   36 1   
     8    5    6 ar  
     9    5   37 1   
    10    6    7 ar  
    11    6   38 1   
    12    7    8 ar  
    13    7    9 ar  
    14    8   12 ar  
    15    8   39 1   
    16    9   10 ar  
    17   10   11 ar  
    18   10   40 1   
    19   11   12 ar  
    20   11   41 1   
    21   12   42 1   
    22   13   14 1   
    23   13   43 1   
    24   14   15 1   
    25   14   18 1   
    26   14   44 1   
    27   15   16 1   
    28   15   21 1   
    29   15   45 1   
    30   16   17 1   
    31   16   19 1   
    32   16   46 1   
    33   17   18 1   
    34   17   47 1   
    35   17   48 1   
    36   18   49 1   
    37   18   50 1   
    38   19   20 1   
    39   19   51 1   
    40   19   52 1   
    41   20   21 1   
    42   20   53 1   
    43   20   54 1   
    44   21   22 1   
    45   22   23 2   
    46   22   24 1   
    47   24   25 1   
    48   24   29 1   
    49   24   55 1   
    50   25   26 1   
    51   25   27 1   
    52   25   28 1   
    53   26   56 1   
    54   26   57 1   
    55   26   58 1   
    56   27   59 1   
    57   27   60 1   
    58   27   61 1   
    59   28   62 1   
    60   28   63 1   
    61   28   64 1   
    62   29   30 1   
    63   29   65 1   
    64   30   31 2   
    65   30   32 1   
    66   32   33 1   
    67   32   34 1   
    68   32   66 1   
    69   33   67 1   
    70   33   68 1   
    71   33   69 1   
    72   34   35 1   
    73   34   70 1   
    74   35   71 1   
    75   35   72 1   
    76   35   73 1   
@<TRIPOS>SUBSTRUCTURE
     1 G13         1 TEMP              0 ****  ****    0 ROOT
