@<TRIPOS>MOLECULE
G13
   76    79     1     0     0
SMALL
bcc


@<TRIPOS>ATOM
      1 O25         0.7230   -1.2180   -0.4120 o         1 G13     -0.471100
      2 C24         1.8210   -0.8300   -0.0340 c         1 G13      0.611700
      3 C26         2.2560   -0.1990    1.2010 ca        1 G13     -0.226600
      4 C27         3.4360   -0.6060    1.8220 ca        1 G13     -0.053000
      5 C28         3.8400   -0.0320    3.0330 ca        1 G13     -0.158000
      6 C29         3.0720    0.9570    3.6230 ca        1 G13      0.007000
      7 C30         1.8700    1.3950    3.0190 ca        1 G13     -0.061000
      8 C32         1.0810    2.4130    3.6290 ca        1 G13     -0.078000
      9 C31         1.4340    0.8120    1.7930 ca        1 G13      0.034000
     10 C35         0.2210    1.2700    1.2180 ca        1 G13     -0.180000
     11 C34        -0.5220    2.2530    1.8300 ca        1 G13     -0.049000
     12 C33        -0.0890    2.8330    3.0470 ca        1 G13     -0.112000
     13 N23         2.9380   -1.0710   -1.0710 ny        1 G13     -0.694800
     14 C20         2.6440   -0.4160   -2.3820 c3        1 G13      0.104500
     15 C16         2.9690   -1.3270   -3.6100 c3        1 G13      0.075700
     16 C17         3.3470   -0.3460   -4.7600 c3        1 G13     -0.062700
     17 C22         3.4490    1.0450   -4.1490 c3        1 G13     -0.082400
     18 C21         3.4440    0.8740   -2.6360 c3        1 G13     -0.095400
     19 C18         2.2640   -0.5030   -5.8250 c3        1 G13     -0.089400
     20 C19         1.3530   -1.6580   -5.3740 c3        1 G13      0.074000
     21 N15         1.8370   -2.1260   -4.0790 n         1 G13     -0.419800
     22 C13         1.4290   -3.2330   -3.4100 c         1 G13      0.653100
     23 O14         2.0360   -3.6420   -2.3840 o         1 G13     -0.672100
     24 C8          0.2050   -4.0550   -3.8950 c3        1 G13      0.073500
     25 C9         -1.0920   -3.6750   -3.1130 c3        1 G13     -0.057000
     26 C12        -1.3190   -2.1750   -3.2590 c3        1 G13     -0.118100
     27 C11        -0.9780   -4.0180   -1.6370 c3        1 G13     -0.118100
     28 C10        -2.2780   -4.4040   -3.7320 c3        1 G13     -0.118100
     29 N7          0.5210   -5.5310   -3.6900 ny        1 G13     -0.665800
     30 C5          1.0260   -6.2460   -4.8920 c         1 G13      0.510100
     31 O6          1.4210   -5.6040   -5.8560 o         1 G13     -0.390100
     32 C3          0.9990   -7.7860   -4.8320 c3        1 G13      0.061500
     33 C4          1.7660   -8.2770   -3.6080 c3        1 G13     -0.159100
     34 N2          1.5380   -8.3810   -6.1080 ny        1 G13     -0.760000
     35 C1          0.9360   -9.7100   -6.4080 c3        1 G13      0.074100
     36 H27         4.0550   -1.4150    1.4030 ha        1 G13      0.123000
     37 H28         4.7690   -0.3780    3.5160 ha        1 G13      0.175000
     38 H29         3.3910    1.4130    4.5790 ha        1 G13      0.178000
     39 H32         1.4310    2.8540    4.5780 ha        1 G13      0.169000
     40 H35        -0.1380    0.8220    0.2800 ha        1 G13      0.129000
     41 H34        -1.4670    2.6000    1.3800 ha        1 G13      0.161000
     42 H33        -0.7030    3.6200    3.5180 ha        1 G13      0.174000
     43 HN23        3.8250   -0.7130   -0.6990 hn        1 G13      0.461800
     44 H20         1.5410   -0.1590   -2.3840 hx        1 G13      0.121700
     45 H16         3.8280   -2.0190   -3.3750 h1        1 G13      0.088700
     46 H17         4.3420   -0.6480   -5.1830 hc        1 G13      0.099700
     47 H22         2.5900    1.6920   -4.4670 hc        1 G13      0.093200
     48 H22A        4.3880    1.5590   -4.4820 hc        1 G13      0.093200
     49 H21         2.9620    1.7490   -2.1300 hc        1 G13      0.088200
     50 H21A        4.4950    0.7910   -2.2530 hc        1 G13      0.088200
     51 H18         2.7200   -0.7380   -6.8200 hc        1 G13      0.095200
     52 H18A        1.6620    0.4340   -5.9430 hc        1 G13      0.095200
     53 H19         1.3880   -2.5030   -6.1170 h1        1 G13      0.067700
     54 H19A        0.2890   -1.3030   -5.2760 h1        1 G13      0.067700
     55 H8          0.0210   -3.8900   -4.9990 hx        1 G13      0.133700
     56 H12        -0.5050   -1.5960   -2.7600 hc        1 G13      0.068033
     57 H12A       -1.4010   -1.8860   -4.3330 hc        1 G13      0.068033
     58 H12B       -2.2840   -1.9030   -2.7560 hc        1 G13      0.068033
     59 H11        -0.9810   -5.1190   -1.4580 hc        1 G13      0.068033
     60 H11A       -1.8590   -3.5910   -1.0900 hc        1 G13      0.068033
     61 H11B       -0.0530   -3.5710   -1.1930 hc        1 G13      0.068033
     62 H10        -2.3100   -4.2590   -4.8380 hc        1 G13      0.068033
     63 H10A       -2.2740   -5.4960   -3.4980 hc        1 G13      0.068033
     64 H10B       -3.2280   -3.9850   -3.3070 hc        1 G13      0.068033
     65 HN7        -0.3390   -5.9960   -3.3530 hn        1 G13      0.496300
     66 H3         -0.0910   -8.1100   -4.7550 hx        1 G13      0.156700
     67 H4          2.7950   -7.8390   -3.5570 hc        1 G13      0.109367
     68 H4A         1.8630   -9.3960   -3.6160 hc        1 G13      0.109367
     69 H4B         1.2050   -8.0160   -2.6750 hc        1 G13      0.109367
     70 HN2         2.5610   -8.4890   -6.0200 hn        1 G13      0.479800
     71 H1         -0.1670   -9.6000   -6.5970 hx        1 G13      0.134033
     72 H1A         1.4330  -10.1230   -7.3330 hx        1 G13      0.134033
     73 H1B         1.1100  -10.4140   -5.5480 hx        1 G13      0.134033
     74 H232        3.0200   -2.0870   -1.2160 hn        1 G13      0.461800
     75 H72         1.2360   -5.5910   -2.9300 hn        1 G13      0.496300
     76 H221        1.3540   -7.7420   -6.8990 hn        1 G13      0.479800
@<TRIPOS>BOND
     1    1    2 2   
     2    2    3 1   
     3    2   13 1   
     4    3    4 ar  
     5    3    9 ar  
     6    4    5 ar  
     7    4   36 1   
     8    5    6 ar  
     9    5   37 1   
    10    6    7 ar  
    11    6   38 1   
    12    7    8 ar  
    13    7    9 ar  
    14    8   12 ar  
    15    8   39 1   
    16    9   10 ar  
    17   10   11 ar  
    18   10   40 1   
    19   11   12 ar  
    20   11   41 1   
    21   12   42 1   
    22   13   14 1   
    23   13   43 1   
    24   13   74 1   
    25   14   15 1   
    26   14   18 1   
    27   14   44 1   
    28   15   16 1   
    29   15   21 1   
    30   15   45 1   
    31   16   17 1   
    32   16   19 1   
    33   16   46 1   
    34   17   18 1   
    35   17   47 1   
    36   17   48 1   
    37   18   49 1   
    38   18   50 1   
    39   19   20 1   
    40   19   51 1   
    41   19   52 1   
    42   20   21 1   
    43   20   53 1   
    44   20   54 1   
    45   21   22 1   
    46   22   23 2   
    47   22   24 1   
    48   24   25 1   
    49   24   29 1   
    50   24   55 1   
    51   25   26 1   
    52   25   27 1   
    53   25   28 1   
    54   26   56 1   
    55   26   57 1   
    56   26   58 1   
    57   27   59 1   
    58   27   60 1   
    59   27   61 1   
    60   28   62 1   
    61   28   63 1   
    62   28   64 1   
    63   29   30 1   
    64   29   65 1   
    65   29   75 1   
    66   30   31 2   
    67   30   32 1   
    68   32   33 1   
    69   32   34 1   
    70   32   66 1   
    71   33   67 1   
    72   33   68 1   
    73   33   69 1   
    74   34   35 1   
    75   34   70 1   
    76   34   76 1   
    77   35   71 1   
    78   35   72 1   
    79   35   73 1   
@<TRIPOS>SUBSTRUCTURE
     1 G13         1 TEMP              0 ****  ****    0 ROOT
