@<TRIPOS>MOLECULE
G13
   76    79     1     0     0
SMALL
bcc


@<TRIPOS>ATOM
      1 O25         0.7310   -1.2190   -0.4100 o         1 G13     -0.471100
      2 C24         1.8280   -0.8160   -0.0470 c         1 G13      0.611700
      3 C26         2.2720   -0.1760    1.1790 ca        1 G13     -0.226600
      4 C27         3.4660   -0.5660    1.7860 ca        1 G13     -0.053000
      5 C28         3.8780    0.0160    2.9900 ca        1 G13     -0.158000
      6 C29         3.1060    0.9970    3.5870 ca        1 G13      0.007000
      7 C30         1.8900    1.4180    2.9990 ca        1 G13     -0.061000
      8 C32         1.0960    2.4270    3.6160 ca        1 G13     -0.078000
      9 C31         1.4460    0.8260    1.7800 ca        1 G13      0.034000
     10 C35         0.2190    1.2670    1.2200 ca        1 G13     -0.180000
     11 C34        -0.5280    2.2420    1.8390 ca        1 G13     -0.049000
     12 C33        -0.0870    2.8310    3.0490 ca        1 G13     -0.112000
     13 N23         2.9350   -1.0460   -1.0980 n4        1 G13     -0.694800
     14 C20         2.6160   -0.3990   -2.4070 c3        1 G13      0.104500
     15 C16         2.9360   -1.3100   -3.6370 c3        1 G13      0.075700
     16 C17         3.2870   -0.3280   -4.7940 c3        1 G13     -0.062700
     17 C22         3.3780    1.0670   -4.1890 c3        1 G13     -0.082400
     18 C21         3.3960    0.9000   -2.6760 c3        1 G13     -0.095400
     19 C18         2.1920   -0.5020   -5.8450 c3        1 G13     -0.089400
     20 C19         1.3010   -1.6660   -5.3790 c3        1 G13      0.074000
     21 N15         1.8080   -2.1250   -4.0890 n         1 G13     -0.419800
     22 C13         1.4230   -3.2340   -3.4120 c         1 G13      0.653100
     23 O14         2.0480   -3.6330   -2.3920 o         1 G13     -0.672100
     24 C8          0.2040   -4.0730   -3.8780 c3        1 G13      0.073500
     25 C9         -1.0880   -3.7070   -3.0800 c3        1 G13     -0.057000
     26 C12        -1.3360   -2.2110   -3.2270 c3        1 G13     -0.118100
     27 C11        -0.9510   -4.0440   -1.6050 c3        1 G13     -0.118100
     28 C10        -2.2720   -4.4530   -3.6820 c3        1 G13     -0.118100
     29 N7          0.5410   -5.5450   -3.6730 n4        1 G13     -0.665800
     30 C5          1.0400   -6.2560   -4.8800 c         1 G13      0.510100
     31 O6          1.4140   -5.6120   -5.8500 o         1 G13     -0.390100
     32 C3          1.0320   -7.7970   -4.8160 c3        1 G13      0.061500
     33 C4          1.8220   -8.2740   -3.6010 c3        1 G13     -0.159100
     34 N2          1.5630   -8.3880   -6.0970 n4        1 G13     -0.760000
     35 C1          0.9740   -9.7260   -6.3860 c3        1 G13      0.074100
     36 H27         4.0900   -1.3690    1.3610 ha        1 G13      0.123000
     37 H28         4.8180   -0.3170    3.4620 ha        1 G13      0.175000
     38 H29         3.4310    1.4600    4.5370 ha        1 G13      0.178000
     39 H32         1.4530    2.8760    4.5590 ha        1 G13      0.169000
     40 H35        -0.1470    0.8110    0.2880 ha        1 G13      0.129000
     41 H34        -1.4840    2.5760    1.4010 ha        1 G13      0.161000
     42 H33        -0.7040    3.6110    3.5260 ha        1 G13      0.174000
     43 HN23        3.8230   -0.6760   -0.7400 hn        1 G13      0.461800
     44 H20         1.5090   -0.1570   -2.3960 hx        1 G13      0.121700
     45 H16         3.8070   -1.9900   -3.4110 h1        1 G13      0.088700
     46 H17         4.2800   -0.6190   -5.2300 hc        1 G13      0.099700
     47 H22         2.5070    1.7020   -4.4980 hc        1 G13      0.093200
     48 H22A        4.3060    1.5910   -4.5350 hc        1 G13      0.093200
     49 H21         2.9090    1.7700   -2.1660 hc        1 G13      0.088200
     50 H21A        4.4520    0.8320   -2.3070 hc        1 G13      0.088200
     51 H18         2.6380   -0.7340   -6.8450 hc        1 G13      0.095200
     52 H18A        1.5770    0.4270   -5.9590 hc        1 G13      0.095200
     53 H19         1.3370   -2.5130   -6.1200 h1        1 G13      0.067700
     54 H19A        0.2350   -1.3240   -5.2680 h1        1 G13      0.067700
     55 H8          0.0030   -3.9140   -4.9800 hx        1 G13      0.133700
     56 H12        -0.5230   -1.6200   -2.7410 hc        1 G13      0.068033
     57 H12A       -1.4350   -1.9260   -4.3020 hc        1 G13      0.068033
     58 H12B       -2.2980   -1.9500   -2.7130 hc        1 G13      0.068033
     59 H11        -0.9370   -5.1450   -1.4230 hc        1 G13      0.068033
     60 H11A       -1.8300   -3.6270   -1.0480 hc        1 G13      0.068033
     61 H11B       -0.0260   -3.5840   -1.1750 hc        1 G13      0.068033
     62 H10        -2.3210   -4.3120   -4.7880 hc        1 G13      0.068033
     63 H10A       -2.2520   -5.5440   -3.4450 hc        1 G13      0.068033
     64 H10B       -3.2220   -4.0450   -3.2450 hc        1 G13      0.068033
     65 HN7        -0.3090   -6.0190   -3.3240 hn        1 G13      0.496300
     66 H3         -0.0520   -8.1340   -4.7230 hx        1 G13      0.156700
     67 H4          2.8450   -7.8230   -3.5640 hc        1 G13      0.109367
     68 H4A         1.2700   -8.0180   -2.6610 hc        1 G13      0.109367
     69 H4B         1.9330   -9.3920   -3.6070 hc        1 G13      0.109367
     70 HN2         1.3600   -7.7530   -6.8870 hn        1 G13      0.479800
     71 H1         -0.1330   -9.6300   -6.5610 hx        1 G13      0.134033
     72 H1A         1.4640  -10.1350   -7.3170 hx        1 G13      0.134033
     73 H1B         1.1680  -10.4250   -5.5260 hx        1 G13      0.134033
     74 H232        3.0280   -2.0620   -1.2420 hn        1 G13      0.461800
     75 H72         1.2660   -5.5930   -2.9230 hn        1 G13      0.496300
     76 H221        2.5880   -8.4820   -6.0230 hn        1 G13      0.479800
@<TRIPOS>BOND
     1    1    2 2   
     2    2    3 1   
     3    2   13 1   
     4    3    4 ar  
     5    3    9 ar  
     6    4    5 ar  
     7    4   36 1   
     8    5    6 ar  
     9    5   37 1   
    10    6    7 ar  
    11    6   38 1   
    12    7    8 ar  
    13    7    9 ar  
    14    8   12 ar  
    15    8   39 1   
    16    9   10 ar  
    17   10   11 ar  
    18   10   40 1   
    19   11   12 ar  
    20   11   41 1   
    21   12   42 1   
    22   13   14 1   
    23   13   43 1   
    24   13   74 1   
    25   14   15 1   
    26   14   18 1   
    27   14   44 1   
    28   15   16 1   
    29   15   21 1   
    30   15   45 1   
    31   16   17 1   
    32   16   19 1   
    33   16   46 1   
    34   17   18 1   
    35   17   47 1   
    36   17   48 1   
    37   18   49 1   
    38   18   50 1   
    39   19   20 1   
    40   19   51 1   
    41   19   52 1   
    42   20   21 1   
    43   20   53 1   
    44   20   54 1   
    45   21   22 1   
    46   22   23 2   
    47   22   24 1   
    48   24   25 1   
    49   24   29 1   
    50   24   55 1   
    51   25   26 1   
    52   25   27 1   
    53   25   28 1   
    54   26   56 1   
    55   26   57 1   
    56   26   58 1   
    57   27   59 1   
    58   27   60 1   
    59   27   61 1   
    60   28   62 1   
    61   28   63 1   
    62   28   64 1   
    63   29   30 1   
    64   29   65 1   
    65   29   75 1   
    66   30   31 2   
    67   30   32 1   
    68   32   33 1   
    69   32   34 1   
    70   32   66 1   
    71   33   67 1   
    72   33   68 1   
    73   33   69 1   
    74   34   35 1   
    75   34   70 1   
    76   34   76 1   
    77   35   71 1   
    78   35   72 1   
    79   35   73 1   
@<TRIPOS>SUBSTRUCTURE
     1 G13         1 TEMP              0 ****  ****    0 ROOT
