@<TRIPOS>MOLECULE
G13
   76    79     1     0     0
SMALL
bcc


@<TRIPOS>ATOM
      1 O25         0.7180   -1.1990   -0.4310 o         1 G13     -0.471100
      2 C24         1.8160   -0.8190   -0.0460 c         1 G13      0.611700
      3 C26         2.2490   -0.1880    1.1900 ca        1 G13     -0.226600
      4 C27         3.4220   -0.6040    1.8200 ca        1 G13     -0.053000
      5 C28         3.8220   -0.0310    3.0320 ca        1 G13     -0.158000
      6 C29         3.0590    0.9660    3.6150 ca        1 G13      0.007000
      7 C30         1.8640    1.4120    3.0030 ca        1 G13     -0.061000
      8 C32         1.0790    2.4370    3.6050 ca        1 G13     -0.078000
      9 C31         1.4320    0.8300    1.7750 ca        1 G13      0.034000
     10 C35         0.2260    1.2970    1.1910 ca        1 G13     -0.180000
     11 C34        -0.5130    2.2870    1.7960 ca        1 G13     -0.049000
     12 C33        -0.0830    2.8660    3.0150 ca        1 G13     -0.112000
     13 N23         2.9390   -1.0720   -1.0750 n4        1 G13     -0.694800
     14 C20         2.6590   -0.4210   -2.3900 c3        1 G13      0.104500
     15 C16         2.9840   -1.3400   -3.6130 c3        1 G13      0.075700
     16 C17         3.3780   -0.3660   -4.7630 c3        1 G13     -0.062700
     17 C22         3.4860    1.0270   -4.1570 c3        1 G13     -0.082400
     18 C21         3.4700    0.8620   -2.6440 c3        1 G13     -0.095400
     19 C18         2.3020   -0.5190   -5.8360 c3        1 G13     -0.089400
     20 C19         1.3780   -1.6650   -5.3870 c3        1 G13      0.074000
     21 N15         1.8500   -2.1320   -4.0870 n         1 G13     -0.419800
     22 C13         1.4280   -3.2320   -3.4160 c         1 G13      0.653100
     23 O14         2.0240   -3.6420   -2.3830 o         1 G13     -0.672100
     24 C8          0.2020   -4.0460   -3.9050 c3        1 G13      0.073500
     25 C9         -1.0980   -3.6520   -3.1350 c3        1 G13     -0.057000
     26 C12        -1.3120   -2.1520   -3.2890 c3        1 G13     -0.118100
     27 C11        -0.9980   -3.9890   -1.6560 c3        1 G13     -0.118100
     28 C10        -2.2850   -4.3750   -3.7590 c3        1 G13     -0.118100
     29 N7          0.5040   -5.5240   -3.6920 n4        1 G13     -0.665800
     30 C5          1.0110   -6.2490   -4.8870 c         1 G13      0.510100
     31 O6          1.4170   -5.6140   -5.8510 o         1 G13     -0.390100
     32 C3          0.9710   -7.7880   -4.8190 c3        1 G13      0.061500
     33 C4          1.7280   -8.2790   -3.5890 c3        1 G13     -0.159100
     34 N2          1.5140   -8.3940   -6.0900 n4        1 G13     -0.760000
     35 C1          0.9030   -9.7200   -6.3860 c3        1 G13      0.074100
     36 H27         4.0370   -1.4190    1.4060 ha        1 G13      0.123000
     37 H28         4.7460   -0.3830    3.5220 ha        1 G13      0.175000
     38 H29         3.3750    1.4220    4.5720 ha        1 G13      0.178000
     39 H32         1.4270    2.8780    4.5550 ha        1 G13      0.169000
     40 H35        -0.1310    0.8500    0.2520 ha        1 G13      0.129000
     41 H34        -1.4530    2.6410    1.3400 ha        1 G13      0.161000
     42 H33        -0.6930    3.6590    3.4800 ha        1 G13      0.174000
     43 HN23        3.0140   -2.0900   -1.2160 hn        1 G13      0.461800
     44 H20         1.5570   -0.1560   -2.4010 hx        1 G13      0.121700
     45 H16         3.8370   -2.0370   -3.3690 h1        1 G13      0.088700
     46 H17         4.3740   -0.6770   -5.1780 hc        1 G13      0.099700
     47 H22         4.4310    1.5330   -4.4860 hc        1 G13      0.093200
     48 H22A        2.6340    1.6790   -4.4850 hc        1 G13      0.093200
     49 H21         2.9900    1.7420   -2.1450 hc        1 G13      0.088200
     50 H21A        4.5170    0.7730   -2.2540 hc        1 G13      0.088200
     51 H18         2.7630   -0.7630   -6.8270 hc        1 G13      0.095200
     52 H18A        1.7090    0.4220   -5.9630 hc        1 G13      0.095200
     53 H19         1.4120   -2.5130   -6.1260 h1        1 G13      0.067700
     54 H19A        0.3170   -1.3010   -5.2980 h1        1 G13      0.067700
     55 H8          0.0270   -3.8850   -5.0120 hx        1 G13      0.133700
     56 H12        -1.3840   -1.8670   -4.3650 hc        1 G13      0.068033
     57 H12A       -2.2780   -1.8690   -2.7950 hc        1 G13      0.068033
     58 H12B       -0.4970   -1.5760   -2.7870 hc        1 G13      0.068033
     59 H11        -0.0730   -3.5470   -1.2080 hc        1 G13      0.068033
     60 H11A       -1.0100   -5.0900   -1.4720 hc        1 G13      0.068033
     61 H11B       -1.8790   -3.5530   -1.1180 hc        1 G13      0.068033
     62 H10        -3.2350   -3.9470   -3.3420 hc        1 G13      0.068033
     63 H10A       -2.3080   -4.2350   -4.8660 hc        1 G13      0.068033
     64 H10B       -2.2930   -5.4650   -3.5200 hc        1 G13      0.068033
     65 HN7        -0.3620   -5.9800   -3.3580 hn        1 G13      0.496300
     66 H3         -0.1210   -8.1030   -4.7470 hx        1 G13      0.156700
     67 H4          1.8160   -9.3990   -3.5910 hc        1 G13      0.109367
     68 H4A         2.7590   -7.8490   -3.5340 hc        1 G13      0.109367
     69 H4B         1.1630   -8.0090   -2.6610 hc        1 G13      0.109367
     70 HN2         2.5350   -8.5090   -5.9960 hn        1 G13      0.479800
     71 H1         -0.1980   -9.6020   -6.5830 hx        1 G13      0.134033
     72 H1A         1.4020  -10.1410   -7.3070 hx        1 G13      0.134033
     73 H1B         1.0660  -10.4200   -5.5220 hx        1 G13      0.134033
     74 H232        3.8260   -0.7200   -0.6990 hn        1 G13      0.461800
     75 H72         1.2130   -5.5860   -2.9270 hn        1 G13      0.496300
     76 H221        1.3390   -7.7570   -6.8840 hn        1 G13      0.479800
@<TRIPOS>BOND
     1    1    2 2   
     2    2    3 1   
     3    2   13 1   
     4    3    4 ar  
     5    3    9 ar  
     6    4    5 ar  
     7    4   36 1   
     8    5    6 ar  
     9    5   37 1   
    10    6    7 ar  
    11    6   38 1   
    12    7    8 ar  
    13    7    9 ar  
    14    8   12 ar  
    15    8   39 1   
    16    9   10 ar  
    17   10   11 ar  
    18   10   40 1   
    19   11   12 ar  
    20   11   41 1   
    21   12   42 1   
    22   13   14 1   
    23   13   43 1   
    24   13   74 1   
    25   14   15 1   
    26   14   18 1   
    27   14   44 1   
    28   15   16 1   
    29   15   21 1   
    30   15   45 1   
    31   16   17 1   
    32   16   19 1   
    33   16   46 1   
    34   17   18 1   
    35   17   47 1   
    36   17   48 1   
    37   18   49 1   
    38   18   50 1   
    39   19   20 1   
    40   19   51 1   
    41   19   52 1   
    42   20   21 1   
    43   20   53 1   
    44   20   54 1   
    45   21   22 1   
    46   22   23 2   
    47   22   24 1   
    48   24   25 1   
    49   24   29 1   
    50   24   55 1   
    51   25   26 1   
    52   25   27 1   
    53   25   28 1   
    54   26   56 1   
    55   26   57 1   
    56   26   58 1   
    57   27   59 1   
    58   27   60 1   
    59   27   61 1   
    60   28   62 1   
    61   28   63 1   
    62   28   64 1   
    63   29   30 1   
    64   29   65 1   
    65   29   75 1   
    66   30   31 2   
    67   30   32 1   
    68   32   33 1   
    69   32   34 1   
    70   32   66 1   
    71   33   67 1   
    72   33   68 1   
    73   33   69 1   
    74   34   35 1   
    75   34   70 1   
    76   34   76 1   
    77   35   71 1   
    78   35   72 1   
    79   35   73 1   
@<TRIPOS>SUBSTRUCTURE
     1 G13         1 TEMP              0 ****  ****    0 ROOT
