@<TRIPOS>MOLECULE
G14
   21    22     1     0     0
SMALL
bcc


@<TRIPOS>ATOM
      1 O14         3.6160    1.6400    0.2860 o         1 G14     -0.822300
      2 C12         3.4330    0.4030    0.1600 c         1 G14      0.834100
      3 O13         4.3560   -0.4620    0.1020 o         1 G14     -0.822300
      4 C10         2.0190   -0.1440    0.0580 cc        1 G14      0.285800
      5 C9          1.7400   -1.5190   -0.1550 cd        1 G14     -0.239600
      6 N8          0.3600   -1.6490   -0.1910 na        1 G14     -0.322900
      7 C7         -0.1780   -0.3560   -0.0080 cd        1 G14      0.356000
      8 N11         0.8280    0.5600    0.1450 nc        1 G14     -0.613000
      9 C6         -1.6060   -0.0730    0.0070 ca        1 G14     -0.065500
     10 C1         -2.5580   -1.0940    0.1520 ca        1 G14     -0.129000
     11 C2         -3.9190   -0.7940    0.1560 ca        1 G14     -0.135000
     12 C3         -4.3510    0.5240    0.0200 ca        1 G14     -0.156000
     13 C4         -3.4100    1.5450   -0.1160 ca        1 G14     -0.135000
     14 C5         -2.0490    1.2560   -0.1250 ca        1 G14     -0.129000
     15 H9          2.4340   -2.3490   -0.2700 h4        1 G14      0.183000
     16 H1         -2.2470   -2.1400    0.2790 ha        1 G14      0.142000
     17 H2         -4.6540   -1.6030    0.2700 ha        1 G14      0.118500
     18 H3         -5.4240    0.7570    0.0240 ha        1 G14      0.116000
     19 H4         -3.7440    2.5880   -0.2180 ha        1 G14      0.118500
     20 H5         -1.3110    2.0680   -0.2300 ha        1 G14      0.142000
     21 HN8        -0.1540   -2.4700   -0.3510 hn        1 G14      0.275700
@<TRIPOS>BOND
     1    1    2 1   
     2    2    3 1   
     3    2    4 1   
     4    4    5 2   
     5    4    8 1   
     6    5    6 1   
     7    5   15 1   
     8    6    7 1   
     9    6   21 1   
    10    7    8 2   
    11    7    9 1   
    12    9   10 ar  
    13    9   14 ar  
    14   10   11 ar  
    15   10   16 1   
    16   11   12 ar  
    17   11   17 1   
    18   12   13 ar  
    19   12   18 1   
    20   13   14 ar  
    21   13   19 1   
    22   14   20 1   
@<TRIPOS>SUBSTRUCTURE
     1 G14         1 TEMP              0 ****  ****    0 ROOT
