@<TRIPOS>MOLECULE
G14
   21    22     1     0     0
SMALL
bcc


@<TRIPOS>ATOM
      1 O14         0.0810   -0.2810    0.1550 o         1 G14     -0.822300
      2 C12         1.3290   -0.1480    0.0960 c         1 G14      0.834100
      3 O13         2.0960   -0.0820    1.1010 o         1 G14     -0.822300
      4 C10         2.0150   -0.0490   -1.2560 cc        1 G14      0.285800
      5 C9          3.4100    0.1710   -1.3970 cd        1 G14     -0.239600
      6 N8          3.6780    0.2020   -2.7570 na        1 G14     -0.322900
      7 C7          2.4460    0.0090   -3.4210 cd        1 G14      0.356000
      8 N11         1.4350   -0.1460   -2.5120 nc        1 G14     -0.613000
      9 C6          2.3090   -0.0130   -4.8700 ca        1 G14     -0.065500
     10 C1          3.4210   -0.1570   -5.7140 ca        1 G14     -0.129000
     11 C2          3.2600   -0.1680   -7.0980 ca        1 G14     -0.135000
     12 C3          1.9920   -0.0420   -7.6610 ca        1 G14     -0.156000
     13 C4          0.8800    0.0920   -6.8280 ca        1 G14     -0.135000
     14 C5          1.0310    0.1080   -5.4450 ca        1 G14     -0.129000
     15 H9          4.1650    0.2940   -0.6230 h4        1 G14      0.183000
     16 H1          4.4320   -0.2760   -5.2980 ha        1 G14      0.142000
     17 H2          4.1400   -0.2800   -7.7470 ha        1 G14      0.118500
     18 H3          1.8670   -0.0510   -8.7520 ha        1 G14      0.116000
     19 H4         -0.1250    0.1860   -7.2670 ha        1 G14      0.118500
     20 H5          0.1480    0.2110   -4.7930 ha        1 G14      0.142000
     21 HN8         4.5460    0.3650   -3.1860 hn        1 G14      0.275700
@<TRIPOS>BOND
     1    1    2 1   
     2    2    3 1   
     3    2    4 1   
     4    4    5 2   
     5    4    8 1   
     6    5    6 1   
     7    5   15 1   
     8    6    7 1   
     9    6   21 1   
    10    7    8 2   
    11    7    9 1   
    12    9   10 ar  
    13    9   14 ar  
    14   10   11 ar  
    15   10   16 1   
    16   11   12 ar  
    17   11   17 1   
    18   12   13 ar  
    19   12   18 1   
    20   13   14 ar  
    21   13   19 1   
    22   14   20 1   
@<TRIPOS>SUBSTRUCTURE
     1 G14         1 TEMP              0 ****  ****    0 ROOT
