@<TRIPOS>MOLECULE
G15
   53    56     1     0     0
SMALL
bcc


@<TRIPOS>ATOM
      1 O26         0.3090    1.7200   -1.1760 o         1 G15     -0.613100
      2 C23         0.7960    0.7210   -0.6040 c         1 G15      0.629100
      3 N25         1.4150   -0.2770   -1.3260 n         1 G15     -0.455800
      4 C27         1.1660   -0.3640   -2.7540 c3        1 G15      0.049000
      5 C29         2.3300   -0.9860   -3.5320 c3        1 G15      0.116900
      6 O31         2.7570   -2.2070   -2.9390 os        1 G15     -0.397600
      7 C30         3.1670   -2.0290   -1.5930 c3        1 G15      0.116900
      8 C28         2.0640   -1.4140   -0.7150 c3        1 G15      0.049000
      9 C22         0.7030    0.6420    0.9450 c3        1 G15      0.049700
     10 C24        -0.7860    0.6220    1.2940 c3        1 G15     -0.106100
     11 N19         1.4180    1.7400    1.5600 n         1 G15     -0.426800
     12 C21         0.8990    3.1010    1.5350 c3        1 G15      0.072000
     13 C18         2.0730    4.0480    1.8720 c3        1 G15     -0.110400
     14 C17         2.7610    1.6980    1.8470 c         1 G15      0.681500
     15 O20         3.5350    0.7290    1.8130 o         1 G15     -0.616500
     16 C16         3.2370    3.1220    2.2750 c3        1 G15      0.012500
     17 N13         4.5530    3.4370    1.6740 ny        1 G15     -0.689900
     18 S11         5.5250    4.7540    2.6130 sy        1 G15      1.446800
     19 O14         5.1490    4.5720    3.9210 o         1 G15     -0.554300
     20 O15         5.1810    5.8870    1.9190 o         1 G15     -0.554300
     21 C7          7.0080    4.1680    2.2540 cc        1 G15      0.097900
     22 N2          8.0390    3.9130    3.1430 nd        1 G15     -0.320800
     23 N3          9.0520    3.5420    2.4120 na        1 G15     -0.094400
     24 N1          7.4120    3.9200    0.9150 nc        1 G15     -0.642000
     25 C1          8.7040    3.5290    1.0190 cd        1 G15      0.588000
     26 C2          9.6200    3.1640   -0.0190 cd        1 G15     -0.283600
     27 C5         10.8060    2.4490    0.1660 cc        1 G15     -0.093000
     28 C9         11.4890    2.2510   -1.0570 cc        1 G15     -0.150000
     29 C10        10.7970    2.8230   -2.1240 cd        1 G15     -0.021700
     30 S6          9.3860    3.5580   -1.6280 ss        1 G15      0.209200
     31 Cl         11.3060    2.7850   -3.7090 cl        1 G15      0.027600
     32 H22         1.1710   -0.3060    1.3470 h1        1 G15      0.097700
     33 H271        0.9650    0.6680   -3.1580 h1        1 G15      0.066450
     34 H272        0.2450   -0.9950   -2.9190 h1        1 G15      0.066450
     35 H281        1.2950   -2.2090   -0.4910 h1        1 G15      0.066450
     36 H282        2.5570   -1.1010    0.2500 h1        1 G15      0.066450
     37 H291        3.1950   -0.2740   -3.5990 h1        1 G15      0.061450
     38 H292        1.9890   -1.2780   -4.5600 h1        1 G15      0.061450
     39 H301        4.0900   -1.3910   -1.5610 h1        1 G15      0.061450
     40 H302        3.4010   -3.0650   -1.2300 h1        1 G15      0.061450
     41 H241       -1.3040    1.5190    0.8740 hc        1 G15      0.066367
     42 H242       -0.9320    0.5950    2.4000 hc        1 G15      0.066367
     43 H243       -1.2410   -0.2950    0.8470 hc        1 G15      0.066367
     44 H211        0.0840    3.1930    2.3050 h1        1 G15      0.097200
     45 H212        0.4660    3.3310    0.5190 h1        1 G15      0.097200
     46 H181        2.3120    4.6880    0.9850 hc        1 G15      0.089700
     47 H182        1.7990    4.7210    2.7220 hc        1 G15      0.089700
     48 H16         3.3650    3.1120    3.4020 hx        1 G15      0.148700
     49 H13         5.0770    2.5540    1.6250 hn        1 G15      0.468300
     50 H3          9.9400    3.3070    2.8160 hn        1 G15      0.367700
     51 H5         11.1770    2.0700    1.1210 ha        1 G15      0.160000
     52 H9         12.4390    1.7160   -1.1440 ha        1 G15      0.189000
     53 H132        4.4120    3.7490    0.7100 hn        1 G15      0.468300
@<TRIPOS>BOND
     1    1    2 2   
     2    2    3 1   
     3    2    9 1   
     4    3    4 1   
     5    3    8 1   
     6    4    5 1   
     7    4   33 1   
     8    4   34 1   
     9    5    6 1   
    10    5   37 1   
    11    5   38 1   
    12    6    7 1   
    13    7    8 1   
    14    7   39 1   
    15    7   40 1   
    16    8   35 1   
    17    8   36 1   
    18    9   10 1   
    19    9   11 1   
    20    9   32 1   
    21   10   41 1   
    22   10   42 1   
    23   10   43 1   
    24   11   12 1   
    25   11   14 1   
    26   12   13 1   
    27   12   44 1   
    28   12   45 1   
    29   13   16 1   
    30   13   46 1   
    31   13   47 1   
    32   14   15 2   
    33   14   16 1   
    34   16   17 1   
    35   16   48 1   
    36   17   18 1   
    37   17   49 1   
    38   17   53 1   
    39   18   19 2   
    40   18   20 2   
    41   18   21 1   
    42   21   22 2   
    43   21   24 1   
    44   22   23 1   
    45   23   25 1   
    46   23   50 1   
    47   24   25 2   
    48   25   26 1   
    49   26   27 2   
    50   26   30 1   
    51   27   28 1   
    52   27   51 1   
    53   28   29 2   
    54   28   52 1   
    55   29   30 1   
    56   29   31 1   
@<TRIPOS>SUBSTRUCTURE
     1 G15         1 TEMP              0 ****  ****    0 ROOT
