@<TRIPOS>MOLECULE
G15
   53    56     1     0     0
SMALL
bcc


@<TRIPOS>ATOM
      1 O26         0.3160    1.7120   -1.1800 o         1 G15     -0.613100
      2 C23         0.8050    0.7110   -0.6150 c         1 G15      0.629100
      3 N25         1.4280   -0.2790   -1.3420 n         1 G15     -0.455800
      4 C27         1.1820   -0.3570   -2.7720 c3        1 G15      0.049000
      5 C29         2.3490   -0.9700   -3.5520 c3        1 G15      0.116900
      6 O31         2.7790   -2.1940   -2.9680 os        1 G15     -0.397600
      7 C30         3.1860   -2.0250   -1.6200 c3        1 G15      0.116900
      8 C28         2.0800   -1.4190   -0.7390 c3        1 G15      0.049000
      9 C22         0.7090    0.6200    0.9340 c3        1 G15      0.049700
     10 C24        -0.7800    0.5910    1.2800 c3        1 G15     -0.106100
     11 N19         1.4180    1.7170    1.5580 n         1 G15     -0.426800
     12 C21         0.8920    3.0760    1.5430 c3        1 G15      0.072000
     13 C18         2.0610    4.0260    1.8880 c3        1 G15     -0.110400
     14 C17         2.7610    1.6800    1.8460 c         1 G15      0.681500
     15 O20         3.5400    0.7160    1.8050 o         1 G15     -0.616500
     16 C16         3.2290    3.1040    2.2850 c3        1 G15      0.012500
     17 N13         4.5430    3.4300    1.6870 n4        1 G15     -0.689900
     18 S11         5.5080    4.7460    2.6360 sy        1 G15      1.446800
     19 O14         5.1340    4.5510    3.9420 o         1 G15     -0.554300
     20 O15         5.1570    5.8820    1.9510 o         1 G15     -0.554300
     21 C7          6.9950    4.1720    2.2720 cc        1 G15      0.097900
     22 N2          8.0280    3.9160    3.1580 nd        1 G15     -0.320800
     23 N3          9.0430    3.5560    2.4240 na        1 G15     -0.094400
     24 N1          7.3990    3.9360    0.9310 nc        1 G15     -0.642000
     25 C1          8.6940    3.5520    1.0310 cd        1 G15      0.588000
     26 C2          9.6110    3.2010   -0.0100 cd        1 G15     -0.283600
     27 C5         10.8020    2.4920    0.1690 cc        1 G15     -0.093000
     28 C9         11.4860    2.3070   -1.0550 cc        1 G15     -0.150000
     29 C10        10.7900    2.8830   -2.1180 cd        1 G15     -0.021700
     30 S6          9.3750    3.6060   -1.6150 ss        1 G15      0.209200
     31 CL         11.2980    2.8600   -3.7030 cl        1 G15      0.027600
     32 H22         1.1820   -0.3290    1.3300 h1        1 G15      0.097700
     33 H271        0.2630   -0.9890   -2.9430 h1        1 G15      0.066450
     34 H272        0.9790    0.6780   -3.1690 h1        1 G15      0.066450
     35 H281        2.5710   -1.1110    0.2290 h1        1 G15      0.066450
     36 H282        1.3130   -2.2170   -0.5220 h1        1 G15      0.066450
     37 H291        2.0100   -1.2550   -4.5830 h1        1 G15      0.061700
     38 H292        3.2120   -0.2560   -3.6130 h1        1 G15      0.061700
     39 H301        3.4220   -3.0630   -1.2640 h1        1 G15      0.061700
     40 H302        4.1070   -1.3850   -1.5820 h1        1 G15      0.061700
     41 H241       -1.3020    1.4880    0.8660 hc        1 G15      0.066367
     42 H242       -0.9280    0.5550    2.3860 hc        1 G15      0.066367
     43 H243       -1.2300   -0.3260    0.8260 hc        1 G15      0.066367
     44 H211        0.0750    3.1580    2.3120 h1        1 G15      0.097200
     45 H212        0.4590    3.3110    0.5280 h1        1 G15      0.097200
     46 H181        1.7820    4.6910    2.7430 hc        1 G15      0.090200
     47 H182        2.2970    4.6740    1.0060 hc        1 G15      0.090200
     48 H16         3.3570    3.0860    3.4110 hx        1 G15      0.148700
     49 H13         5.0730    2.5500    1.6320 hn        1 G15      0.468300
     50 H3          9.9320    3.3240    2.8260 hn        1 G15      0.367700
     51 H5         11.1760    2.1070    1.1210 ha        1 G15      0.160000
     52 H9         12.4390    1.7780   -1.1470 ha        1 G15      0.189000
     53 H132        4.4020    3.7480    0.7250 hn        1 G15      0.468300
@<TRIPOS>BOND
     1    1    2 2   
     2    2    3 1   
     3    2    9 1   
     4    3    4 1   
     5    3    8 1   
     6    4    5 1   
     7    4   33 1   
     8    4   34 1   
     9    5    6 1   
    10    5   37 1   
    11    5   38 1   
    12    6    7 1   
    13    7    8 1   
    14    7   39 1   
    15    7   40 1   
    16    8   35 1   
    17    8   36 1   
    18    9   10 1   
    19    9   11 1   
    20    9   32 1   
    21   10   41 1   
    22   10   42 1   
    23   10   43 1   
    24   11   12 1   
    25   11   14 1   
    26   12   13 1   
    27   12   44 1   
    28   12   45 1   
    29   13   16 1   
    30   13   46 1   
    31   13   47 1   
    32   14   15 2   
    33   14   16 1   
    34   16   17 1   
    35   16   48 1   
    36   17   18 1   
    37   17   49 1   
    38   17   53 1   
    39   18   19 2   
    40   18   20 2   
    41   18   21 1   
    42   21   22 2   
    43   21   24 1   
    44   22   23 1   
    45   23   25 1   
    46   23   50 1   
    47   24   25 2   
    48   25   26 1   
    49   26   27 2   
    50   26   30 1   
    51   27   28 1   
    52   27   51 1   
    53   28   29 2   
    54   28   52 1   
    55   29   30 1   
    56   29   31 1   
@<TRIPOS>SUBSTRUCTURE
     1 G15         1 TEMP              0 ****  ****    0 ROOT
