@<TRIPOS>MOLECULE
G15
   52    49     1     0     0
SMALL
bcc


@<TRIPOS>ATOM
      1 O26         2.2160   -2.7030    2.7010 o         1 G15     -0.369000
      2 C23         1.9450   -2.9850    1.5410 c1        1 G15      0.273000
      3 N25         2.2830   -4.2840    1.0160 n2        1 G15     -0.332000
      4 C27         2.9330   -5.2830    1.7810 c3        1 G15     -0.058500
      5 C29         2.2020   -6.6170    1.7190 c3        1 G15     -0.038000
      6 O31         1.9320   -7.0220    0.3800 os        1 G15     -0.265000
      7 C30         1.2770   -6.0000   -0.3780 c3        1 G15     -0.038000
      8 C28         2.0090   -4.6710   -0.3050 c3        1 G15     -0.058500
      9 C22         1.2790   -1.9620    0.6500 c3        1 G15      0.034000
     10 C24         2.2820   -1.4620   -0.3840 c3        1 G15     -0.220000
     11 N19         0.8170   -0.8650    1.4410 n         1 G15     -0.298000
     12 C21        -0.6620   -0.4940    1.7080 c3        1 G15     -0.045000
     13 C18        -0.6310    0.5710    2.4160 c3        1 G15     -0.184000
     14 C17         1.6630    0.3640    1.8940 c2        1 G15      0.294000
     15 O20         2.8520    0.4670    1.8220 o         1 G15     -0.330000
     16 C16         0.7900    1.3690    2.0330 c3        1 G15      0.028000
     17 N13         0.6880    2.2500    0.8380 n3        1 G15     -0.883000
     18 S11        -0.1930    3.7340    0.9270 s4        1 G15      2.103800
     19 O14         0.7020    4.8760    0.9360 o         1 G15     -0.520900
     20 O15        -0.8350    3.8780    2.1780 o         1 G15     -0.520900
     21 C7         -1.3530    3.8340   -0.4080 c1        1 G15     -0.770000
     22 N2         -1.9230    2.7950   -1.0290 n2        1 G15      0.011000
     23 N3         -2.7440    3.2800   -1.9860 n2        1 G15     -0.151000
     24 N1         -1.8180    4.9680   -0.9760 n2        1 G15     -0.082000
     25 C1         -2.6770    4.6200   -1.9510 c2        1 G15      0.040000
     26 C2         -3.4540    5.5210   -2.7510 c2        1 G15     -0.369000
     27 C5         -3.0310    6.1400   -4.0040 c1        1 G15     -0.134000
     28 C9         -4.2600    6.9520   -4.5990 c1        1 G15     -0.150000
     29 C10        -5.3830    6.8040   -3.6980 c1        1 G15     -0.404000
     30 S6         -4.9280    5.9060   -2.5080 ss        1 G15      0.738000
     31 CL         -6.9990    7.3590   -3.9920 cl        1 G15      0.062000
     32 H22         0.4710   -2.4000    0.1660 h1        1 G15      0.106000
     33 H271        3.8950   -5.4100    1.4220 h1        1 G15      0.100500
     34 H272        2.9770   -4.9900    2.7070 h1        1 G15      0.100500
     35 H281        1.4550   -3.9790   -0.7310 h1        1 G15      0.100500
     36 H282        2.8480   -4.7470   -0.7900 h1        1 G15      0.100500
     37 H291        1.4000   -6.5400    2.1770 h1        1 G15      0.097000
     38 H292        2.7490   -7.2980    2.1510 h1        1 G15      0.097000
     39 H301        1.2300   -6.2840   -1.3180 h1        1 G15      0.097000
     40 H302        0.3410   -5.8790   -0.0250 h1        1 G15      0.097000
     41 H241        3.1740   -1.7250   -0.1210 hc        1 G15      0.100667
     42 H242        2.2340   -0.4780   -0.4430 hc        1 G15      0.100667
     43 H243        2.0690   -1.8550   -1.2660 hc        1 G15      0.100667
     44 H211       -1.1200   -0.3240    0.8690 h1        1 G15      0.096500
     45 H212       -1.1230   -1.2340    2.2130 h1        1 G15      0.096500
     46 H181       -0.6380    0.3420    3.3590 hc        1 G15      0.120500
     47 H182       -1.4040    1.1400    2.2030 hc        1 G15      0.120500
     48 H16         1.0610    2.0050    2.7330 h1        1 G15      0.126000
     49 H13         1.0350    1.9720    0.0320 hn        1 G15      0.269000
     50 H3         -3.2200    2.8160   -2.5160 DU        1 G15      0.203333
     51 H5         -2.1540    6.0670   -4.4040 DU        1 G15      0.203333
     52 H9         -4.2580    7.4620   -5.4280 DU        1 G15      0.203333
@<TRIPOS>BOND
     1    1    2 1   
     2    2    9 1   
     3    3    4 1   
     4    3    8 1   
     5    4    5 1   
     6    4   33 1   
     7    4   34 1   
     8    5    6 1   
     9    5   37 1   
    10    5   38 1   
    11    6    7 1   
    12    7    8 1   
    13    7   39 1   
    14    7   40 1   
    15    8   35 1   
    16    8   36 1   
    17    9   10 1   
    18    9   11 1   
    19    9   32 1   
    20   10   41 1   
    21   10   42 1   
    22   10   43 1   
    23   11   12 1   
    24   11   14 1   
    25   12   13 1   
    26   12   44 1   
    27   12   45 1   
    28   13   16 1   
    29   13   46 1   
    30   13   47 1   
    31   14   15 1   
    32   14   16 1   
    33   16   17 1   
    34   16   48 1   
    35   17   18 1   
    36   17   49 1   
    37   18   19 1   
    38   18   20 1   
    39   21   22 1   
    40   21   24 1   
    41   22   23 1   
    42   23   25 1   
    43   24   25 1   
    44   25   26 1   
    45   26   27 1   
    46   26   30 1   
    47   27   28 1   
    48   28   29 1   
    49   29   30 1   
@<TRIPOS>SUBSTRUCTURE
     1 G15         1 TEMP              0 ****  ****    0 ROOT
