@<TRIPOS>MOLECULE
G15
   52    55     1     0     0
SMALL
bcc


@<TRIPOS>ATOM
      1 O26         2.7110   -6.1530   -2.5920 o         1 G15     -0.617100
      2 C23         1.9460   -5.1670   -2.5410 c         1 G15      0.639100
      3 N25         1.0060   -4.9560   -3.5290 n         1 G15     -0.467800
      4 C27         1.0050   -5.7830   -4.7180 c3        1 G15      0.051500
      5 C29        -0.3940   -6.2710   -5.1140 c3        1 G15      0.110900
      6 O31        -1.3280   -5.1990   -5.1620 os        1 G15     -0.411600
      7 C30        -1.4100   -4.5060   -3.9230 c3        1 G15      0.110900
      8 C28        -0.0450   -3.9700   -3.4590 c3        1 G15      0.051500
      9 C22         2.0960   -4.1570   -1.3690 c3        1 G15      0.064700
     10 C24         3.5910   -3.8530   -1.2400 c3        1 G15     -0.104100
     11 N19         1.5030   -4.6760   -0.1680 n         1 G15     -0.476800
     12 C21         2.0880   -5.7830    0.5650 c3        1 G15      0.084000
     13 C18         1.0860   -6.1800    1.6630 c3        1 G15     -0.107400
     14 C17         0.2680   -4.2930    0.3340 c         1 G15      0.678500
     15 O20        -0.4450   -3.3990   -0.1440 o         1 G15     -0.629500
     16 C16        -0.0570   -5.1340    1.6030 c3        1 G15      0.172500
     17 N13        -1.3750   -5.6840    1.5890 n3        1 G15     -0.891100
     18 S11        -2.5350   -5.3070    2.6520 sy        1 G15      1.477800
     19 O14        -2.0020   -4.5480    3.7030 o         1 G15     -0.635800
     20 O15        -3.2500   -6.4580    3.0000 o         1 G15     -0.635800
     21 C7         -3.5760   -4.3230    1.7080 cc        1 G15      0.267900
     22 N2         -4.0120   -3.0600    2.0200 nd        1 G15     -0.391800
     23 N3         -4.8030   -2.7050    1.0260 na        1 G15     -0.121400
     24 N1         -4.1000   -4.7700    0.4810 nc        1 G15     -0.629000
     25 C1         -4.8770   -3.7400    0.0550 cd        1 G15      0.511000
     26 C2         -5.6660   -3.6610   -1.1440 cd        1 G15     -0.205600
     27 C5         -6.2280   -2.5040   -1.6740 cc        1 G15     -0.131000
     28 C9         -6.9490   -2.7740   -2.8670 cc        1 G15     -0.150000
     29 C10        -6.9010   -4.1250   -3.1910 cd        1 G15     -0.050700
     30 S6         -6.0140   -5.0020   -2.0790 ss        1 G15      0.186200
     31 CL         -7.6330   -4.8100   -4.5270 cl        1 G15     -0.014400
     32 H22         1.5680   -3.1840   -1.6080 h1        1 G15      0.090700
     33 H271        1.6710   -6.6780   -4.5600 h1        1 G15      0.068700
     34 H272        1.4240   -5.1710   -5.5680 h1        1 G15      0.068700
     35 H281        0.2400   -3.0990   -4.1170 h1        1 G15      0.068700
     36 H282       -0.1810   -3.5960   -2.4040 h1        1 G15      0.068700
     37 H291       -0.3770   -6.6750   -6.1600 h1        1 G15      0.057200
     38 H292       -0.7600   -7.0580   -4.4040 h1        1 G15      0.057200
     39 H301       -1.8510   -5.1830   -3.1440 h1        1 G15      0.057200
     40 H302       -2.1030   -3.6480   -4.1260 h1        1 G15      0.057200
     41 H241        4.1720   -4.7920   -1.0670 hc        1 G15      0.056033
     42 H242        3.9430   -3.3870   -2.1910 hc        1 G15      0.056033
     43 H243        3.7750   -3.1450   -0.3970 hc        1 G15      0.056033
     44 H211        3.0660   -5.4560    1.0170 h1        1 G15      0.063700
     45 H212        2.2960   -6.6380   -0.1370 h1        1 G15      0.063700
     46 H181        0.7150   -7.2190    1.4850 hc        1 G15      0.070200
     47 H182        1.5720   -6.1540    2.6680 hc        1 G15      0.070200
     48 H16         0.0340   -4.4290    2.4860 h1        1 G15      0.114700
     49 H13        -1.5520   -6.2900    0.8220 hn        1 G15      0.458800
     50 H3         -5.2480   -1.8150    1.0020 hn        1 G15      0.337700
     51 H5         -6.1340   -1.5020   -1.2510 ha        1 G15      0.154000
     52 H9         -7.4680   -2.0080   -3.4480 ha        1 G15      0.171000
@<TRIPOS>BOND
     1    1    2 2   
     2    2    3 1   
     3    2    9 1   
     4    3    4 1   
     5    3    8 1   
     6    4    5 1   
     7    4   33 1   
     8    4   34 1   
     9    5    6 1   
    10    5   37 1   
    11    5   38 1   
    12    6    7 1   
    13    7    8 1   
    14    7   39 1   
    15    7   40 1   
    16    8   35 1   
    17    8   36 1   
    18    9   10 1   
    19    9   11 1   
    20    9   32 1   
    21   10   41 1   
    22   10   42 1   
    23   10   43 1   
    24   11   12 1   
    25   11   14 1   
    26   12   13 1   
    27   12   44 1   
    28   12   45 1   
    29   13   16 1   
    30   13   46 1   
    31   13   47 1   
    32   14   15 2   
    33   14   16 1   
    34   16   17 1   
    35   16   48 1   
    36   17   18 1   
    37   17   49 1   
    38   18   19 2   
    39   18   20 2   
    40   18   21 1   
    41   21   22 2   
    42   21   24 1   
    43   22   23 1   
    44   23   25 1   
    45   23   50 1   
    46   24   25 2   
    47   25   26 1   
    48   26   27 2   
    49   26   30 1   
    50   27   28 1   
    51   27   51 1   
    52   28   29 2   
    53   28   52 1   
    54   29   30 1   
    55   29   31 1   
@<TRIPOS>SUBSTRUCTURE
     1 G15         1 TEMP              0 ****  ****    0 ROOT
