@<TRIPOS>MOLECULE
G15
   53    56     1     0     0
SMALL
bcc


@<TRIPOS>ATOM
      1 O26         0.3170    1.6420   -1.1940 o         1 G15     -0.613100
      2 C23         0.8000    0.6770   -0.5640 c         1 G15      0.629100
      3 N25         1.4210   -0.3600   -1.2240 n         1 G15     -0.455800
      4 C27         1.1790   -0.5290   -2.6470 c3        1 G15      0.049000
      5 C29         2.3460   -1.1960   -3.3820 c3        1 G15      0.116900
      6 O31         2.7680   -2.3820   -2.7190 os        1 G15     -0.397600
      7 C30         3.1710   -2.1290   -1.3830 c3        1 G15      0.116900
      8 C28         2.0650   -1.4630   -0.5470 c3        1 G15      0.049000
      9 C22         0.6990    0.6860    0.9870 c3        1 G15      0.049700
     10 C24        -0.7910    0.6870    1.3290 c3        1 G15     -0.106100
     11 N19         1.4110    1.8170    1.5420 n         1 G15     -0.426800
     12 C21         0.8940    3.1750    1.4370 c3        1 G15      0.072000
     13 C18         2.0670    4.1390    1.7240 c3        1 G15     -0.110400
     14 C17         2.7540    1.7910    1.8370 c         1 G15      0.681500
     15 O20         3.5270    0.8220    1.8620 o         1 G15     -0.616500
     16 C16         3.2280    3.2380    2.1850 c3        1 G15      0.012500
     17 N13         4.5470    3.5170    1.5730 n4        1 G15     -0.689900
     18 S11         5.5160    4.8860    2.4390 sy        1 G15      1.446800
     19 O14         5.1330    4.7800    3.7530 o         1 G15     -0.554300
     20 O15         5.1780    5.9760    1.6790 o         1 G15     -0.554300
     21 C7          7.0010    4.2780    2.1230 cc        1 G15      0.097900
     22 N2          8.0260    4.0740    3.0310 nd        1 G15     -0.320800
     23 N3          9.0430    3.6590    2.3280 na        1 G15     -0.094400
     24 N1          7.4110    3.9520    0.8030 nc        1 G15     -0.642000
     25 C1          8.7020    3.5660    0.9370 cd        1 G15      0.588000
     26 C2          9.6230    3.1400   -0.0730 cd        1 G15     -0.283600
     27 C5         10.8060    2.4350    0.1600 cc        1 G15     -0.093000
     28 C9         11.4960    2.1650   -1.0450 cc        1 G15     -0.150000
     29 C10        10.8120    2.6760   -2.1480 cd        1 G15     -0.021700
     30 S6          9.4000    3.4420   -1.7030 ss        1 G15      0.209200
     31 CL         11.3300    2.5470   -3.7250 cl        1 G15      0.027600
     32 H22         1.1650   -0.2380    1.4440 h1        1 G15      0.097700
     33 H271        0.2580   -1.1660   -2.7800 h1        1 G15      0.066450
     34 H272        0.9830    0.4800   -3.1100 h1        1 G15      0.066450
     35 H281        1.2930   -2.2420   -0.2820 h1        1 G15      0.066450
     36 H282        2.5540   -1.0950    0.4010 h1        1 G15      0.066450
     37 H291        2.0090   -1.5440   -4.3940 h1        1 G15      0.061700
     38 H292        3.2120   -0.4910   -3.4850 h1        1 G15      0.061700
     39 H301        4.0950   -1.4920   -1.3820 h1        1 G15      0.061700
     40 H302        3.4010   -3.1430   -0.9600 h1        1 G15      0.061700
     41 H241       -1.3070    1.5580    0.8570 hc        1 G15      0.066367
     42 H242       -1.2450   -0.2540    0.9330 hc        1 G15      0.066367
     43 H243       -0.9430    0.7230    2.4340 hc        1 G15      0.066367
     44 H211        0.0750    3.3110    2.1960 h1        1 G15      0.097200
     45 H212        0.4650    3.3470    0.4080 h1        1 G15      0.097200
     46 H181        1.7890    4.8600    2.5340 hc        1 G15      0.089700
     47 H182        2.3100    4.7270    0.8040 hc        1 G15      0.089700
     48 H16         3.3520    3.2920    3.3110 hx        1 G15      0.148700
     49 H13         4.4110    3.7740    0.5920 hn        1 G15      0.468300
     50 H3          9.9270    3.4470    2.7510 hn        1 G15      0.367700
     51 H5         11.1710    2.1090    1.1370 ha        1 G15      0.160000
     52 H9         12.4450    1.6230   -1.0960 ha        1 G15      0.189000
     53 H132        5.0710    2.6320    1.5770 hn        1 G15      0.468300
@<TRIPOS>BOND
     1    1    2 2   
     2    2    3 1   
     3    2    9 1   
     4    3    4 1   
     5    3    8 1   
     6    4    5 1   
     7    4   33 1   
     8    4   34 1   
     9    5    6 1   
    10    5   37 1   
    11    5   38 1   
    12    6    7 1   
    13    7    8 1   
    14    7   39 1   
    15    7   40 1   
    16    8   35 1   
    17    8   36 1   
    18    9   10 1   
    19    9   11 1   
    20    9   32 1   
    21   10   41 1   
    22   10   42 1   
    23   10   43 1   
    24   11   12 1   
    25   11   14 1   
    26   12   13 1   
    27   12   44 1   
    28   12   45 1   
    29   13   16 1   
    30   13   46 1   
    31   13   47 1   
    32   14   15 2   
    33   14   16 1   
    34   16   17 1   
    35   16   48 1   
    36   17   18 1   
    37   17   49 1   
    38   17   53 1   
    39   18   19 2   
    40   18   20 2   
    41   18   21 1   
    42   21   22 2   
    43   21   24 1   
    44   22   23 1   
    45   23   25 1   
    46   23   50 1   
    47   24   25 2   
    48   25   26 1   
    49   26   27 2   
    50   26   30 1   
    51   27   28 1   
    52   27   51 1   
    53   28   29 2   
    54   28   52 1   
    55   29   30 1   
    56   29   31 1   
@<TRIPOS>SUBSTRUCTURE
     1 G15         1 TEMP              0 ****  ****    0 ROOT
