@<TRIPOS>MOLECULE
G16
   30    30     1     0     0
SMALL
bcc


@<TRIPOS>ATOM
      1 C1          1.7750   -0.2960   -0.8200 c3        1 G16      0.383900
      2 C2          2.2530    1.1830   -0.8850 c3        1 G16      0.070100
      3 C3          1.7160    1.9330    0.3420 c3        1 G16      0.110100
      4 C4          0.1830    1.9130    0.3050 c3        1 G16      0.146100
      5 C5         -0.3400    0.4670    0.1670 c3        1 G16      0.108100
      6 C6         -1.8320    0.4740   -0.2710 c3        1 G16      0.197400
      7 O1          2.2330   -0.9640    0.2740 os        1 G16     -0.573200
      8 O2          3.6520    1.3440   -0.9630 oh        1 G16     -0.706800
      9 O3          2.1740    3.2880    0.3380 oh        1 G16     -0.639800
     10 O4         -0.2730    2.4970    1.5180 oh        1 G16     -0.656800
     11 O5          0.3450   -0.2910   -0.8290 os        1 G16     -0.458600
     12 O6         -2.6120    1.1870    0.6200 os        1 G16     -0.592200
     13 P          -4.2540    1.3630    0.1050 p5        1 G16      1.325900
     14 O1P        -4.1470    2.0330   -1.2430 o         1 G16     -0.947167
     15 O2P        -4.7950   -0.0440    0.0720 o         1 G16     -0.947167
     16 O3P        -4.8210    2.2340    1.2020 o         1 G16     -0.947167
     17 P'          3.5510   -2.0660    0.0230 p5        1 G16      1.332900
     18 O1X         3.5310   -2.9980    1.2010 o         1 G16     -0.931500
     19 O2X         3.2820   -2.6790   -1.3240 o         1 G16     -0.931500
     20 O3X         4.6990   -1.0740    0.0120 o         1 G16     -0.931500
     21 H1          2.0480   -0.8380   -1.7770 h2        1 G16      0.072700
     22 H2          1.8400    1.6570   -1.8190 h1        1 G16      0.021700
     23 H3          2.0840    1.4350    1.2810 h1        1 G16      0.066700
     24 H4         -0.1840    2.5370   -0.5560 h1        1 G16      0.029700
     25 H5         -0.2230   -0.0450    1.1590 h1        1 G16      0.045700
     26 H61        -1.9180    0.9300   -1.2960 h1        1 G16      0.011200
     27 H62        -2.1920   -0.5910   -0.3240 h1        1 G16      0.011200
     28 HO2         4.0640    0.5420   -0.5440 ho        1 G16      0.492000
     29 HO3         3.0920    3.2380    0.0420 ho        1 G16      0.384000
     30 HO4        -1.2250    2.3060    1.5700 ho        1 G16      0.453000
@<TRIPOS>BOND
     1    1    2 1   
     2    1    7 1   
     3    1   11 1   
     4    1   21 1   
     5    2    3 1   
     6    2    8 1   
     7    2   22 1   
     8    3    4 1   
     9    3    9 1   
    10    3   23 1   
    11    4    5 1   
    12    4   10 1   
    13    4   24 1   
    14    5    6 1   
    15    5   11 1   
    16    5   25 1   
    17    6   12 1   
    18    6   26 1   
    19    6   27 1   
    20    7   17 1   
    21    8   28 1   
    22    9   29 1   
    23   10   30 1   
    24   12   13 1   
    25   13   14 1   
    26   13   15 1   
    27   13   16 1   
    28   17   18 1   
    29   17   19 1   
    30   17   20 1   
@<TRIPOS>SUBSTRUCTURE
     1 G16         1 TEMP              0 ****  ****    0 ROOT
