@<TRIPOS>MOLECULE
G17
   57    61     1     0     0
SMALL
bcc


@<TRIPOS>ATOM
      1 FBF        -1.0890    3.7030    0.3740 f         1 G17     -0.215967
      2 CBE        -0.7330    2.4990   -0.1790 c3        1 G17      0.692200
      3 FBG        -0.7060    1.6150    0.8660 f         1 G17     -0.215967
      4 FBH        -1.8170    2.1290   -0.9350 f         1 G17     -0.215967
      5 CAW         0.5690    2.5540   -0.9850 ca        1 G17     -0.166300
      6 CAV         0.8840    3.7200   -1.6840 ca        1 G17     -0.007000
      7 CAX         1.4200    1.4480   -1.0230 ca        1 G17     -0.006000
      8 CAY         2.5980    1.5070   -1.7760 ca        1 G17     -0.117000
      9 CAZ         2.9180    2.6540   -2.4940 ca        1 G17     -0.074000
     10 CAU         2.0560    3.7630   -2.4550 ca        1 G17     -0.208600
     11 CAT         2.3570    5.0170   -3.1460 c         1 G17      0.588700
     12 OBA         2.2080    6.1660   -2.7620 o         1 G17     -0.415100
     13 NAS         2.9210    4.8790   -4.5630 n4        1 G17     -0.547200
     14 CAP         1.9230    5.2370   -5.5760 ca        1 G17     -0.067400
     15 CAQ         1.5730    6.5850   -5.7620 ca        1 G17     -0.075000
     16 CAO         1.3360    4.2310   -6.3650 ca        1 G17     -0.081000
     17 CAN         0.4100    4.5900   -7.3350 ca        1 G17     -0.111000
     18 CAM         0.0510    5.9310   -7.5450 ca        1 G17      0.013700
     19 CAR        -0.9500    6.2550   -8.5850 c3        1 G17     -0.083800
     20 CAL         0.6430    6.9300   -6.7480 cp        1 G17     -0.050000
     21 CAI         0.3100    8.3490   -6.9390 cp        1 G17     -0.025000
     22 CAH        -0.5150    9.0130   -6.0490 ca        1 G17     -0.074000
     23 CAJ         0.8520    9.0420   -8.0540 ca        1 G17     -0.081000
     24 CAK         0.5740   10.3700   -8.2780 ca        1 G17     -0.148300
     25 C4         -0.2830   11.0760   -7.3780 ca        1 G17      0.422600
     26 N3         -0.5800   12.4110   -7.5970 nb        1 G17     -0.634000
     27 C5         -0.8260   10.3740   -6.2550 ca        1 G17     -0.249600
     28 C6         -1.6840   11.1230   -5.3760 ca        1 G17      0.504200
     29 N1         -1.9780   12.3990   -5.5670 nb        1 G17     -0.678000
     30 C2         -1.3910   12.9880   -6.6960 ca        1 G17      0.717900
     31 NAG        -1.7310   14.4300   -6.9110 n4        1 G17     -0.704700
     32 CBD        -2.8860   14.5720   -7.8200 cx        1 G17     -0.005500
     33 CBC        -3.7390   15.8250   -7.7650 cx        1 G17     -0.095400
     34 CBB        -4.3060   14.5230   -7.2940 cx        1 G17     -0.095400
     35 H1          0.2200    4.6000   -1.6200 ha        1 G17      0.177000
     36 H2          1.1670    0.5350   -0.4510 ha        1 G17      0.192000
     37 H3          3.2790    0.6380   -1.7920 ha        1 G17      0.181000
     38 H4          3.8690    2.6860   -3.0500 ha        1 G17      0.141000
     39 H5          3.7260    5.5120   -4.6640 hn        1 G17      0.464300
     40 H6          2.0190    7.3760   -5.1340 ha        1 G17      0.167000
     41 H7          1.5960    3.1670   -6.2340 ha        1 G17      0.163000
     42 H8         -0.0530    3.8030   -7.9570 ha        1 G17      0.180000
     43 H9         -0.7400    7.2500   -9.0520 hc        1 G17      0.074700
     44 H10        -1.9730    6.2900   -8.1270 hc        1 G17      0.074700
     45 H11        -0.9590    5.4800   -9.3930 hc        1 G17      0.074700
     46 H12        -0.9460    8.4920   -5.1770 ha        1 G17      0.162000
     47 H13         1.5100    8.4970   -8.7530 ha        1 G17      0.169000
     48 H14         1.0040   10.8980   -9.1470 ha        1 G17      0.184000
     49 H15        -2.1390   10.6410   -4.4850 h4        1 G17      0.069100
     50 H16        -0.9200   14.9110   -7.3290 hn        1 G17      0.476300
     51 H17        -2.6510   14.1090   -8.8070 hx        1 G17      0.152700
     52 H18        -3.5220   16.6170   -7.0220 hc        1 G17      0.115700
     53 H19        -4.0670   16.2560   -8.7320 hc        1 G17      0.115700
     54 H20        -5.0580   13.9920   -7.9110 hc        1 G17      0.115700
     55 H21        -4.4910   14.3750   -6.2120 hc        1 G17      0.115700
     56 HAS2        3.2290    3.9130   -4.7210 hn        1 G17      0.464300
     57 HAG2       -1.9440   14.8600   -5.9980 hn        1 G17      0.476300
@<TRIPOS>BOND
     1    1    2 1   
     2    2    3 1   
     3    2    4 1   
     4    2    5 1   
     5    5    6 ar  
     6    5    7 ar  
     7    6   10 ar  
     8    6   35 1   
     9    7    8 ar  
    10    7   36 1   
    11    8    9 ar  
    12    8   37 1   
    13    9   10 ar  
    14    9   38 1   
    15   10   11 1   
    16   11   12 2   
    17   11   13 1   
    18   13   14 1   
    19   13   39 1   
    20   13   56 1   
    21   14   15 ar  
    22   14   16 ar  
    23   15   20 ar  
    24   15   40 1   
    25   16   17 ar  
    26   16   41 1   
    27   17   18 ar  
    28   17   42 1   
    29   18   19 1   
    30   18   20 ar  
    31   19   43 1   
    32   19   44 1   
    33   19   45 1   
    34   20   21 1   
    35   21   22 ar  
    36   21   23 ar  
    37   22   27 ar  
    38   22   46 1   
    39   23   24 ar  
    40   23   47 1   
    41   24   25 ar  
    42   24   48 1   
    43   25   26 ar  
    44   25   27 ar  
    45   26   30 ar  
    46   27   28 ar  
    47   28   29 ar  
    48   28   49 1   
    49   29   30 ar  
    50   30   31 1   
    51   31   32 1   
    52   31   50 1   
    53   31   57 1   
    54   32   33 1   
    55   32   34 1   
    56   32   51 1   
    57   33   34 1   
    58   33   52 1   
    59   33   53 1   
    60   34   54 1   
    61   34   55 1   
@<TRIPOS>SUBSTRUCTURE
     1 G17         1 TEMP              0 ****  ****    0 ROOT
