@<TRIPOS>MOLECULE
G17
   55    59     1     0     0
SMALL
bcc


@<TRIPOS>ATOM
      1 FBF        -7.3520   -1.4230    2.4850 f         1 G17     -0.233967
      2 CBE        -7.6860   -1.7860    1.2030 c3        1 G17      0.689200
      3 FBG        -8.0680   -3.1010    1.3130 f         1 G17     -0.233967
      4 FBH        -8.8600   -1.1160    0.9560 f         1 G17     -0.233967
      5 CAW        -6.5960   -1.5340    0.1680 ca        1 G17     -0.175300
      6 CAV        -5.6810   -0.4980    0.3640 ca        1 G17     -0.032000
      7 CAX        -6.5340   -2.3310   -0.9780 ca        1 G17     -0.062000
      8 CAY        -5.5500   -2.0870   -1.9350 ca        1 G17     -0.140000
      9 CAZ        -4.6260   -1.0590   -1.7460 ca        1 G17     -0.078000
     10 CAU        -4.6870   -0.2700   -0.5940 ca        1 G17     -0.151600
     11 CAT        -3.7350    0.8610   -0.3600 c         1 G17      0.678700
     12 OBA        -4.1410    1.9560    0.0680 o         1 G17     -0.574100
     13 NAS        -2.4040    0.5930   -0.6450 n         1 G17     -0.466100
     14 CAP        -1.3110    1.4620   -0.4780 ca        1 G17      0.060600
     15 CAQ        -0.0080    0.9280   -0.5880 ca        1 G17     -0.171000
     16 CAO        -1.4530    2.8440   -0.2290 ca        1 G17     -0.143000
     17 CAN        -0.3240    3.6410   -0.0970 ca        1 G17     -0.109000
     18 CAM         0.9690    3.1160   -0.2000 ca        1 G17     -0.084300
     19 CAR         2.1290    4.0260   -0.0510 c3        1 G17     -0.054800
     20 CAL         1.1220    1.7420   -0.4470 cp        1 G17     -0.013000
     21 CAI         2.4400    1.1130   -0.5670 cp        1 G17     -0.061000
     22 CAH         3.4020    1.2580    0.4130 ca        1 G17     -0.063000
     23 CAJ         2.7250    0.3150   -1.7100 ca        1 G17     -0.089000
     24 CAK         3.9340   -0.3110   -1.8670 ca        1 G17     -0.193300
     25 C4          4.9500   -0.1780   -0.8650 ca        1 G17      0.461600
     26 N3          6.1620   -0.8100   -1.0130 nb        1 G17     -0.757000
     27 C5          4.6540    0.6210    0.2820 ca        1 G17     -0.315600
     28 C6          5.6930    0.7170    1.2680 ca        1 G17      0.482200
     29 N1          6.8670    0.1330    1.1550 nb        1 G17     -0.714000
     30 C2          7.0860   -0.6220   -0.0270 ca        1 G17      0.867900
     31 NAG         8.3760   -1.1520   -0.2430 nh        1 G17     -0.785900
     32 CBD         9.2200   -1.4340    0.8700 cx        1 G17      0.154500
     33 CBC        10.3910   -2.3860    0.7180 cx        1 G17     -0.149900
     34 CBB         9.2350   -2.7710    1.5920 cx        1 G17     -0.149900
     35 H1         -5.7400    0.1430    1.2610 ha        1 G17      0.174000
     36 H2         -7.2610   -3.1470   -1.1180 ha        1 G17      0.157000
     37 H3         -5.5050   -2.7060   -2.8430 ha        1 G17      0.149000
     38 H4         -3.8650   -0.8660   -2.5180 ha        1 G17      0.146000
     39 H5         -2.1730   -0.3430   -0.8950 hn        1 G17      0.318500
     40 H6          0.1420   -0.1460   -0.7810 ha        1 G17      0.133000
     41 H7         -2.4520    3.3010   -0.1350 ha        1 G17      0.173000
     42 H8         -0.4530    4.7190    0.0930 ha        1 G17      0.138000
     43 H9          2.4030    4.1240    1.0300 hc        1 G17      0.047033
     44 H10         3.0210    3.6410   -0.6050 hc        1 G17      0.047033
     45 H11         1.8840    5.0450   -0.4410 hc        1 G17      0.047033
     46 H12         3.2040    1.8700    1.3080 ha        1 G17      0.141000
     47 H13         1.9460    0.2140   -2.4830 ha        1 G17      0.139000
     48 H14         4.1430   -0.9190   -2.7610 ha        1 G17      0.153000
     49 H15         5.5210    1.3070    2.1890 h4        1 G17      0.028100
     50 H16         8.4230   -1.8280   -0.9810 hn        1 G17      0.423800
     51 H17         9.3800   -0.5220    1.4900 h1        1 G17      0.116700
     52 H18        10.5420   -2.9250   -0.2340 hc        1 G17      0.076950
     53 H19        11.3510   -2.0960    1.1810 hc        1 G17      0.076950
     54 H20         9.3580   -2.7680    2.6890 hc        1 G17      0.076950
     55 H21         8.5650   -3.5830    1.2580 hc        1 G17      0.076950
@<TRIPOS>BOND
     1    1    2 1   
     2    2    3 1   
     3    2    4 1   
     4    2    5 1   
     5    5    6 ar  
     6    5    7 ar  
     7    6   10 ar  
     8    6   35 1   
     9    7    8 ar  
    10    7   36 1   
    11    8    9 ar  
    12    8   37 1   
    13    9   10 ar  
    14    9   38 1   
    15   10   11 1   
    16   11   12 2   
    17   11   13 1   
    18   13   14 1   
    19   13   39 1   
    20   14   15 ar  
    21   14   16 ar  
    22   15   20 ar  
    23   15   40 1   
    24   16   17 ar  
    25   16   41 1   
    26   17   18 ar  
    27   17   42 1   
    28   18   19 1   
    29   18   20 ar  
    30   19   43 1   
    31   19   44 1   
    32   19   45 1   
    33   20   21 1   
    34   21   22 ar  
    35   21   23 ar  
    36   22   27 ar  
    37   22   46 1   
    38   23   24 ar  
    39   23   47 1   
    40   24   25 ar  
    41   24   48 1   
    42   25   26 ar  
    43   25   27 ar  
    44   26   30 ar  
    45   27   28 ar  
    46   28   29 ar  
    47   28   49 1   
    48   29   30 ar  
    49   30   31 1   
    50   31   32 1   
    51   31   50 1   
    52   32   33 1   
    53   32   34 1   
    54   32   51 1   
    55   33   34 1   
    56   33   52 1   
    57   33   53 1   
    58   34   54 1   
    59   34   55 1   
@<TRIPOS>SUBSTRUCTURE
     1 G17         1 TEMP              0 ****  ****    0 ROOT
