@<TRIPOS>MOLECULE
G17
   55    59     1     0     0
SMALL
bcc


@<TRIPOS>ATOM
      1 FBF        -0.0860    1.1200    0.7440 f         1 G17     -0.233967
      2 CBE         1.2860    1.0830    0.7020 c3        1 G17      0.689200
      3 FBG         1.6720    1.4410    1.9710 f         1 G17     -0.233967
      4 FBH         1.5860   -0.2550    0.6250 f         1 G17     -0.233967
      5 CAW         1.9090    1.9260   -0.4050 ca        1 G17     -0.175300
      6 CAV         1.1980    2.1550   -1.5840 ca        1 G17     -0.032000
      7 CAX         3.1950    2.4450   -0.2360 ca        1 G17     -0.062000
      8 CAY         3.7740    3.1980   -1.2560 ca        1 G17     -0.140000
      9 CAZ         3.0700    3.4400   -2.4370 ca        1 G17     -0.078000
     10 CAU         1.7800    2.9250   -2.5970 ca        1 G17     -0.151600
     11 CAT         0.9980    3.1350   -3.8550 c         1 G17      0.678700
     12 OBA         0.3640    2.1990   -4.3740 o         1 G17     -0.574100
     13 NAS         1.0310    4.4210   -4.3750 n         1 G17     -0.466100
     14 CAP         0.3570    4.8910   -5.5160 ca        1 G17      0.060600
     15 CAQ         0.3170    6.2850   -5.7440 ca        1 G17     -0.171000
     16 CAO        -0.2620    4.0370   -6.4540 ca        1 G17     -0.143000
     17 CAN        -0.8920    4.5770   -7.5680 ca        1 G17     -0.109000
     18 CAM        -0.9380    5.9570   -7.7970 ca        1 G17     -0.084300
     19 CAR        -1.6250    6.4630   -9.0080 c3        1 G17     -0.054800
     20 CAL        -0.3260    6.8150   -6.8680 cp        1 G17     -0.013000
     21 CAI        -0.3310    8.2710   -7.0320 cp        1 G17     -0.061000
     22 CAH        -1.5040    8.9740   -7.2250 ca        1 G17     -0.063000
     23 CAJ         0.9020    8.9790   -6.9680 ca        1 G17     -0.089000
     24 CAK         0.9560   10.3430   -7.0980 ca        1 G17     -0.193300
     25 C4         -0.2460   11.0960   -7.2980 ca        1 G17      0.461600
     26 N3         -0.1990   12.4650   -7.4200 nb        1 G17     -0.757000
     27 C5         -1.4800   10.3780   -7.3550 ca        1 G17     -0.315600
     28 C6         -2.6620   11.1710   -7.5430 ca        1 G17      0.482200
     29 N1         -2.6530   12.4810   -7.6730 nb        1 G17     -0.714000
     30 C2         -1.3830   13.1120   -7.6270 ca        1 G17      0.867900
     31 NAG        -1.3220   14.4960   -7.8950 nh        1 G17     -0.785900
     32 CBD        -2.4600   15.3160   -7.6410 cx        1 G17      0.154500
     33 CBC        -2.3010   16.8170   -7.4940 cx        1 G17     -0.149900
     34 CBB        -2.7200   15.9990   -6.3090 cx        1 G17     -0.149900
     35 H1          0.1890    1.7310   -1.7250 ha        1 G17      0.174000
     36 H2          3.7430    2.2580    0.7020 ha        1 G17      0.157000
     37 H3          4.7910    3.6000   -1.1310 ha        1 G17      0.149000
     38 H4          3.5460    4.0220   -3.2420 ha        1 G17      0.146000
     39 H5          1.4930    5.1180   -3.8330 hn        1 G17      0.318500
     40 H6          0.7880    6.9810   -5.0330 ha        1 G17      0.133000
     41 H7         -0.2560    2.9440   -6.3130 ha        1 G17      0.173000
     42 H8         -1.3670    3.8970   -8.2930 ha        1 G17      0.138000
     43 H9         -2.7160    6.5990   -8.8010 hc        1 G17      0.047033
     44 H10        -1.5190    5.7390   -9.8540 hc        1 G17      0.047033
     45 H11        -1.2040    7.4470   -9.3310 hc        1 G17      0.047033
     46 H12        -2.4700    8.4470   -7.2760 ha        1 G17      0.141000
     47 H13         1.8280    8.4020   -6.8180 ha        1 G17      0.139000
     48 H14         1.9190   10.8760   -7.0540 ha        1 G17      0.153000
     49 H15        -3.6520   10.6780   -7.5790 h4        1 G17      0.028100
     50 H16        -0.4450   14.9200   -7.6610 hn        1 G17      0.423800
     51 H17        -3.3490   14.9480   -8.2040 h1        1 G17      0.116700
     52 H18        -1.2930   17.2680   -7.5010 hc        1 G17      0.076950
     53 H19        -3.0410   17.4620   -7.9990 hc        1 G17      0.076950
     54 H20        -3.7630   16.0560   -5.9500 hc        1 G17      0.076950
     55 H21        -2.0070   15.8670   -5.4760 hc        1 G17      0.076950
@<TRIPOS>BOND
     1    1    2 1   
     2    2    3 1   
     3    2    4 1   
     4    2    5 1   
     5    5    6 ar  
     6    5    7 ar  
     7    6   10 ar  
     8    6   35 1   
     9    7    8 ar  
    10    7   36 1   
    11    8    9 ar  
    12    8   37 1   
    13    9   10 ar  
    14    9   38 1   
    15   10   11 1   
    16   11   12 2   
    17   11   13 1   
    18   13   14 1   
    19   13   39 1   
    20   14   15 ar  
    21   14   16 ar  
    22   15   20 ar  
    23   15   40 1   
    24   16   17 ar  
    25   16   41 1   
    26   17   18 ar  
    27   17   42 1   
    28   18   19 1   
    29   18   20 ar  
    30   19   43 1   
    31   19   44 1   
    32   19   45 1   
    33   20   21 1   
    34   21   22 ar  
    35   21   23 ar  
    36   22   27 ar  
    37   22   46 1   
    38   23   24 ar  
    39   23   47 1   
    40   24   25 ar  
    41   24   48 1   
    42   25   26 ar  
    43   25   27 ar  
    44   26   30 ar  
    45   27   28 ar  
    46   28   29 ar  
    47   28   49 1   
    48   29   30 ar  
    49   30   31 1   
    50   31   32 1   
    51   31   50 1   
    52   32   33 1   
    53   32   34 1   
    54   32   51 1   
    55   33   34 1   
    56   33   52 1   
    57   33   53 1   
    58   34   54 1   
    59   34   55 1   
@<TRIPOS>SUBSTRUCTURE
     1 G17         1 TEMP              0 ****  ****    0 ROOT
