@<TRIPOS>MOLECULE
G17
   55    51     1     0     0
SMALL
bcc


@<TRIPOS>ATOM
      1 FBF         4.7500   -7.8110    2.1340 f         1 G17     -0.162333
      2 CBE         4.9980   -7.1870    3.2960 c3        1 G17      0.468000
      3 FBG         5.0240   -8.0870    4.2910 f         1 G17     -0.162333
      4 FBH         6.1870   -6.5650    3.2240 f         1 G17     -0.162333
      5 CAW         3.9020   -6.1590    3.5670 c1        1 G17     -0.168000
      6 CAV         3.1710   -5.6260    2.5090 c1        1 G17     -0.032000
      7 CAX         3.6350   -5.7530    4.8710 c1        1 G17     -0.101000
      8 CAY         2.6380   -4.8140    5.1170 c1        1 G17     -0.101000
      9 CAZ         1.9070   -4.2810    4.0600 c1        1 G17     -0.078000
     10 CAU         2.1730   -4.6860    2.7560 c1        1 G17     -0.131000
     11 CAT         1.3650   -4.1020    1.5900 c2        1 G17      0.352000
     12 OBA         1.5610   -4.4970    0.4560 o         1 G17     -0.335000
     13 NAS         0.3350   -3.1320    1.8450 n         1 G17     -0.320000
     14 CAP        -0.4650   -2.6280    0.7580 c2        1 G17      0.066000
     15 CAQ        -0.6410   -1.2560    0.6000 c2        1 G17     -0.167000
     16 CAO        -1.0640   -3.5140   -0.1350 c1        1 G17     -0.142000
     17 CAN        -1.8390   -3.0270   -1.1850 c1        1 G17     -0.110000
     18 CAM        -2.0160   -1.6550   -1.3420 c1        1 G17     -0.074000
     19 CAR        -2.8850   -1.1210   -2.4850 c3        1 G17     -0.178000
     20 CAL        -1.4170   -0.7690   -0.4500 c1        1 G17     -0.019000
     21 CAI        -1.5540    0.7410   -0.6630 c2        1 G17     -0.062000
     22 CAH        -0.5780    1.3690   -1.4280 c2        1 G17     -0.066000
     23 CAJ        -2.6290    1.4700   -0.1730 c1        1 G17     -0.086000
     24 CAK        -2.7300    2.8290   -0.4460 c1        1 G17     -0.128000
     25 C4         -1.7350    3.4700   -1.2260 c1        1 G17      0.068000
     26 N3         -1.8120    4.8120   -1.4620 n2        1 G17     -0.231000
     27 C5         -0.6800    2.7550   -1.7070 c1        1 G17     -0.184000
     28 C6          0.3140    3.3930   -2.4370 c2        1 G17      0.016000
     29 N1          0.2340    4.7180   -2.6680 n1        1 G17     -0.188000
     30 C2         -0.8300    5.4390   -2.1820 c1        1 G17      0.148000
     31 NAG        -1.4340    6.7150   -1.9710 n3        1 G17     -0.229000
     32 CBD        -0.7520    7.9100   -2.3840 cx        1 G17     -0.043000
     33 CBC        -1.6430    9.0960   -2.7220 cx        1 G17     -0.228000
     34 CBB        -0.9560    8.3200   -3.8350 cx        1 G17     -0.228000
     35 H1          3.3590   -5.9120    1.5900 ha        1 G17      0.174000
     36 H2          4.1510   -6.1290    5.6170 ha        1 G17      0.153000
     37 H3          2.4500   -4.5280    6.0380 ha        1 G17      0.153000
     38 H4          1.2050   -3.6200    4.2340 ha        1 G17      0.146000
     39 H5          0.1810   -2.8420    2.7000 hn        1 G17      0.233000
     40 H6         -0.2200   -0.6310    1.2290 ha        1 G17      0.134000
     41 H7         -0.9400   -4.4800   -0.0240 ha        1 G17      0.173000
     42 H8         -2.2620   -3.6520   -1.8140 ha        1 G17      0.138000
     43 H9         -3.6390   -0.6120   -2.1130 hc        1 G17      0.086333
     44 H10        -3.2290   -1.8750   -3.0150 hc        1 G17      0.086333
     45 H11        -2.3470   -0.5350   -3.0600 hc        1 G17      0.086333
     46 H12         0.1970    0.8610   -1.7480 ha        1 G17      0.140000
     47 H13        -3.2960    1.0350    0.4020 ha        1 G17      0.143000
     48 H14        -3.4900    3.3440   -0.1000 ha        1 G17      0.154000
     49 H15         1.0750    2.8800   -2.7840 h4        1 G17      0.165000
     50 H16        -2.2430    6.7740   -1.5450 hn        1 G17      0.218000
     51 H17         0.1230    8.1320   -1.9980 h1        1 G17      0.155000
     52 H18        -2.6080    8.9430   -2.6290 hc        1 G17      0.116250
     53 H19        -1.2670    9.9800   -2.5250 hc        1 G17      0.116250
     54 H20        -0.1950    8.7700   -4.2610 hc        1 G17      0.116250
     55 H21        -1.5360    7.7330   -4.3660 hc        1 G17      0.116250
@<TRIPOS>BOND
     1    1    2 1   
     2    2    3 1   
     3    2    4 1   
     4    2    5 1   
     5    5    6 1   
     6    6   35 1   
     7    7    8 1   
     8    7   36 1   
     9    8   37 1   
    10    9   10 1   
    11    9   38 1   
    12   10   11 1   
    13   11   12 1   
    14   11   13 1   
    15   13   14 1   
    16   13   39 1   
    17   14   15 1   
    18   14   16 1   
    19   15   20 1   
    20   15   40 1   
    21   16   41 1   
    22   17   18 1   
    23   17   42 1   
    24   18   19 1   
    25   19   43 1   
    26   19   44 1   
    27   19   45 1   
    28   20   21 1   
    29   21   22 1   
    30   21   23 1   
    31   22   27 1   
    32   22   46 1   
    33   23   47 1   
    34   24   25 1   
    35   24   48 1   
    36   25   26 1   
    37   26   30 1   
    38   27   28 1   
    39   28   29 1   
    40   28   49 1   
    41   30   31 1   
    42   31   32 1   
    43   31   50 1   
    44   32   33 1   
    45   32   34 1   
    46   32   51 1   
    47   33   34 1   
    48   33   52 1   
    49   33   53 1   
    50   34   54 1   
    51   34   55 1   
@<TRIPOS>SUBSTRUCTURE
     1 G17         1 TEMP              0 ****  ****    0 ROOT
