@<TRIPOS>MOLECULE
G17
   55    59     1     0     0
SMALL
bcc


@<TRIPOS>ATOM
      1 FBF        -0.0570    1.1420    0.7670 f         1 G17     -0.233967
      2 CBE         1.3140    1.0980    0.7110 c3        1 G17      0.689200
      3 FBG         1.7160    1.4580    1.9750 f         1 G17     -0.233967
      4 FBH         1.6070   -0.2420    0.6350 f         1 G17     -0.233967
      5 CAW         1.9300    1.9340   -0.4050 ca        1 G17     -0.175300
      6 CAV         1.2090    2.1630   -1.5770 ca        1 G17     -0.032000
      7 CAX         3.2200    2.4480   -0.2500 ca        1 G17     -0.062000
      8 CAY         3.7920    3.1940   -1.2790 ca        1 G17     -0.140000
      9 CAZ         3.0780    3.4360   -2.4530 ca        1 G17     -0.078000
     10 CAU         1.7850    2.9260   -2.5990 ca        1 G17     -0.151600
     11 CAT         0.9910    3.1360   -3.8500 c         1 G17      0.678700
     12 OBA         0.3480    2.2010   -4.3600 o         1 G17     -0.574100
     13 NAS         1.0250    4.4190   -4.3750 ns        1 G17     -0.466100
     14 CAP         0.3420    4.8880   -5.5110 ca        1 G17      0.060600
     15 CAQ         0.3060    6.2810   -5.7440 ca        1 G17     -0.171000
     16 CAO        -0.2900    4.0350   -6.4390 ca        1 G17     -0.143000
     17 CAN        -0.9280    4.5730   -7.5500 ca        1 G17     -0.109000
     18 CAM        -0.9690    5.9520   -7.7830 ca        1 G17     -0.084300
     19 CAR        -1.6640    6.4570   -8.9900 c3        1 G17     -0.054800
     20 CAL        -0.3440    6.8110   -6.8630 cp        1 G17     -0.013000
     21 CAI        -0.3440    8.2670   -7.0330 cp        1 G17     -0.061000
     22 CAH        -1.5160    8.9740   -7.2170 ca        1 G17     -0.063000
     23 CAJ         0.8930    8.9690   -6.9820 ca        1 G17     -0.089000
     24 CAK         0.9520   10.3320   -7.1180 ca        1 G17     -0.193300
     25 C4         -0.2480   11.0900   -7.3090 ca        1 G17      0.461600
     26 N3         -0.1960   12.4580   -7.4360 nb        1 G17     -0.757000
     27 C5         -1.4860   10.3780   -7.3530 ca        1 G17     -0.315600
     28 C6         -2.6660   11.1760   -7.5320 ca        1 G17      0.482200
     29 N1         -2.6520   12.4850   -7.6660 nb        1 G17     -0.714000
     30 C2         -1.3780   13.1100   -7.6340 ca        1 G17      0.867900
     31 NAG        -1.3130   14.4930   -7.9070 nu        1 G17     -0.785900
     32 CBD        -2.4460   15.3190   -7.6450 cx        1 G17      0.154500
     33 CBC        -2.2780   16.8190   -7.5030 cx        1 G17     -0.149900
     34 CBB        -2.6910   16.0060   -6.3120 cx        1 G17     -0.149900
     35 H1          0.1970    1.7420   -1.7070 ha        1 G17      0.174000
     36 H2          3.7770    2.2620    0.6830 ha        1 G17      0.157000
     37 H3          4.8120    3.5920   -1.1650 ha        1 G17      0.149000
     38 H4          3.5490    4.0130   -3.2650 ha        1 G17      0.146000
     39 H5          1.4950    5.1160   -3.8390 hn        1 G17      0.318500
     40 H6          0.7880    6.9790   -5.0400 ha        1 G17      0.133000
     41 H7         -0.2870    2.9420   -6.2950 ha        1 G17      0.173000
     42 H8         -1.4130    3.8920   -8.2670 ha        1 G17      0.138000
     43 H9         -1.5710    5.7290   -9.8340 hc        1 G17      0.047033
     44 H10        -1.2420    7.4380   -9.3210 hc        1 G17      0.047033
     45 H11        -2.7530    6.6000   -8.7730 hc        1 G17      0.047033
     46 H12        -2.4850    8.4520   -7.2580 ha        1 G17      0.141000
     47 H13         1.8180    8.3870   -6.8380 ha        1 G17      0.139000
     48 H14         1.9180   10.8600   -7.0840 ha        1 G17      0.153000
     49 H15        -3.6590   10.6870   -7.5580 h4        1 G17      0.028100
     50 H16        -0.4320   14.9140   -7.6820 hn        1 G17      0.423800
     51 H17        -3.3410   14.9540   -8.2000 h1        1 G17      0.116700
     52 H18        -1.2680   17.2660   -7.5190 hc        1 G17      0.076950
     53 H19        -3.0200   17.4670   -8.0030 hc        1 G17      0.076950
     54 H20        -3.7300   16.0690   -5.9440 hc        1 G17      0.076950
     55 H21        -1.9710   15.8730   -5.4860 hc        1 G17      0.076950
@<TRIPOS>BOND
     1    1    2 1   
     2    2    3 1   
     3    2    4 1   
     4    2    5 1   
     5    5    6 ar  
     6    5    7 ar  
     7    6   10 ar  
     8    6   35 1   
     9    7    8 ar  
    10    7   36 1   
    11    8    9 ar  
    12    8   37 1   
    13    9   10 ar  
    14    9   38 1   
    15   10   11 1   
    16   11   12 2   
    17   11   13 1   
    18   13   14 1   
    19   13   39 1   
    20   14   15 ar  
    21   14   16 ar  
    22   15   20 ar  
    23   15   40 1   
    24   16   17 ar  
    25   16   41 1   
    26   17   18 ar  
    27   17   42 1   
    28   18   19 1   
    29   18   20 ar  
    30   19   43 1   
    31   19   44 1   
    32   19   45 1   
    33   20   21 1   
    34   21   22 ar  
    35   21   23 ar  
    36   22   27 ar  
    37   22   46 1   
    38   23   24 ar  
    39   23   47 1   
    40   24   25 ar  
    41   24   48 1   
    42   25   26 ar  
    43   25   27 ar  
    44   26   30 ar  
    45   27   28 ar  
    46   28   29 ar  
    47   28   49 1   
    48   29   30 ar  
    49   30   31 1   
    50   31   32 1   
    51   31   50 1   
    52   32   33 1   
    53   32   34 1   
    54   32   51 1   
    55   33   34 1   
    56   33   52 1   
    57   33   53 1   
    58   34   54 1   
    59   34   55 1   
@<TRIPOS>SUBSTRUCTURE
     1 G17         1 TEMP              0 ****  ****    0 ROOT
