@<TRIPOS>MOLECULE
G18
   21    23     1     0     0
SMALL
bcc


@<TRIPOS>ATOM
      1 CAO        -0.0480   -0.0000    0.0050 ca        1 G18      0.059000
      2 CAN         1.3650   -0.0040   -0.0090 ca        1 G18     -0.154600
      3 CAH         2.0810   -0.0030    1.1970 ca        1 G18     -0.062000
      4 CAD         1.4020    0.0020    2.4080 ca        1 G18     -0.155000
      5 CAF         0.0020    0.0050    2.4270 ca        1 G18     -0.092000
      6 CAL        -0.7180    0.0040    1.2410 ca        1 G18     -0.144000
      7 CAC        -2.4210   -0.0010   -2.8540 cc        1 G18     -0.174100
      8 CAG        -2.1440    0.0020   -1.5110 cd        1 G18     -0.093000
      9 CAM        -0.7350   -0.0020   -1.2560 cd        1 G18     -0.153000
     10 CAJ         0.0030   -0.0060   -2.4570 cc        1 G18      0.071500
     11 NAC         1.3770   -0.0100   -2.4770 ns        1 G18     -0.418100
     12 SAK        -1.0320   -0.0070   -3.8010 ss        1 G18     -0.011800
     13 CAK         2.1140   -0.0090   -1.2820 c         1 G18      0.714100
     14 OAB         3.3570   -0.0130   -1.3680 o         1 G18     -0.632500
     15 HAL        -1.8180    0.0070    1.2590 ha        1 G18      0.138000
     16 HAG        -2.8900    0.0050   -0.7130 ha        1 G18      0.158000
     17 HAC        -3.4130    0.0010   -3.3020 h4        1 G18      0.177000
     18 HAF        -0.5290    0.0090    3.3910 ha        1 G18      0.135000
     19 HAD         1.9630    0.0020    3.3540 ha        1 G18      0.139000
     20 HAH         3.1830   -0.0060    1.1620 ha        1 G18      0.159000
     21 HAN         1.8660   -0.0140   -3.3440 hn        1 G18      0.338500
@<TRIPOS>BOND
     1    1    2 ar  
     2    1    6 ar  
     3    1    9 1   
     4    2    3 ar  
     5    2   13 1   
     6    3    4 ar  
     7    3   20 1   
     8    4    5 ar  
     9    4   19 1   
    10    5    6 ar  
    11    5   18 1   
    12    6   15 1   
    13    7    8 2   
    14    7   12 1   
    15    7   17 1   
    16    8    9 1   
    17    8   16 1   
    18    9   10 2   
    19   10   11 1   
    20   10   12 1   
    21   11   13 1   
    22   11   21 1   
    23   13   14 2   
@<TRIPOS>SUBSTRUCTURE
     1 G18         1 TEMP              0 ****  ****    0 ROOT
