@<TRIPOS>MOLECULE
G18
   21    23     1     0     0
SMALL
bcc


@<TRIPOS>ATOM
      1 CAO         0.7300    0.7630   -0.0000 ca        1 G18      0.059000
      2 CAN         1.4300   -0.4640    0.0010 ca        1 G18     -0.154600
      3 CAH         2.8330   -0.4760    0.0020 ca        1 G18     -0.062000
      4 CAD         3.5380    0.7210    0.0010 ca        1 G18     -0.155000
      5 CAF         2.8480    1.9400    0.0000 ca        1 G18     -0.092000
      6 CAL         1.4610    1.9650   -0.0010 ca        1 G18     -0.144000
      7 CAC        -2.9340    1.3730   -0.0030 cc        1 G18     -0.174100
      8 CAG        -1.6350    1.8100   -0.0020 cd        1 G18     -0.093000
      9 CAM        -0.7050    0.7220   -0.0010 cd        1 G18     -0.153000
     10 CAJ        -1.3700   -0.5210   -0.0010 cc        1 G18      0.071500
     11 NAC        -0.6960   -1.7180    0.0010 n         1 G18     -0.418100
     12 SAK        -3.0530   -0.3040   -0.0020 ss        1 G18     -0.011800
     13 CAK         0.7080   -1.7530    0.0010 c         1 G18      0.714100
     14 OAB         1.2590   -2.8700    0.0020 o         1 G18     -0.632500
     15 HAL         0.9230    2.9240   -0.0020 ha        1 G18      0.138000
     16 HAG        -1.3210    2.8570   -0.0030 ha        1 G18      0.158000
     17 HAC        -3.8210    2.0040   -0.0040 h4        1 G18      0.177000
     18 HAF         3.4130    2.8840   -0.0000 ha        1 G18      0.135000
     19 HAD         4.6370    0.7130    0.0020 ha        1 G18      0.139000
     20 HAH         3.3580   -1.4460    0.0030 ha        1 G18      0.159000
     21 HAN        -1.1990   -2.5770    0.0010 hn        1 G18      0.338500
@<TRIPOS>BOND
     1    1    2 ar  
     2    1    6 ar  
     3    1    9 1   
     4    2    3 ar  
     5    2   13 1   
     6    3    4 ar  
     7    3   20 1   
     8    4    5 ar  
     9    4   19 1   
    10    5    6 ar  
    11    5   18 1   
    12    6   15 1   
    13    7    8 2   
    14    7   12 1   
    15    7   17 1   
    16    8    9 1   
    17    8   16 1   
    18    9   10 2   
    19   10   11 1   
    20   10   12 1   
    21   11   13 1   
    22   11   21 1   
    23   13   14 2   
@<TRIPOS>SUBSTRUCTURE
     1 G18         1 TEMP              0 ****  ****    0 ROOT
