@<TRIPOS>MOLECULE
G18
   21    17     1     0     0
SMALL
bcc


@<TRIPOS>ATOM
      1 CAO        -0.1380   -0.0020    0.4120 c1        1 G18      0.059000
      2 CAN         1.2430   -0.0020    0.4120 c2        1 G18     -0.134000
      3 CAH         1.9440   -0.0020    1.6270 c1        1 G18     -0.062000
      4 CAD         1.2490   -0.0020    2.8310 c1        1 G18     -0.123500
      5 CAF        -0.1440   -0.0020    2.8310 c1        1 G18     -0.123500
      6 CAL        -0.8390   -0.0020    1.6290 c1        1 G18     -0.144000
      7 CAC        -2.5980    0.0370   -2.6080 c1        1 G18     -0.317500
      8 CAG        -2.4260    0.0210   -1.1580 c1        1 G18     -0.123000
      9 CAM        -0.8590    0.0030   -0.8370 c1        1 G18     -0.123000
     10 CAJ        -0.1300    0.0080   -2.1040 c1        1 G18     -0.317500
     11 NAC         1.2980   -0.0190   -2.1060 n2        1 G18     -0.272000
     12 SAK        -1.1790    0.0300   -3.2590 ss        1 G18      0.528000
     13 CAK         1.9980   -0.0110   -0.8990 c2        1 G18      0.351000
     14 OAB         3.2120   -0.0560   -0.9000 o         1 G18     -0.357000
     15 HAL        -1.8160   -0.0020    1.6290 ha        1 G18      0.138000
     16 HAG        -3.1450    0.0210   -0.4980 DU        1 G18      0.167500
     17 HAC        -3.4480    0.0070   -3.0850 DU        1 G18      0.167500
     18 HAF        -0.6320   -0.0020    3.6770 ha        1 G18      0.137000
     19 HAD         1.7370   -0.0020    3.6770 ha        1 G18      0.137000
     20 HAH         2.9200   -0.0020    1.6280 ha        1 G18      0.159000
     21 HAN         1.7530   -0.0180   -2.8970 hn        1 G18      0.252000
@<TRIPOS>BOND
     1    1    2 1   
     2    1    6 1   
     3    2    3 1   
     4    2   13 1   
     5    3   20 1   
     6    4    5 1   
     7    4   19 1   
     8    5   18 1   
     9    6   15 1   
    10    7    8 1   
    11    7   12 1   
    12    8    9 1   
    13    9   10 1   
    14   10   12 1   
    15   11   13 1   
    16   11   21 1   
    17   13   14 1   
@<TRIPOS>SUBSTRUCTURE
     1 G18         1 TEMP              0 ****  ****    0 ROOT
