@<TRIPOS>MOLECULE
G1L
   31    31     1     0     0
SMALL
bcc


@<TRIPOS>ATOM
      1 F23         9.9840   -0.8910   -2.3720 f         1 G1L     -0.239300
      2 C20         8.9780   -1.6610   -2.9050 c3        1 G1L      0.692200
      3 F21         9.2650   -2.9320   -2.4640 f         1 G1L     -0.239300
      4 F22         9.2670   -1.7060   -4.2480 f         1 G1L     -0.239300
      5 C3          7.5720   -1.1880   -2.5750 ca        1 G1L     -0.204300
      6 C2          7.3240   -0.5050   -1.3850 ca        1 G1L     -0.053000
      7 C1          6.0370   -0.0850   -1.0650 ca        1 G1L     -0.179000
      8 C4          6.5240   -1.4500   -3.4600 ca        1 G1L     -0.053000
      9 C5          5.2350   -1.0360   -3.1570 ca        1 G1L     -0.179000
     10 C6          4.9640   -0.3450   -1.9460 ca        1 G1L      0.104600
     11 N11         3.6390    0.0220   -1.6760 n         1 G1L     -0.465100
     12 C12         3.1890    0.8660   -0.6660 c         1 G1L      0.676100
     13 O18         3.9480    1.3530    0.1870 o         1 G1L     -0.572100
     14 C13         1.6710    1.1200   -0.5970 c3        1 G1L     -0.123000
     15 C14         1.0340   -0.0860    0.0840 c3        1 G1L     -0.092600
     16 C15         1.4360    2.3660    0.2480 c3        1 G1L     -0.092600
     17 C16         1.0170    1.3020   -1.9630 c3        1 G1L      0.024000
     18 CL17        1.8950    2.3810   -3.0260 cl        1 G1L     -0.172400
     19 H2          8.1540   -0.2920   -0.6920 ha        1 G1L      0.152000
     20 H1          5.8720    0.4560   -0.1180 ha        1 G1L      0.159500
     21 H4          6.7240   -1.9820   -4.4040 ha        1 G1L      0.152000
     22 H5          4.4260   -1.2500   -3.8720 ha        1 G1L      0.159500
     23 HN11        2.9770   -0.2470   -2.3710 hn        1 G1L      0.319500
     24 H141        1.4810   -0.2290    1.0980 hc        1 G1L      0.053700
     25 H142       -0.0640    0.0800    0.1980 hc        1 G1L      0.053700
     26 H143        1.1970   -1.0140   -0.5150 hc        1 G1L      0.053700
     27 H151        1.9230    2.2480    1.2460 hc        1 G1L      0.053700
     28 H152        1.8740    3.2620   -0.2540 hc        1 G1L      0.053700
     29 H153        0.3410    2.5260    0.3940 hc        1 G1L      0.053700
     30 H161        0.9170    0.3290   -2.5020 h1        1 G1L      0.070700
     31 H162       -0.0010    1.7460   -1.8300 h1        1 G1L      0.070700
@<TRIPOS>BOND
     1    1    2 1   
     2    2    3 1   
     3    2    4 1   
     4    2    5 1   
     5    5    6 ar  
     6    5    8 ar  
     7    6    7 ar  
     8    6   19 1   
     9    7   10 ar  
    10    7   20 1   
    11    8    9 ar  
    12    8   21 1   
    13    9   10 ar  
    14    9   22 1   
    15   10   11 1   
    16   11   12 1   
    17   11   23 1   
    18   12   13 2   
    19   12   14 1   
    20   14   15 1   
    21   14   16 1   
    22   14   17 1   
    23   15   24 1   
    24   15   25 1   
    25   15   26 1   
    26   16   27 1   
    27   16   28 1   
    28   16   29 1   
    29   17   18 1   
    30   17   30 1   
    31   17   31 1   
@<TRIPOS>SUBSTRUCTURE
     1 G1L         1 TEMP              0 ****  ****    0 ROOT
