@<TRIPOS>MOLECULE
G1L
   31    31     1     0     0
SMALL
bcc


@<TRIPOS>ATOM
      1 F23        -0.0030    0.2520   -0.1970 f         1 G1L     -0.239300
      2 C20         1.3460    0.0620   -0.0170 c3        1 G1L      0.692200
      3 F21         1.4820   -0.0800    1.3440 f         1 G1L     -0.239300
      4 F22         1.8950    1.2950   -0.2760 f         1 G1L     -0.239300
      5 C3          1.9400   -1.0790   -0.8270 ca        1 G1L     -0.204300
      6 C2          1.1550   -2.1810   -1.1660 ca        1 G1L     -0.053000
      7 C1          1.6960   -3.2390   -1.8900 ca        1 G1L     -0.179000
      8 C4          3.2800   -1.0300   -1.2190 ca        1 G1L     -0.053000
      9 C5          3.8330   -2.0760   -1.9430 ca        1 G1L     -0.179000
     10 C6          3.0500   -3.2070   -2.2920 ca        1 G1L      0.105600
     11 N11         3.6680   -4.2490   -2.9970 ns        1 G1L     -0.465100
     12 C12         3.0510   -5.3380   -3.6010 c         1 G1L      0.676100
     13 O18         1.8300   -5.5490   -3.5160 o         1 G1L     -0.572100
     14 C13         3.9660   -6.3390   -4.3330 c3        1 G1L     -0.123000
     15 C14         4.5970   -7.2400   -3.2770 c3        1 G1L     -0.092600
     16 C15         3.1030   -7.1770   -5.2680 c3        1 G1L     -0.092600
     17 C16         5.0840   -5.6770   -5.1300 c3        1 G1L      0.024000
     18 Cl17        4.5490   -4.3230   -6.1030 cl        1 G1L     -0.172400
     19 H2          0.0960   -2.2140   -0.8630 ha        1 G1L      0.152000
     20 H1          1.0490   -4.0950   -2.1470 ha        1 G1L      0.159500
     21 H4          3.8960   -0.1540   -0.9570 ha        1 G1L      0.152000
     22 H5          4.8900   -2.0130   -2.2450 ha        1 G1L      0.159500
     23 HN11        4.6350   -4.1080   -3.1940 hn        1 G1L      0.319500
     24 H141        5.2320   -6.6480   -2.5760 hc        1 G1L      0.053700
     25 H142        3.7970   -7.7550   -2.6910 hc        1 G1L      0.053700
     26 H143        5.2330   -8.0140   -3.7710 hc        1 G1L      0.053700
     27 H151        3.7220   -7.9730   -5.7460 hc        1 G1L      0.053700
     28 H152        2.2720   -7.6550   -4.6950 hc        1 G1L      0.053700
     29 H153        2.6570   -6.5320   -6.0620 hc        1 G1L      0.053700
     30 H161        5.8930   -5.2930   -4.4620 h1        1 G1L      0.070700
     31 H162        5.5260   -6.4210   -5.8380 h1        1 G1L      0.070700
@<TRIPOS>BOND
     1    1    2 1   
     2    2    3 1   
     3    2    4 1   
     4    2    5 1   
     5    5    6 ar  
     6    5    8 ar  
     7    6    7 ar  
     8    6   19 1   
     9    7   10 ar  
    10    7   20 1   
    11    8    9 ar  
    12    8   21 1   
    13    9   10 ar  
    14    9   22 1   
    15   10   11 1   
    16   11   12 1   
    17   11   23 1   
    18   12   13 2   
    19   12   14 1   
    20   14   15 1   
    21   14   16 1   
    22   14   17 1   
    23   15   24 1   
    24   15   25 1   
    25   15   26 1   
    26   16   27 1   
    27   16   28 1   
    28   16   29 1   
    29   17   18 1   
    30   17   30 1   
    31   17   31 1   
@<TRIPOS>SUBSTRUCTURE
     1 G1L         1 TEMP              0 ****  ****    0 ROOT
