@<TRIPOS>MOLECULE
G1L
   32    32     1     0     0
SMALL
bcc


@<TRIPOS>ATOM
      1 F23        -0.1160   -0.1290    0.0970 f         1 G1L     -0.215300
      2 C20         1.2510   -0.1890    0.1800 c3        1 G1L      0.688200
      3 F21         1.5170   -0.4560    1.4980 f         1 G1L     -0.215300
      4 F22         1.6760    1.1010   -0.0130 f         1 G1L     -0.215300
      5 C3          1.8870   -1.1870   -0.7940 ca        1 G1L     -0.117300
      6 C2          1.2630   -1.4590   -2.0130 ca        1 G1L     -0.057500
      7 C1          1.8450   -2.3520   -2.9110 ca        1 G1L     -0.101500
      8 C4          3.0940   -1.8050   -0.4580 ca        1 G1L     -0.057500
      9 C5          3.6890   -2.7010   -1.3440 ca        1 G1L     -0.101500
     10 C6          3.0620   -2.9700   -2.5740 ca        1 G1L     -0.023400
     11 N11         3.6880   -3.8970   -3.5180 n4        1 G1L     -0.559200
     12 C12         3.2210   -5.3430   -3.4060 c         1 G1L      0.537100
     13 O18         2.2710   -5.5700   -2.6810 o         1 G1L     -0.371100
     14 C13         4.0270   -6.3590   -4.2110 c3        1 G1L     -0.110000
     15 C14         5.1750   -6.8300   -3.3220 c3        1 G1L     -0.109600
     16 C15         3.1000   -7.5310   -4.5230 c3        1 G1L     -0.109600
     17 C16         4.6070   -5.7960   -5.5050 c3        1 G1L     -0.009000
     18 CL17        3.4780   -4.8080   -6.4090 cl        1 G1L     -0.149400
     19 H2          0.3030   -0.9710   -2.2640 ha        1 G1L      0.188500
     20 H1          1.3360   -2.5610   -3.8670 ha        1 G1L      0.163000
     21 H4          3.5750   -1.5880    0.5130 ha        1 G1L      0.188500
     22 H5          4.6410   -3.1810   -1.0620 ha        1 G1L      0.163000
     23 HN11        4.7050   -3.8790   -3.3790 hn        1 G1L      0.467800
     24 H141        5.8570   -5.9850   -3.0620 hc        1 G1L      0.075867
     25 H142        4.7780   -7.2870   -2.3830 hc        1 G1L      0.075867
     26 H143        5.7670   -7.6080   -3.8670 hc        1 G1L      0.075867
     27 H151        3.6910   -8.3530   -4.9980 hc        1 G1L      0.075867
     28 H152        2.2890   -7.2170   -5.2230 hc        1 G1L      0.075867
     29 H153        2.6360   -7.9220   -3.5840 hc        1 G1L      0.075867
     30 H161        4.8990   -6.6460   -6.1750 h1        1 G1L      0.102700
     31 H162        5.5110   -5.1660   -5.3130 h1        1 G1L      0.102700
     32 H112        3.4840   -3.5870   -4.4880 hn        1 G1L      0.467800
@<TRIPOS>BOND
     1    1    2 1   
     2    2    3 1   
     3    2    4 1   
     4    2    5 1   
     5    5    6 ar  
     6    5    8 ar  
     7    6    7 ar  
     8    6   19 1   
     9    7   10 ar  
    10    7   20 1   
    11    8    9 ar  
    12    8   21 1   
    13    9   10 ar  
    14    9   22 1   
    15   10   11 1   
    16   11   12 1   
    17   11   23 1   
    18   11   32 1   
    19   12   13 2   
    20   12   14 1   
    21   14   15 1   
    22   14   16 1   
    23   14   17 1   
    24   15   24 1   
    25   15   25 1   
    26   15   26 1   
    27   16   27 1   
    28   16   28 1   
    29   16   29 1   
    30   17   18 1   
    31   17   30 1   
    32   17   31 1   
@<TRIPOS>SUBSTRUCTURE
     1 G1L         1 TEMP              0 ****  ****    0 ROOT
