@<TRIPOS>MOLECULE
G1L
   31    31     1     0     0
SMALL
bcc


@<TRIPOS>ATOM
      1 F23        -0.0090    0.2290   -0.1670 f         1 G1L     -0.239300
      2 C20         1.3440    0.0520   -0.0040 c3        1 G1L      0.692200
      3 F21         1.4980   -0.0860    1.3560 f         1 G1L     -0.239300
      4 F22         1.8780    1.2890   -0.2720 f         1 G1L     -0.239300
      5 C3          1.9380   -1.0860   -0.8180 ca        1 G1L     -0.204300
      6 C2          1.1590   -2.1960   -1.1450 ca        1 G1L     -0.053000
      7 C1          1.7000   -3.2500   -1.8740 ca        1 G1L     -0.179000
      8 C4          3.2720   -1.0250   -1.2280 ca        1 G1L     -0.053000
      9 C5          3.8260   -2.0670   -1.9570 ca        1 G1L     -0.179000
     10 C6          3.0480   -3.2070   -2.2930 ca        1 G1L      0.105600
     11 N11         3.6670   -4.2440   -3.0030 n         1 G1L     -0.465100
     12 C12         3.0530   -5.3420   -3.5960 c         1 G1L      0.676100
     13 O18         1.8350   -5.5630   -3.4940 o         1 G1L     -0.572100
     14 C13         3.9680   -6.3350   -4.3370 c3        1 G1L     -0.123000
     15 C14         4.6220   -7.2260   -3.2880 c3        1 G1L     -0.092600
     16 C15         3.1010   -7.1850   -5.2580 c3        1 G1L     -0.092600
     17 C16         5.0680   -5.6640   -5.1520 c3        1 G1L      0.024000
     18 CL17        4.5060   -4.3190   -6.1220 cl        1 G1L     -0.172400
     19 H2          0.1040   -2.2370   -0.8280 ha        1 G1L      0.152000
     20 H1          1.0580   -4.1120   -2.1200 ha        1 G1L      0.159500
     21 H4          3.8830   -0.1430   -0.9760 ha        1 G1L      0.152000
     22 H5          4.8780   -1.9950   -2.2720 ha        1 G1L      0.159500
     23 HN11        4.6300   -4.0950   -3.2130 hn        1 G1L      0.319500
     24 H141        3.8360   -7.7470   -2.6890 hc        1 G1L      0.053700
     25 H142        5.2610   -6.6260   -2.5970 hc        1 G1L      0.053700
     26 H143        5.2590   -7.9950   -3.7880 hc        1 G1L      0.053700
     27 H151        3.7220   -7.9760   -5.7420 hc        1 G1L      0.053700
     28 H152        2.6370   -6.5470   -6.0480 hc        1 G1L      0.053700
     29 H153        2.2830   -7.6700   -4.6720 hc        1 G1L      0.053700
     30 H161        5.5080   -6.4070   -5.8640 h1        1 G1L      0.070700
     31 H162        5.8820   -5.2700   -4.4960 h1        1 G1L      0.070700
@<TRIPOS>BOND
     1    1    2 1   
     2    2    3 1   
     3    2    4 1   
     4    2    5 1   
     5    5    6 ar  
     6    5    8 ar  
     7    6    7 ar  
     8    6   19 1   
     9    7   10 ar  
    10    7   20 1   
    11    8    9 ar  
    12    8   21 1   
    13    9   10 ar  
    14    9   22 1   
    15   10   11 1   
    16   11   12 1   
    17   11   23 1   
    18   12   13 2   
    19   12   14 1   
    20   14   15 1   
    21   14   16 1   
    22   14   17 1   
    23   15   24 1   
    24   15   25 1   
    25   15   26 1   
    26   16   27 1   
    27   16   28 1   
    28   16   29 1   
    29   17   18 1   
    30   17   30 1   
    31   17   31 1   
@<TRIPOS>SUBSTRUCTURE
     1 G1L         1 TEMP              0 ****  ****    0 ROOT
