@<TRIPOS>MOLECULE
G1O
   23    24     1     0     0
SMALL
bcc


@<TRIPOS>ATOM
      1 CAA         0.0030    0.0540    0.0310 ca        1 G1O     -0.106000
      2 CAB         1.3870    0.0700   -0.0170 ca        1 G1O     -0.116000
      3 CAC         2.1210   -0.0080    1.1630 ca        1 G1O     -0.170000
      4 CAD         1.4920   -0.0680    2.4240 ca        1 G1O      0.123600
      5 CAE         0.0630   -0.0040    2.4960 ca        1 G1O     -0.011800
      6 CAF        -0.6470    0.0060    1.2720 ca        1 G1O     -0.127600
      7 CAG        -2.1250   -0.0470    1.2390 c         1 G1O      0.697100
      8 CAH        -0.7140    0.0600    3.7210 cc        1 G1O     -0.142400
      9 CAI        -2.0840    0.0050    3.6500 cd        1 G1O     -0.017400
     10 NAJ        -2.7850   -0.0830    2.4690 ns        1 G1O     -0.450100
     11 OAK        -2.8060   -0.0730    0.1940 o         1 G1O     -0.640500
     12 NAL         2.3020   -0.1340    3.5690 nv        1 G1O     -0.813200
     13 CAM        -0.1310    0.2550    5.0710 c3        1 G1O     -0.040900
     14 HAA        -0.6020    0.0750   -0.8890 ha        1 G1O      0.161000
     15 HAB         1.9100    0.1280   -0.9830 ha        1 G1O      0.138000
     16 HAC         3.2210   -0.0230    1.0990 ha        1 G1O      0.132000
     17 HAI        -2.7090    0.0410    4.5620 h4        1 G1O      0.148000
     18 HNAJ       -3.7790   -0.1270    2.4800 hn        1 G1O      0.333500
     19 HNAL        3.2580   -0.3310    3.3620 hn        1 G1O      0.385800
     20 HNAA        1.9450   -0.7320    4.2820 hn        1 G1O      0.385800
     21 HAM         0.6330    1.0710    5.0650 hc        1 G1O      0.043700
     22 HAMA       -0.9250    0.5530    5.8030 hc        1 G1O      0.043700
     23 HAMB        0.3260   -0.6910    5.4550 hc        1 G1O      0.043700
@<TRIPOS>BOND
     1    1    2 ar  
     2    1    6 ar  
     3    1   14 1   
     4    2    3 ar  
     5    2   15 1   
     6    3    4 ar  
     7    3   16 1   
     8    4    5 ar  
     9    4   12 1   
    10    5    6 ar  
    11    5    8 1   
    12    6    7 1   
    13    7   10 1   
    14    7   11 2   
    15    8    9 2   
    16    8   13 1   
    17    9   10 1   
    18    9   17 1   
    19   10   18 1   
    20   12   19 1   
    21   12   20 1   
    22   13   21 1   
    23   13   22 1   
    24   13   23 1   
@<TRIPOS>SUBSTRUCTURE
     1 G1O         1 TEMP              0 ****  ****    0 ROOT
