@<TRIPOS>MOLECULE
G1O
   23    24     1     0     0
SMALL
bcc


@<TRIPOS>ATOM
      1 CAA        -0.0060    0.0000    0.0030 ca        1 G1O     -0.068000
      2 CAB         1.3760   -0.0010   -0.0680 ca        1 G1O     -0.154000
      3 CAC         2.1290   -0.0020    1.1070 ca        1 G1O     -0.071000
      4 CAD         1.5170   -0.0010    2.3720 ca        1 G1O      0.054600
      5 CAE         0.0920    0.0000    2.4640 ca        1 G1O      0.002200
      6 CAF        -0.6420    0.0010    1.2540 ca        1 G1O     -0.155600
      7 CAG        -2.1180    0.0020    1.2430 c         1 G1O      0.700100
      8 CAH        -0.6630    0.0000    3.7040 cc        1 G1O     -0.166400
      9 CAI        -2.0360    0.0020    3.6550 cd        1 G1O      0.002600
     10 NAJ        -2.7590    0.0030    2.4860 n         1 G1O     -0.450100
     11 OAK        -2.8200    0.0030    0.2120 o         1 G1O     -0.637500
     12 NAL         2.4040   -0.0010    3.4840 nh        1 G1O     -0.799200
     13 CAM        -0.0500   -0.0020    5.0530 c3        1 G1O     -0.041900
     14 HAA        -0.6250    0.0010   -0.9100 ha        1 G1O      0.161000
     15 HAB         1.8840   -0.0020   -1.0440 ha        1 G1O      0.141000
     16 HAC         3.2300   -0.0020    1.0370 ha        1 G1O      0.150000
     17 HAI        -2.6430    0.0020    4.5800 h4        1 G1O      0.149000
     18 HNAJ       -3.7540    0.0040    2.5140 hn        1 G1O      0.335500
     19 HNAL        2.2670   -0.8200    4.0450 hn        1 G1O      0.362800
     20 HNAA        2.2640    0.8170    4.0470 hn        1 G1O      0.362800
     21 HAM         0.5710    0.9140    5.2190 hc        1 G1O      0.040700
     22 HAMA       -0.8410   -0.0030    5.8480 hc        1 G1O      0.040700
     23 HAMB        0.5710   -0.9170    5.2160 hc        1 G1O      0.040700
@<TRIPOS>BOND
     1    1    2 ar  
     2    1    6 ar  
     3    1   14 1   
     4    2    3 ar  
     5    2   15 1   
     6    3    4 ar  
     7    3   16 1   
     8    4    5 ar  
     9    4   12 1   
    10    5    6 ar  
    11    5    8 1   
    12    6    7 1   
    13    7   10 1   
    14    7   11 2   
    15    8    9 2   
    16    8   13 1   
    17    9   10 1   
    18    9   17 1   
    19   10   18 1   
    20   12   19 1   
    21   12   20 1   
    22   13   21 1   
    23   13   22 1   
    24   13   23 1   
@<TRIPOS>SUBSTRUCTURE
     1 G1O         1 TEMP              0 ****  ****    0 ROOT
