@<TRIPOS>MOLECULE
G1P
   27    27     1     0     0
SMALL
bcc


@<TRIPOS>ATOM
      1 C1         -0.4430   -0.3030   -1.2710 c3        1 G1P      0.377900
      2 C2          1.0680   -0.3170   -1.2450 c3        1 G1P      0.086100
      3 C3          1.6140   -0.3440    0.1500 c3        1 G1P      0.081100
      4 C4          1.0360    0.7300    0.9990 c3        1 G1P      0.121100
      5 C5         -0.4790    0.7410    0.9630 c3        1 G1P      0.090100
      6 C6         -0.9650    1.9450    1.6780 c3        1 G1P      0.146400
      7 O1         -0.9170   -1.5520   -0.8270 os        1 G1P     -0.563200
      8 O2          1.5310   -1.4790   -1.9460 oh        1 G1P     -0.690800
      9 O3          3.0530   -0.1730    0.0930 oh        1 G1P     -0.640800
     10 O4          1.4700    0.5330    2.3620 oh        1 G1P     -0.623800
     11 O5         -1.0130    0.7620   -0.4170 os        1 G1P     -0.480600
     12 O6         -2.3630    1.9720    1.6430 oh        1 G1P     -0.641800
     13 P          -2.1610   -2.2590   -1.6380 p5        1 G1P      1.322900
     14 O1P        -1.6830   -2.7300   -2.9850 o         1 G1P     -0.910833
     15 O2P        -3.2810   -1.2490   -1.8240 o         1 G1P     -0.910833
     16 O3P        -2.6730   -3.4420   -0.8440 o         1 G1P     -0.910833
     17 H1         -0.7440   -0.1610   -2.2030 h2        1 G1P      0.109700
     18 H2          1.4100    0.5030   -1.7110 h1        1 G1P      0.020700
     19 H3          1.4190   -1.1820    0.5400 h1        1 G1P      0.072700
     20 H4          1.3650    1.5890    0.6850 h1        1 G1P      0.059700
     21 H5         -0.8150   -0.0570    1.4210 h1        1 G1P      0.083700
     22 H61        -0.6090    2.7530    1.2410 h1        1 G1P      0.022200
     23 H62        -0.6600    1.9160    2.6100 h1        1 G1P      0.022200
     24 HO2         2.0110   -1.2280   -2.6530 ho        1 G1P      0.508000
     25 HO3         3.4520   -0.8530    0.5190 ho        1 G1P      0.413000
     26 HO4         2.0310    1.1980    2.5970 ho        1 G1P      0.397000
     27 HO6        -2.6530    2.6880    2.0650 ho        1 G1P      0.438000
@<TRIPOS>BOND
     1    1    2 1   
     2    1    7 1   
     3    1   11 1   
     4    1   17 1   
     5    2    3 1   
     6    2    8 1   
     7    2   18 1   
     8    3    4 1   
     9    3    9 1   
    10    3   19 1   
    11    4    5 1   
    12    4   10 1   
    13    4   20 1   
    14    5    6 1   
    15    5   11 1   
    16    5   21 1   
    17    6   12 1   
    18    6   22 1   
    19    6   23 1   
    20    7   13 1   
    21    8   24 1   
    22    9   25 1   
    23   10   26 1   
    24   12   27 1   
    25   13   14 1   
    26   13   15 1   
    27   13   16 1   
@<TRIPOS>SUBSTRUCTURE
     1 G1P         1 TEMP              0 ****  ****    0 ROOT
