@<TRIPOS>MOLECULE
G1P
   27    27     1     0     0
SMALL
bcc


@<TRIPOS>ATOM
      1 C1          0.1800   -0.0950    0.9020 c3        1 G1P      0.377900
      2 C2         -0.7270   -1.3590    0.9700 c3        1 G1P      0.086100
      3 C3         -1.7200   -1.3130   -0.2080 c3        1 G1P      0.081100
      4 C4         -2.5580   -0.0300   -0.1440 c3        1 G1P      0.121100
      5 C5         -1.6100    1.1820   -0.0450 c3        1 G1P      0.090100
      6 C6         -2.4000    2.4630    0.2260 c3        1 G1P      0.146400
      7 O1          0.8120    0.0330   -0.2830 os        1 G1P     -0.563200
      8 O2         -0.0170   -2.5680    0.9270 oh        1 G1P     -0.690800
      9 O3         -2.6030   -2.4300   -0.1810 oh        1 G1P     -0.640800
     10 O4         -3.4030    0.1080   -1.2790 oh        1 G1P     -0.623800
     11 O5         -0.7080    1.0410    1.0380 os        1 G1P     -0.480600
     12 O6         -1.5690    3.6090    0.2560 oh        1 G1P     -0.641800
     13 P           2.5380   -0.3100   -0.2380 p5        1 G1P      1.322900
     14 O1P         2.9220    0.3360    1.0590 o         1 G1P     -0.910833
     15 O2P         2.4210   -1.8160   -0.1800 o         1 G1P     -0.910833
     16 O3P         3.0410    0.2890   -1.5110 o         1 G1P     -0.910833
     17 H1          0.8750   -0.0200    1.7890 h2        1 G1P      0.109700
     18 H2         -1.3020   -1.3610    1.9370 h1        1 G1P      0.020700
     19 H3         -1.1330   -1.3390   -1.1700 h1        1 G1P      0.072700
     20 H4         -3.2650   -0.0650    0.7280 h1        1 G1P      0.059700
     21 H5         -1.0260    1.2760   -1.0050 h1        1 G1P      0.083700
     22 H61        -3.1430    2.6350   -0.5960 h1        1 G1P      0.022200
     23 H62        -2.9360    2.3870    1.2100 h1        1 G1P      0.022200
     24 HO2         0.8580   -2.3930    0.4720 ho        1 G1P      0.508000
     25 HO3        -2.0600   -3.1760    0.1090 ho        1 G1P      0.413000
     26 HO4        -2.8560   -0.0720   -2.0530 ho        1 G1P      0.397000
     27 HO6        -0.6950    3.3180    0.5560 ho        1 G1P      0.438000
@<TRIPOS>BOND
     1    1    2 1   
     2    1    7 1   
     3    1   11 1   
     4    1   17 1   
     5    2    3 1   
     6    2    8 1   
     7    2   18 1   
     8    3    4 1   
     9    3    9 1   
    10    3   19 1   
    11    4    5 1   
    12    4   10 1   
    13    4   20 1   
    14    5    6 1   
    15    5   11 1   
    16    5   21 1   
    17    6   12 1   
    18    6   22 1   
    19    6   23 1   
    20    7   13 1   
    21    8   24 1   
    22    9   25 1   
    23   10   26 1   
    24   12   27 1   
    25   13   14 1   
    26   13   15 1   
    27   13   16 1   
@<TRIPOS>SUBSTRUCTURE
     1 G1P         1 TEMP              0 ****  ****    0 ROOT
