@<TRIPOS>MOLECULE
G1W
   57    60     1     0     0
SMALL
bcc


@<TRIPOS>ATOM
      1 C1         -0.0850    0.0670    0.0700 ca        1 G1W     -0.206000
      2 C2          1.3280    0.0300    0.0250 ca        1 G1W      0.186900
      3 C3          2.0880    0.0020    1.1970 ca        1 G1W     -0.230000
      4 C4          1.4360    0.0100    2.4540 ca        1 G1W      0.224600
      5 C5          0.0190    0.0530    2.4990 ca        1 G1W     -0.221600
      6 C6         -0.7130    0.0780    1.3010 ca        1 G1W     -0.021000
      7 C7         -0.6990    0.0740    3.7800 c         1 G1W      0.595900
      8 O8         -1.9400    0.0440    3.8440 o         1 G1W     -0.565100
      9 N9          2.1760   -0.0210    3.6460 na        1 G1W     -0.394200
     10 C10         3.6020   -0.1080    3.6030 ca        1 G1W      0.086600
     11 C11         4.2270   -1.2950    3.1680 ca        1 G1W     -0.112500
     12 C12         5.6170   -1.3660    3.1190 ca        1 G1W     -0.125500
     13 C13         6.3960   -0.2740    3.4970 ca        1 G1W     -0.113000
     14 C14         5.7820    0.9000    3.9320 ca        1 G1W     -0.125500
     15 C15         4.3940    0.9940    3.9870 ca        1 G1W     -0.112500
     16 C16         0.1500    0.1230    4.9790 cc        1 G1W     -0.220400
     17 C17        -0.5330    0.2110    6.3000 c3        1 G1W      0.007100
     18 C18        -0.9470    1.6050    6.6390 ca        1 G1W     -0.014300
     19 C19        -0.1080    2.4360    7.3920 ca        1 G1W     -0.148000
     20 C20        -0.5200    3.7200    7.7300 ca        1 G1W     -0.018000
     21 C21        -1.7690    4.2100    7.3250 ca        1 G1W     -0.397500
     22 C22        -2.6000    3.3690    6.5710 ca        1 G1W     -0.018000
     23 C23        -2.1980    2.0830    6.2280 ca        1 G1W     -0.148000
     24 S24        -2.2680    5.7420    7.7570 sy        1 G1W      1.392300
     25 F25         1.9550    0.0220   -1.1740 f         1 G1W     -0.130900
     26 C26         1.5120    0.0580    4.8650 cd        1 G1W      0.155800
     27 C27         2.3520    0.0690    6.1070 c         1 G1W      0.637300
     28 C28        -1.6710    6.6150    6.4110 c3        1 G1W     -0.324600
     29 C29        -1.9840    8.0970    6.4980 c3        1 G1W      0.162400
     30 O30        -1.4360    8.7080    5.3410 oh        1 G1W     -0.595800
     31 O31         2.8150    1.0450    6.6960 o         1 G1W     -0.515000
     32 O32         2.5570   -1.1790    6.6160 os        1 G1W     -0.415900
     33 C33         3.3200   -1.2580    7.8250 c3        1 G1W      0.120700
     34 O34        -3.6680    5.8220    7.7670 o         1 G1W     -0.658300
     35 O35        -1.5950    6.1720    8.9110 o         1 G1W     -0.658300
     36 H1         -0.6590    0.0880   -0.8670 ha        1 G1W      0.159000
     37 H2          3.1860   -0.0230    1.1270 ha        1 G1W      0.166000
     38 H3         -1.8150    0.1070    1.3680 ha        1 G1W      0.168000
     39 H4          3.6230   -2.1650    2.8660 ha        1 G1W      0.155500
     40 H5          6.0990   -2.2960    2.7780 ha        1 G1W      0.144500
     41 H6          7.4940   -0.3380    3.4540 ha        1 G1W      0.142000
     42 H7          6.3940    1.7640    4.2350 ha        1 G1W      0.144500
     43 H8          3.9210    1.9220    4.3490 ha        1 G1W      0.155500
     44 H9         -1.4490   -0.4460    6.2630 hc        1 G1W      0.072700
     45 H10         0.1370   -0.1900    7.1110 hc        1 G1W      0.072700
     46 H11         0.8850    2.0760    7.7090 ha        1 G1W      0.160000
     47 H12         0.1390    4.3650    8.3390 ha        1 G1W      0.155000
     48 H13        -3.5950    3.7340    6.2590 ha        1 G1W      0.155000
     49 H14        -2.8530    1.4350    5.6200 ha        1 G1W      0.160000
     50 H15        -2.0940    6.2320    5.4440 h1        1 G1W      0.124200
     51 H16        -0.5590    6.5060    6.3020 h1        1 G1W      0.124200
     52 H17        -3.0960    8.2580    6.5270 h1        1 G1W      0.040700
     53 H18        -1.5170    8.5390    7.4210 h1        1 G1W      0.040700
     54 H19        -1.6510    9.6460    5.4000 ho        1 G1W      0.404000
     55 H20         2.7940   -0.7060    8.6400 h1        1 G1W      0.058367
     56 H21         4.3380   -0.8310    7.6620 h1        1 G1W      0.058367
     57 H22         3.3610   -2.3560    8.0310 h1        1 G1W      0.058367
@<TRIPOS>BOND
     1    1    2 ar  
     2    1    6 ar  
     3    1   36 1   
     4    2    3 ar  
     5    2   25 1   
     6    3    4 ar  
     7    3   37 1   
     8    4    5 ar  
     9    4    9 1   
    10    5    6 ar  
    11    5    7 1   
    12    6   38 1   
    13    7    8 2   
    14    7   16 1   
    15    9   10 1   
    16    9   26 1   
    17   10   11 ar  
    18   10   15 ar  
    19   11   12 ar  
    20   11   39 1   
    21   12   13 ar  
    22   12   40 1   
    23   13   14 ar  
    24   13   41 1   
    25   14   15 ar  
    26   14   42 1   
    27   15   43 1   
    28   16   17 1   
    29   16   26 2   
    30   17   18 1   
    31   17   44 1   
    32   17   45 1   
    33   18   19 ar  
    34   18   23 ar  
    35   19   20 ar  
    36   19   46 1   
    37   20   21 ar  
    38   20   47 1   
    39   21   22 ar  
    40   21   24 1   
    41   22   23 ar  
    42   22   48 1   
    43   23   49 1   
    44   24   28 1   
    45   24   34 2   
    46   24   35 2   
    47   26   27 1   
    48   27   31 2   
    49   27   32 1   
    50   28   29 1   
    51   28   50 1   
    52   28   51 1   
    53   29   30 1   
    54   29   52 1   
    55   29   53 1   
    56   30   54 1   
    57   32   33 1   
    58   33   55 1   
    59   33   56 1   
    60   33   57 1   
@<TRIPOS>SUBSTRUCTURE
     1 G1W         1 TEMP              0 ****  ****    0 ROOT
