@<TRIPOS>MOLECULE
G1W
   57    60     1     0     0
SMALL
bcc


@<TRIPOS>ATOM
      1 C1         -0.0870    0.0590    0.0720 ca        1 G1W     -0.206000
      2 C2          1.3250    0.0230    0.0260 ca        1 G1W      0.186900
      3 C3          2.0860   -0.0030    1.1980 ca        1 G1W     -0.230000
      4 C4          1.4340    0.0060    2.4560 ca        1 G1W      0.224600
      5 C5          0.0180    0.0480    2.5010 ca        1 G1W     -0.221600
      6 C6         -0.7150    0.0710    1.3020 ca        1 G1W     -0.021000
      7 C7         -0.7000    0.0710    3.7820 c         1 G1W      0.595900
      8 O8         -1.9410    0.0400    3.8460 o         1 G1W     -0.565100
      9 N9          2.1750   -0.0230    3.6470 na        1 G1W     -0.394200
     10 C10         3.6010   -0.1080    3.6040 ca        1 G1W      0.086600
     11 C11         4.2270   -1.2950    3.1710 ca        1 G1W     -0.112500
     12 C12         5.6170   -1.3650    3.1210 ca        1 G1W     -0.125500
     13 C13         6.3960   -0.2710    3.4980 ca        1 G1W     -0.113000
     14 C14         5.7800    0.9020    3.9300 ca        1 G1W     -0.125500
     15 C15         4.3920    0.9950    3.9860 ca        1 G1W     -0.112500
     16 C16         0.1490    0.1220    4.9800 cc        1 G1W     -0.220400
     17 C17        -0.5330    0.2110    6.3020 c3        1 G1W      0.007100
     18 C18        -0.9480    1.6060    6.6390 ca        1 G1W     -0.014300
     19 C19        -0.1090    2.4370    7.3920 ca        1 G1W     -0.148000
     20 C20        -0.5210    3.7220    7.7280 ca        1 G1W     -0.018000
     21 C21        -1.7700    4.2110    7.3220 ca        1 G1W     -0.397500
     22 C22        -2.6010    3.3690    6.5690 ca        1 G1W     -0.018000
     23 C23        -2.1990    2.0830    6.2280 ca        1 G1W     -0.148000
     24 S24        -2.2690    5.7440    7.7530 sy        1 G1W      1.392300
     25 F25         1.9530    0.0130   -1.1730 f         1 G1W     -0.130900
     26 C26         1.5110    0.0580    4.8670 cd        1 G1W      0.155800
     27 C27         2.3510    0.0710    6.1080 c         1 G1W      0.637300
     28 C28        -1.6700    6.6160    6.4080 c3        1 G1W     -0.324600
     29 C29        -1.9780    8.0980    6.4950 c3        1 G1W      0.162400
     30 O30        -1.4270    8.7090    5.3400 oh        1 G1W     -0.595800
     31 O31         2.8140    1.0480    6.6950 o         1 G1W     -0.515000
     32 O32         2.5580   -1.1760    6.6180 os        1 G1W     -0.415900
     33 C33         3.3210   -1.2530    7.8270 c3        1 G1W      0.120700
     34 O34        -3.6700    5.8250    7.7600 o         1 G1W     -0.658300
     35 O35        -1.5980    6.1740    8.9080 o         1 G1W     -0.658300
     36 H1         -0.6610    0.0770   -0.8650 ha        1 G1W      0.159000
     37 H2          3.1840   -0.0280    1.1280 ha        1 G1W      0.166000
     38 H3         -1.8170    0.1000    1.3700 ha        1 G1W      0.168000
     39 H4          3.6240   -2.1660    2.8700 ha        1 G1W      0.155500
     40 H5          6.1000   -2.2950    2.7820 ha        1 G1W      0.144500
     41 H6          7.4930   -0.3350    3.4540 ha        1 G1W      0.142000
     42 H7          6.3910    1.7670    4.2320 ha        1 G1W      0.144500
     43 H8          3.9180    1.9230    4.3470 ha        1 G1W      0.155500
     44 H9          0.1370   -0.1880    7.1130 hc        1 G1W      0.072700
     45 H10        -1.4490   -0.4460    6.2660 hc        1 G1W      0.072700
     46 H11         0.8840    2.0780    7.7090 ha        1 G1W      0.160000
     47 H12         0.1380    4.3670    8.3370 ha        1 G1W      0.155000
     48 H13        -3.5960    3.7340    6.2570 ha        1 G1W      0.155000
     49 H14        -2.8530    1.4350    5.6200 ha        1 G1W      0.160000
     50 H15        -2.0940    6.2350    5.4400 h1        1 G1W      0.124200
     51 H16        -0.5580    6.5040    6.2990 h1        1 G1W      0.124200
     52 H17        -3.0900    8.2630    6.5230 h1        1 G1W      0.040700
     53 H18        -1.5110    8.5380    7.4200 h1        1 G1W      0.040700
     54 H19        -1.6380    9.6480    5.3990 ho        1 G1W      0.404000
     55 H20         4.3390   -0.8250    7.6630 h1        1 G1W      0.058367
     56 H21         3.3640   -2.3510    8.0350 h1        1 G1W      0.058367
     57 H22         2.7950   -0.7000    8.6420 h1        1 G1W      0.058367
@<TRIPOS>BOND
     1    1    2 ar  
     2    1    6 ar  
     3    1   36 1   
     4    2    3 ar  
     5    2   25 1   
     6    3    4 ar  
     7    3   37 1   
     8    4    5 ar  
     9    4    9 1   
    10    5    6 ar  
    11    5    7 1   
    12    6   38 1   
    13    7    8 2   
    14    7   16 1   
    15    9   10 1   
    16    9   26 1   
    17   10   11 ar  
    18   10   15 ar  
    19   11   12 ar  
    20   11   39 1   
    21   12   13 ar  
    22   12   40 1   
    23   13   14 ar  
    24   13   41 1   
    25   14   15 ar  
    26   14   42 1   
    27   15   43 1   
    28   16   17 1   
    29   16   26 2   
    30   17   18 1   
    31   17   44 1   
    32   17   45 1   
    33   18   19 ar  
    34   18   23 ar  
    35   19   20 ar  
    36   19   46 1   
    37   20   21 ar  
    38   20   47 1   
    39   21   22 ar  
    40   21   24 1   
    41   22   23 ar  
    42   22   48 1   
    43   23   49 1   
    44   24   28 1   
    45   24   34 2   
    46   24   35 2   
    47   26   27 1   
    48   27   31 2   
    49   27   32 1   
    50   28   29 1   
    51   28   50 1   
    52   28   51 1   
    53   29   30 1   
    54   29   52 1   
    55   29   53 1   
    56   30   54 1   
    57   32   33 1   
    58   33   55 1   
    59   33   56 1   
    60   33   57 1   
@<TRIPOS>SUBSTRUCTURE
     1 G1W         1 TEMP              0 ****  ****    0 ROOT
