@<TRIPOS>MOLECULE
G1W
   57    60     1     0     0
SMALL
bcc


@<TRIPOS>ATOM
      1 C1          3.2990    3.9740   -0.5170 ca        1 G1W     -0.206000
      2 C2          4.0900    3.2530    0.4070 ca        1 G1W      0.186900
      3 C3          3.9090    1.8810    0.5970 ca        1 G1W     -0.230000
      4 C4          2.9170    1.1960   -0.1460 ca        1 G1W      0.224600
      5 C5          2.1200    1.9200   -1.0680 ca        1 G1W     -0.221600
      6 C6          2.3310    3.2990   -1.2360 ca        1 G1W     -0.021000
      7 C7          1.0720    1.2540   -1.8520 c         1 G1W      0.595900
      8 O8          0.4070    1.8540   -2.7140 o         1 G1W     -0.565100
      9 N9          2.7170   -0.1820    0.0240 na        1 G1W     -0.394200
     10 C10         3.5480   -0.9220    0.9220 ca        1 G1W      0.086600
     11 C11         4.9050   -1.1440    0.6110 ca        1 G1W     -0.112500
     12 C12         5.7100   -1.8560    1.4970 ca        1 G1W     -0.125500
     13 C13         5.1840   -2.3540    2.6880 ca        1 G1W     -0.113000
     14 C14         3.8410   -2.1410    2.9970 ca        1 G1W     -0.125500
     15 C15         3.0190   -1.4290    2.1270 ca        1 G1W     -0.112500
     16 C16         0.8710   -0.1710   -1.5550 cc        1 G1W     -0.220400
     17 C17        -0.2240   -0.8760   -2.2790 c3        1 G1W      0.007100
     18 C18        -1.5630   -0.6440   -1.6580 ca        1 G1W     -0.014300
     19 C19        -2.0710   -1.5350   -0.7050 ca        1 G1W     -0.148000
     20 C20        -3.3330   -1.3270   -0.1590 ca        1 G1W     -0.018000
     21 C21        -4.1150   -0.2290   -0.5430 ca        1 G1W     -0.397500
     22 C22        -3.5950    0.6560   -1.4970 ca        1 G1W     -0.018000
     23 C23        -2.3340    0.4570   -2.0490 ca        1 G1W     -0.148000
     24 S24        -5.6390   -0.0010    0.0960 sy        1 G1W      1.392300
     25 F25         5.0400    3.9030    1.1190 f         1 G1W     -0.130900
     26 C26         1.6900   -0.8150   -0.6670 cd        1 G1W      0.155800
     27 C27         1.4880   -2.2790   -0.4140 c         1 G1W      0.637300
     28 C28        -5.2300    0.9710    1.4450 c3        1 G1W     -0.324600
     29 C29        -6.4440    1.3740    2.2580 c3        1 G1W      0.162400
     30 O30        -5.9790    2.1610    3.3420 oh        1 G1W     -0.595800
     31 O31         0.7670   -2.8050    0.4330 o         1 G1W     -0.515000
     32 O32         2.1830   -3.0650   -1.2830 os        1 G1W     -0.415900
     33 C33         2.0190   -4.4800   -1.1370 c3        1 G1W      0.120700
     34 O34        -6.4350    0.7520   -0.7810 o         1 G1W     -0.658300
     35 O35        -6.1680   -1.2160    0.5560 o         1 G1W     -0.658300
     36 H1          3.4630    5.0520   -0.6480 ha        1 G1W      0.159000
     37 H2          4.5390    1.3500    1.3270 ha        1 G1W      0.166000
     38 H3          1.6970    3.8360   -1.9640 ha        1 G1W      0.168000
     39 H4          5.3330   -0.7560   -0.3260 ha        1 G1W      0.155500
     40 H5          6.7690   -2.0260    1.2480 ha        1 G1W      0.144500
     41 H6          5.8270   -2.9150    3.3830 ha        1 G1W      0.142000
     42 H7          3.4210   -2.5350    3.9350 ha        1 G1W      0.144500
     43 H8          1.9550   -1.2830    2.3750 ha        1 G1W      0.155500
     44 H9         -0.2410   -0.4960   -3.3400 hc        1 G1W      0.072700
     45 H10        -0.0160   -1.9810   -2.3190 hc        1 G1W      0.072700
     46 H11        -1.4670   -2.3980   -0.3780 ha        1 G1W      0.160000
     47 H12        -3.7360   -2.0430    0.5790 ha        1 G1W      0.155000
     48 H13        -4.2070    1.5170   -1.8230 ha        1 G1W      0.155000
     49 H14        -1.9280    1.1700   -2.7870 ha        1 G1W      0.160000
     50 H15        -4.5150    0.4470    2.1340 h1        1 G1W      0.124200
     51 H16        -4.6970    1.9100    1.1370 h1        1 G1W      0.124200
     52 H17        -7.1540    1.9740    1.6250 h1        1 G1W      0.040700
     53 H18        -6.9720    0.4600    2.6470 h1        1 G1W      0.040700
     54 H19        -6.7590    2.4210    3.8460 ho        1 G1W      0.404000
     55 H20         2.3470   -4.7970   -0.1180 h1        1 G1W      0.058367
     56 H21         0.9500   -4.7550   -1.3020 h1        1 G1W      0.058367
     57 H22         2.6810   -4.9000   -1.9330 h1        1 G1W      0.058367
@<TRIPOS>BOND
     1    1    2 ar  
     2    1    6 ar  
     3    1   36 1   
     4    2    3 ar  
     5    2   25 1   
     6    3    4 ar  
     7    3   37 1   
     8    4    5 ar  
     9    4    9 1   
    10    5    6 ar  
    11    5    7 1   
    12    6   38 1   
    13    7    8 2   
    14    7   16 1   
    15    9   10 1   
    16    9   26 1   
    17   10   11 ar  
    18   10   15 ar  
    19   11   12 ar  
    20   11   39 1   
    21   12   13 ar  
    22   12   40 1   
    23   13   14 ar  
    24   13   41 1   
    25   14   15 ar  
    26   14   42 1   
    27   15   43 1   
    28   16   17 1   
    29   16   26 2   
    30   17   18 1   
    31   17   44 1   
    32   17   45 1   
    33   18   19 ar  
    34   18   23 ar  
    35   19   20 ar  
    36   19   46 1   
    37   20   21 ar  
    38   20   47 1   
    39   21   22 ar  
    40   21   24 1   
    41   22   23 ar  
    42   22   48 1   
    43   23   49 1   
    44   24   28 1   
    45   24   34 2   
    46   24   35 2   
    47   26   27 1   
    48   27   31 2   
    49   27   32 1   
    50   28   29 1   
    51   28   50 1   
    52   28   51 1   
    53   29   30 1   
    54   29   52 1   
    55   29   53 1   
    56   30   54 1   
    57   32   33 1   
    58   33   55 1   
    59   33   56 1   
    60   33   57 1   
@<TRIPOS>SUBSTRUCTURE
     1 G1W         1 TEMP              0 ****  ****    0 ROOT
