@<TRIPOS>MOLECULE
G20
   46    46     1     0     0
SMALL
bcc


@<TRIPOS>ATOM
      1 C1          3.2610   -0.7850   -1.0680 c         1 G20      0.930800
      2 O1A         3.8650   -0.3280   -2.0710 o         1 G20     -0.800800
      3 O1B         3.7550   -1.4810   -0.1450 o         1 G20     -0.800800
      4 C2          1.7490   -0.5050   -0.9830 ce        1 G20      0.060900
      5 C3          0.8980   -0.4830   -2.0230 c2        1 G20     -0.356200
      6 C4         -0.5860   -0.3560   -1.8700 c3        1 G20      0.250700
      7 C5         -0.9480    0.1400   -0.4180 c3        1 G20      0.076700
      8 N5         -2.3480   -0.0310   -0.1250 n         1 G20     -0.526900
      9 C10        -3.2380    1.0280   -0.1250 c         1 G20      0.671100
     10 O10        -2.8830    2.2210   -0.2080 o         1 G20     -0.617100
     11 C11        -4.7010    0.6730    0.0430 c3        1 G20     -0.175100
     12 C6         -0.0430   -0.6600    0.5490 c3        1 G20      0.063100
     13 O6          1.3310   -0.3260    0.3190 os        1 G20     -0.305900
     14 C7         -0.2700   -0.3490    2.0340 c         1 G20      0.674100
     15 O7         -0.9990    0.5860    2.4140 o         1 G20     -0.600100
     16 N8          0.3260   -1.2050    2.9600 n         1 G20     -0.466800
     17 C81         1.3340   -2.1490    2.5490 c3        1 G20      0.054300
     18 C9          0.2630   -0.8750    4.3650 c3        1 G20      0.093000
     19 C91         1.4300   -0.0400    4.8960 c3        1 G20     -0.112400
     20 C92         1.2770    0.1910    6.3760 c3        1 G20     -0.087100
     21 NE         -1.1590    0.5470   -2.8570 nh        1 G20     -0.811200
     22 CZ         -2.3630    0.2260   -3.5290 c2        1 G20      0.776100
     23 NH1        -3.1940   -0.6730   -3.0410 n2        1 G20     -0.914100
     24 NH2        -2.6160    0.9580   -4.7500 nh        1 G20     -0.933800
     25 H3          1.2980   -0.6020   -3.0400 ha        1 G20      0.151000
     26 H4         -1.0180   -1.3980   -1.9980 h1        1 G20      0.057700
     27 H5         -0.6880    1.2350   -0.3120 h1        1 G20      0.119700
     28 HN5        -2.7210   -0.9310   -0.3290 hn        1 G20      0.302500
     29 H111       -5.3020    1.6130    0.0380 hc        1 G20      0.055367
     30 H112       -5.0400    0.0150   -0.7930 hc        1 G20      0.055367
     31 H113       -4.8610    0.1450    1.0140 hc        1 G20      0.055367
     32 H6         -0.1850   -1.7640    0.3690 h1        1 G20      0.055700
     33 H811        2.0920   -1.6960    1.8450 h1        1 G20      0.056033
     34 H812        1.8770   -2.5430    3.4480 h1        1 G20      0.056033
     35 H813        0.8350   -3.0110    2.0290 h1        1 G20      0.056033
     36 H91         0.2190   -1.8430    4.9420 h1        1 G20      0.048200
     37 H92        -0.6960   -0.3110    4.5540 h1        1 G20      0.048200
     38 H911        1.4610    0.9440    4.3580 hc        1 G20      0.055200
     39 H912        2.4010   -0.5630    4.6900 hc        1 G20      0.055200
     40 H921        2.1270    0.8050    6.7610 hc        1 G20      0.026367
     41 H922        0.3250    0.7320    6.5950 hc        1 G20      0.026367
     42 H923        1.2640   -0.7780    6.9310 hc        1 G20      0.026367
     43 HNE        -0.4690    1.0080   -3.4120 hn        1 G20      0.417800
     44 HN1        -4.0430   -0.7710   -3.5530 hn        1 G20      0.374400
     45 HN21       -3.5660    1.2530   -4.8240 hn        1 G20      0.378300
     46 HN22       -1.9950    1.7200   -4.9180 hn        1 G20      0.378300
@<TRIPOS>BOND
     1    1    2 1   
     2    1    3 1   
     3    1    4 1   
     4    4    5 2   
     5    4   13 1   
     6    5    6 1   
     7    5   25 1   
     8    6    7 1   
     9    6   21 1   
    10    6   26 1   
    11    7    8 1   
    12    7   12 1   
    13    7   27 1   
    14    8    9 1   
    15    8   28 1   
    16    9   10 2   
    17    9   11 1   
    18   11   29 1   
    19   11   30 1   
    20   11   31 1   
    21   12   13 1   
    22   12   14 1   
    23   12   32 1   
    24   14   15 2   
    25   14   16 1   
    26   16   17 1   
    27   16   18 1   
    28   17   33 1   
    29   17   34 1   
    30   17   35 1   
    31   18   19 1   
    32   18   36 1   
    33   18   37 1   
    34   19   20 1   
    35   19   38 1   
    36   19   39 1   
    37   20   40 1   
    38   20   41 1   
    39   20   42 1   
    40   21   22 1   
    41   21   43 1   
    42   22   23 2   
    43   22   24 1   
    44   23   44 1   
    45   24   45 1   
    46   24   46 1   
@<TRIPOS>SUBSTRUCTURE
     1 G20         1 TEMP              0 ****  ****    0 ROOT
