@<TRIPOS>MOLECULE
G20
   50    48     1     0     0
SMALL
bcc


@<TRIPOS>ATOM
      1 C1          9.9210   -0.8540   64.4330 c1        1 G20      0.411000
      2 O1A        10.9130   -0.4290   64.9340 o         1 G20     -0.205500
      3 O1B         8.9300   -1.2800   63.9320 o         1 G20     -0.205500
      4 C2       -102.1110  -66.8270   30.3900 c1        1 G20      0.161000
      5 C3       -101.7010  -67.9080   29.4970 c2        1 G20     -0.189000
      6 C4       -102.4890  -68.2450   28.4660 c2        1 G20     -0.155000
      7 C5       -103.7630  -67.5010   28.1510 c3        1 G20     -0.074000
      8 N5       -104.9540  -68.3670   28.4640 ny        1 G20     -0.135000
      9 C10      -105.1480  -69.5460   27.4740 c2        1 G20      0.282000
     10 O10      -104.5080  -69.4730   26.4450 o         1 G20     -0.136000
     11 C11      -106.0940  -70.5880   27.9510 c3        1 G20     -0.261000
     12 C6       -103.8550  -66.1230   28.8460 c3        1 G20     -0.150000
     13 O6       -103.0700  -66.0390   30.0830 os        1 G20     -0.098000
     14 C7       -103.4250  -65.0060   27.9020 c2        1 G20      0.238000
     15 O7       -103.4270  -65.0960   26.6820 o         1 G20     -0.148000
     16 N8       -103.0470  -63.6950   28.5330 nx        1 G20     -0.056000
     17 C81      -104.2080  -62.7620   28.4830 c3        1 G20     -0.191000
     18 C9       -101.8480  -63.0780   27.8540 c3        1 G20     -0.134000
     19 C91      -100.5420  -63.7920   28.1750 c3        1 G20     -0.181000
     20 C92       -99.4060  -63.0730   27.4850 c3        1 G20     -0.223000
     21 NE        362.8330  243.1560 -141.2540 n8        1 G20     -0.390000
     22 CZ        363.5290  242.0980 -141.8680 c2        1 G20      0.110000
     23 NH1       363.3940  240.8180 -141.8790 n2        1 G20     -0.215000
     24 NH2       364.6190  242.6100 -142.8100 nz        1 G20     -0.057000
     25 H3       -100.7460  -68.4180   29.7290 ha        1 G20      0.231000
     26 H4       -102.2400  -69.0630   27.7630 ha        1 G20      0.204000
     27 H5       -103.7810  -67.3330   27.0190 hx        1 G20      0.210000
     28 HN5      -105.8080  -67.7990   28.4340 hn        1 G20      0.257500
     29 H111     -106.3950  -71.2190   27.0670 hc        1 G20      0.172333
     30 H112     -105.5840  -71.2560   28.6970 hc        1 G20      0.172333
     31 H113     -107.0170  -70.1560   28.4130 hc        1 G20      0.172333
     32 H6       -104.9020  -65.8730   29.1930 h1        1 G20      0.173000
     33 H811     -103.9360  -61.8070   29.0120 hx        1 G20      0.156333
     34 H812     -105.0880  -63.2320   28.9970 hx        1 G20      0.156333
     35 H813     -104.4600  -62.5350   27.4110 hx        1 G20      0.156333
     36 H91      -101.7880  -62.0050   28.2030 hx        1 G20      0.164500
     37 H92      -102.0390  -63.0850   26.7410 hx        1 G20      0.164500
     38 H911     -100.5850  -64.8540   27.8170 hc        1 G20      0.097500
     39 H912     -100.3580  -63.8020   29.2820 hc        1 G20      0.097500
     40 H921      -99.3230  -62.0180   27.8440 hc        1 G20      0.111000
     41 H922      -98.4440  -63.5960   27.7120 hc        1 G20      0.111000
     42 H923      -99.5490  -63.0650   26.3780 hc        1 G20      0.111000
     43 HNE       363.3400  243.6980 -140.5880 hn        1 G20      0.246000
     44 HN1       362.7200  240.3900 -141.2790 hn        1 G20      0.242000
     45 HN21      365.0400  241.8240 -143.3240 hn        1 G20      0.273000
     46 HN22      365.3440  243.0870 -142.2680 hn        1 G20      0.273000
     47 H52      -104.8600  -68.7580   29.4080 hn        1 G20      0.257500
     48 H81      -102.8010  -63.8710   29.5220 hn        1 G20      0.271000
     49 HE3       361.8920  242.9450 -140.9940 hn        1 G20      0.246000
     50 HH23      364.2000  243.2700 -143.4770 hn        1 G20      0.273000
@<TRIPOS>BOND
     1    1    2 1   
     2    1    3 1   
     3    4    5 1   
     4    4   13 1   
     5    5    6 1   
     6    5   25 1   
     7    6    7 1   
     8    6   26 1   
     9    7    8 1   
    10    7   12 1   
    11    7   27 1   
    12    8    9 1   
    13    8   28 1   
    14    8   47 1   
    15    9   10 1   
    16    9   11 1   
    17   11   29 1   
    18   11   30 1   
    19   11   31 1   
    20   12   13 1   
    21   12   14 1   
    22   12   32 1   
    23   14   15 1   
    24   14   16 1   
    25   16   17 1   
    26   16   18 1   
    27   16   48 1   
    28   17   33 1   
    29   17   34 1   
    30   17   35 1   
    31   18   19 1   
    32   18   36 1   
    33   18   37 1   
    34   19   20 1   
    35   19   38 1   
    36   19   39 1   
    37   20   40 1   
    38   20   41 1   
    39   20   42 1   
    40   21   22 1   
    41   21   43 1   
    42   21   49 1   
    43   22   23 1   
    44   22   24 1   
    45   23   44 1   
    46   24   45 1   
    47   24   46 1   
    48   24   50 1   
@<TRIPOS>SUBSTRUCTURE
     1 G20         1 TEMP              0 ****  ****    0 ROOT
