@<TRIPOS>MOLECULE
G20
   50    48     1     0     0
SMALL
bcc


@<TRIPOS>ATOM
      1 C1       -310.3910 -191.7570  113.0360 c1        1 G20      0.456000
      2 O1A      -309.5490 -190.9030  112.9240 o         1 G20     -0.226500
      3 O1B      -311.2160 -192.5880  113.1460 o         1 G20     -0.226500
      4 C2       -306.5980 -186.2180  115.7490 c1        1 G20      0.185000
      5 C3       -305.7260 -187.3570  115.4750 c2        1 G20     -0.184000
      6 C4       -305.9470 -188.1030  114.3820 c2        1 G20     -0.148000
      7 C5       -307.0540 -187.7570  113.4150 c3        1 G20     -0.069000
      8 N5       -307.5250 -188.9630  112.6580 n4        1 G20     -0.127000
      9 C10      -306.6290 -189.3440  111.4630 c2        1 G20      0.282000
     10 O10      -305.9780 -188.4360  110.9830 o         1 G20     -0.154000
     11 C11      -306.7060 -190.7750  111.0660 c3        1 G20     -0.258000
     12 C6       -308.2160 -187.0320  114.1310 c3        1 G20     -0.148000
     13 O6       -307.7040 -186.0710  115.1220 os        1 G20     -0.109000
     14 C7       -309.0910 -186.2840  113.1400 c2        1 G20      0.260000
     15 O7       -309.3930 -186.7600  112.0490 o         1 G20     -0.205000
     16 N8       -309.6520 -184.9520  113.5290 n4        1 G20     -0.051000
     17 C81      -311.1090 -185.0780  113.8190 c3        1 G20     -0.192000
     18 C9       -309.4160 -183.9260  112.4460 c3        1 G20     -0.134000
     19 C91      -307.9520 -183.5300  112.3080 c3        1 G20     -0.179000
     20 C92      -307.8220 -182.4930  111.2170 c3        1 G20     -0.224000
     21 NE       1217.2890  746.2580 -469.0720 n3        1 G20     -0.390000
     22 CZ       1217.8580  745.0930 -469.6210 c2        1 G20      0.110000
     23 NH1      1217.5740  743.8390 -469.5630 n2        1 G20     -0.215000
     24 NH2      1219.0030  745.4220 -470.5790 n4        1 G20     -0.057000
     25 H3       -304.8940 -187.5410  116.1820 ha        1 G20      0.230000
     26 H4       -305.2810 -188.9390  114.1050 ha        1 G20      0.187000
     27 H5       -306.6100 -187.0420  112.6420 hx        1 G20      0.191000
     28 HN5      -307.5920 -189.7740  113.2890 hn        1 G20      0.273000
     29 H111     -306.5900 -190.8360  109.9470 hc        1 G20      0.169333
     30 H112     -307.6680 -191.2650  111.3600 hc        1 G20      0.169333
     31 H113     -305.8480 -191.3310  111.5340 hc        1 G20      0.169333
     32 H6       -308.8740 -187.7430  114.7110 h1        1 G20      0.178000
     33 H811     -311.5050 -184.0770  114.1470 hx        1 G20      0.158000
     34 H812     -311.6490 -185.4070  112.8890 hx        1 G20      0.158000
     35 H813     -311.2640 -185.8250  114.6430 hx        1 G20      0.158000
     36 H91      -310.0310 -183.0170  112.7130 hx        1 G20      0.163500
     37 H92      -309.8040 -184.3540  111.4760 hx        1 G20      0.163500
     38 H911     -307.5650 -183.1060  113.2730 hc        1 G20      0.097000
     39 H912     -307.3320 -184.4290  112.0500 hc        1 G20      0.097000
     40 H921     -308.1800 -182.8920  110.2380 hc        1 G20      0.110667
     41 H922     -308.4080 -181.5740  111.4670 hc        1 G20      0.110667
     42 H923     -306.7470 -182.2020  111.1080 hc        1 G20      0.110667
     43 HNE      1216.3290  746.1730 -468.8110 hn        1 G20      0.246000
     44 HN1      1216.8520  743.5280 -468.9460 hn        1 G20      0.242000
     45 HN21     1219.7770  745.8390 -470.0570 hn        1 G20      0.273000
     46 HN22     1218.6660  746.0870 -471.2850 hn        1 G20      0.273000
     47 H52      -308.4700 -188.7900  112.2810 hn        1 G20      0.273000
     48 H81      -309.1670 -184.6310  114.3850 hn        1 G20      0.280000
     49 HE3      1217.8530  746.7730 -468.4310 hn        1 G20      0.246000
     50 HH23     1219.3300  744.5640 -471.0460 hn        1 G20      0.273000
@<TRIPOS>BOND
     1    1    2 1   
     2    1    3 1   
     3    4    5 1   
     4    4   13 1   
     5    5    6 1   
     6    5   25 1   
     7    6    7 1   
     8    6   26 1   
     9    7    8 1   
    10    7   12 1   
    11    7   27 1   
    12    8    9 1   
    13    8   28 1   
    14    8   47 1   
    15    9   10 1   
    16    9   11 1   
    17   11   29 1   
    18   11   30 1   
    19   11   31 1   
    20   12   13 1   
    21   12   14 1   
    22   12   32 1   
    23   14   15 1   
    24   14   16 1   
    25   16   17 1   
    26   16   18 1   
    27   16   48 1   
    28   17   33 1   
    29   17   34 1   
    30   17   35 1   
    31   18   19 1   
    32   18   36 1   
    33   18   37 1   
    34   19   20 1   
    35   19   38 1   
    36   19   39 1   
    37   20   40 1   
    38   20   41 1   
    39   20   42 1   
    40   21   22 1   
    41   21   43 1   
    42   21   49 1   
    43   22   23 1   
    44   22   24 1   
    45   23   44 1   
    46   24   45 1   
    47   24   46 1   
    48   24   50 1   
@<TRIPOS>SUBSTRUCTURE
     1 G20         1 TEMP              0 ****  ****    0 ROOT
