@<TRIPOS>MOLECULE
G20
   50    48     1     0     0
SMALL
bcc


@<TRIPOS>ATOM
      1 C1       -342.4830 -206.6920   98.6680 c1        1 G20      0.456000
      2 O1A      -343.1120 -205.8200   99.2090 o         1 G20     -0.226500
      3 O1B      -341.8710 -207.5480   98.1400 o         1 G20     -0.226500
      4 C2       -345.1700 -203.5590  104.6340 c1        1 G20      0.186000
      5 C3       -344.1560 -202.7170  104.0060 c2        1 G20     -0.183000
      6 C4       -344.0920 -202.6580  102.6670 c2        1 G20     -0.147000
      7 C5       -345.0780 -203.4130  101.8080 c3        1 G20     -0.069000
      8 N5       -344.5150 -203.7140  100.4510 n4        1 G20     -0.127000
      9 C10      -344.5950 -202.5330   99.4630 c2        1 G20      0.282000
     10 O10      -345.4750 -201.7230   99.6810 o         1 G20     -0.152000
     11 C11      -343.5830 -202.5700   98.3740 c3        1 G20     -0.258000
     12 C6       -345.5800 -204.6880  102.5240 c3        1 G20     -0.150000
     13 O6       -345.8190 -204.4250  103.9530 os        1 G20     -0.108000
     14 C7       -346.8710 -205.1960  101.9070 c2        1 G20      0.259000
     15 O7       -347.0770 -205.1650  100.6970 o         1 G20     -0.203000
     16 N8       -347.9090 -205.8010  102.8010 n4        1 G20     -0.052000
     17 C81      -348.0360 -207.2600  102.5240 c3        1 G20     -0.194000
     18 C9       -349.2310 -205.0890  102.6200 c3        1 G20     -0.123000
     19 C91      -350.2040 -205.3380  103.7660 c3        1 G20     -0.182000
     20 C92      -351.4480 -204.5120  103.5390 c3        1 G20     -0.223000
     21 NE       1371.8080  815.1840 -425.9430 n3        1 G20     -0.390000
     22 CZ       1371.4950  816.3460 -425.2110 c2        1 G20      0.110000
     23 NH1      1372.1800  817.3360 -424.7570 n2        1 G20     -0.215000
     24 NH2      1369.9860  816.4980 -425.0130 n4        1 G20     -0.057000
     25 H3       -343.4900 -202.1380  104.6750 ha        1 G20      0.230000
     26 H4       -343.3780 -201.9950  102.1480 ha        1 G20      0.187000
     27 H5       -345.9720 -202.7210  101.6410 hx        1 G20      0.192000
     28 HN5      -345.0340 -204.4970  100.0250 hn        1 G20      0.272500
     29 H111     -344.0500 -202.1380   97.4450 hc        1 G20      0.169000
     30 H112     -343.2100 -203.6010   98.1500 hc        1 G20      0.169000
     31 H113     -342.7140 -201.9160   98.6610 hc        1 G20      0.169000
     32 H6       -344.8230 -205.5250  102.4930 h1        1 G20      0.178000
     33 H811     -348.3090 -207.4150  101.4440 hx        1 G20      0.157333
     34 H812     -348.8470 -207.6840  103.1790 hx        1 G20      0.157333
     35 H813     -347.0640 -207.7720  102.7550 hx        1 G20      0.157333
     36 H91      -349.6740 -205.4350  101.6420 hx        1 G20      0.148000
     37 H92      -349.0100 -203.9850  102.5500 hx        1 G20      0.148000
     38 H911     -349.7390 -205.0530  104.7480 hc        1 G20      0.113000
     39 H912     -350.4830 -206.4240  103.8180 hc        1 G20      0.113000
     40 H921     -351.2110 -203.4210  103.5260 hc        1 G20      0.109000
     41 H922     -351.9420 -204.7860  102.5760 hc        1 G20      0.109000
     42 H923     -352.1730 -204.7030  104.3710 hc        1 G20      0.109000
     43 HNE      1372.6580  815.2340 -426.4650 hn        1 G20      0.246000
     44 HN1      1373.1760  817.3150 -424.8230 hn        1 G20      0.242000
     45 HN21     1369.6410  815.7420 -424.4150 hn        1 G20      0.273000
     46 HN22     1369.7780  817.4040 -424.5700 hn        1 G20      0.273000
     47 H52      -343.5310 -204.0080  100.5320 hn        1 G20      0.272500
     48 H81      -347.6130 -205.6770  103.7860 hn        1 G20      0.280000
     49 HE3      1371.6460  814.3120 -425.4880 hn        1 G20      0.246000
     50 HH23     1369.5230  816.4500 -425.9280 hn        1 G20      0.273000
@<TRIPOS>BOND
     1    1    2 1   
     2    1    3 1   
     3    4    5 1   
     4    4   13 1   
     5    5    6 1   
     6    5   25 1   
     7    6    7 1   
     8    6   26 1   
     9    7    8 1   
    10    7   12 1   
    11    7   27 1   
    12    8    9 1   
    13    8   28 1   
    14    8   47 1   
    15    9   10 1   
    16    9   11 1   
    17   11   29 1   
    18   11   30 1   
    19   11   31 1   
    20   12   13 1   
    21   12   14 1   
    22   12   32 1   
    23   14   15 1   
    24   14   16 1   
    25   16   17 1   
    26   16   18 1   
    27   16   48 1   
    28   17   33 1   
    29   17   34 1   
    30   17   35 1   
    31   18   19 1   
    32   18   36 1   
    33   18   37 1   
    34   19   20 1   
    35   19   38 1   
    36   19   39 1   
    37   20   40 1   
    38   20   41 1   
    39   20   42 1   
    40   21   22 1   
    41   21   43 1   
    42   21   49 1   
    43   22   23 1   
    44   22   24 1   
    45   23   44 1   
    46   24   45 1   
    47   24   46 1   
    48   24   50 1   
@<TRIPOS>SUBSTRUCTURE
     1 G20         1 TEMP              0 ****  ****    0 ROOT
