@<TRIPOS>MOLECULE
G21
   59    58     1     0     0
SMALL
bcc


@<TRIPOS>ATOM
      1 C1          2.0740    4.3170    3.0920 c1        1 G21      0.922000
      2 O1A         1.7200    5.2950    3.6440 o         1 G21     -0.459000
      3 O1B         2.4280    3.3170    2.5240 o         1 G21     -0.459000
      4 C2          0.8440    0.2780    0.6250 c         1 G21      0.582900
      5 C3          1.7760    0.0990    1.7960 c3        1 G21     -0.259400
      6 C4          3.2520   -0.0760    1.4510 c3        1 G21      0.123500
      7 C5          3.5830   -0.9910    0.2180 c3        1 G21      0.244700
      8 N5          2.8490   -2.3060    0.2690 ny        1 G21     -0.693800
      9 C10         3.3760   -3.2930    1.2960 c         1 G21      0.563100
     10 O10         3.9700   -2.8110    2.2480 o         1 G21     -0.428100
     11 C11         3.0980   -4.7260    1.0050 c3        1 G21     -0.194100
     12 C6          3.3510   -0.3160   -1.0750 c2        1 G21     -0.635200
     13 O6          0.5260   -0.6770   -0.0870 o         1 G21     -0.532100
     14 C7          4.4250    0.3510   -1.6550 c2        1 G21      0.557300
     15 O7          5.4860    0.7010   -1.0790 o         1 G21     -0.696300
     16 N8          4.3750    0.7990   -3.1050 nx        1 G21     -0.565200
     17 C81         3.6630    2.1060   -3.2590 c3        1 G21      0.109800
     18 C82         2.1840    2.0950   -2.8830 c3        1 G21     -0.031100
     19 CG          1.5990    3.4430   -3.1190 ca        1 G21     -0.136300
     20 CD1         0.6110    3.6180   -4.0940 ca        1 G21     -0.123500
     21 CD2         2.0200    4.5400   -2.3570 ca        1 G21     -0.123500
     22 CE1         0.0520    4.8790   -4.3050 ca        1 G21     -0.112000
     23 CE2         1.4630    5.7980   -2.5720 ca        1 G21     -0.112000
     24 CZ          0.4770    5.9700   -3.5470 ca        1 G21     -0.094000
     25 C9          3.8470   -0.2440   -4.0340 c3        1 G21      0.110800
     26 C91         4.8400   -1.3720   -4.2950 c3        1 G21     -0.099400
     27 C92         4.2330   -2.3670   -5.2520 c3        1 G21     -0.103100
     28 NE          3.9250    1.2460    1.2310 nz        1 G21     -0.833600
     29 H2          0.4300    1.2980    0.4690 h4        1 G21      0.058200
     30 H31         1.6460    0.9750    2.4960 hc        1 G21      0.115700
     31 H32         1.4490   -0.8100    2.3780 hc        1 G21      0.115700
     32 H4          3.7600   -0.5380    2.3610 hx        1 G21      0.133700
     33 H5          4.6890   -1.2500    0.3200 hx        1 G21      0.114700
     34 HN5         2.9240   -2.7270   -0.6680 hn        1 G21      0.478300
     35 H111        3.7910   -5.0940    0.2030 hc        1 G21      0.125700
     36 H112        2.0390   -4.8950    0.6830 hc        1 G21      0.125700
     37 H113        3.2920   -5.3240    1.9380 hc        1 G21      0.125700
     38 H6          2.3750   -0.4010   -1.5620 ha        1 G21      0.172000
     39 H811        3.7660    2.4260   -4.3380 hx        1 G21      0.106200
     40 H812        4.2110    2.8550   -2.6160 hx        1 G21      0.106200
     41 H821        2.0690    1.8190   -1.7990 hc        1 G21      0.051200
     42 H822        1.6370    1.3220   -3.4870 hc        1 G21      0.051200
     43 HD1         0.2680    2.7630   -4.6970 ha        1 G21      0.122500
     44 HD2         2.7970    4.4130   -1.5900 ha        1 G21      0.122500
     45 HE1        -0.7260    5.0110   -5.0740 ha        1 G21      0.155000
     46 HE2         1.8020    6.6610   -1.9770 ha        1 G21      0.155000
     47 HZ          0.0380    6.9660   -3.7180 ha        1 G21      0.162000
     48 H91         2.8940   -0.6590   -3.6030 hx        1 G21      0.097700
     49 H92         3.5980    0.2610   -5.0130 hx        1 G21      0.097700
     50 H911        5.1090   -1.8810   -3.3320 hc        1 G21      0.061700
     51 H912        5.7890   -0.9630   -4.7360 hc        1 G21      0.061700
     52 H921        4.9590   -3.1960   -5.4440 hc        1 G21      0.060033
     53 H922        3.9910   -1.8850   -6.2310 hc        1 G21      0.060033
     54 H923        3.2960   -2.8070   -4.8330 hc        1 G21      0.060033
     55 HNE1        4.8990    1.0990    0.9130 hn        1 G21      0.478800
     56 HNE2        3.9110    1.7940    2.1010 hn        1 G21      0.478800
     57 H52         1.8430   -2.1380    0.4460 hn        1 G21      0.478300
     58 H81         5.3630    0.9760   -3.3650 hn        1 G21      0.462800
     59 HE3         3.4280    1.7670    0.5000 hn        1 G21      0.478800
@<TRIPOS>BOND
     1    1    2 2   
     2    1    3 2   
     3    4    5 1   
     4    4   13 2   
     5    4   29 1   
     6    5    6 1   
     7    5   30 1   
     8    5   31 1   
     9    6    7 1   
    10    6   28 1   
    11    6   32 1   
    12    7    8 1   
    13    7   12 1   
    14    7   33 1   
    15    8    9 1   
    16    8   34 1   
    17    8   57 1   
    18    9   10 2   
    19    9   11 1   
    20   11   35 1   
    21   11   36 1   
    22   11   37 1   
    23   12   14 2   
    24   12   38 1   
    25   14   15 1   
    26   14   16 1   
    27   16   17 1   
    28   16   25 1   
    29   16   58 1   
    30   17   18 1   
    31   17   39 1   
    32   17   40 1   
    33   18   19 1   
    34   18   41 1   
    35   18   42 1   
    36   19   20 ar  
    37   19   21 ar  
    38   20   22 ar  
    39   20   43 1   
    40   21   23 ar  
    41   21   44 1   
    42   22   24 ar  
    43   22   45 1   
    44   23   24 ar  
    45   23   46 1   
    46   24   47 1   
    47   25   26 1   
    48   25   48 1   
    49   25   49 1   
    50   26   27 1   
    51   26   50 1   
    52   26   51 1   
    53   27   52 1   
    54   27   53 1   
    55   27   54 1   
    56   28   55 1   
    57   28   56 1   
    58   28   59 1   
@<TRIPOS>SUBSTRUCTURE
     1 G21         1 TEMP              0 ****  ****    0 ROOT
