@<TRIPOS>MOLECULE
G21
   59    58     1     0     0
SMALL
bcc


@<TRIPOS>ATOM
      1 C1          2.1000    4.3270    3.0900 c1        1 G21      0.922000
      2 O1A         1.7540    5.3080    3.6420 o         1 G21     -0.459000
      3 O1B         2.4480    3.3240    2.5220 o         1 G21     -0.459000
      4 C2          0.8420    0.2950    0.6260 c         1 G21      0.582900
      5 C3          1.7740    0.1100    1.7960 c3        1 G21     -0.259400
      6 C4          3.2490   -0.0740    1.4500 c3        1 G21      0.123500
      7 C5          3.5730   -0.9920    0.2170 c3        1 G21      0.244700
      8 N5          2.8300   -2.3020    0.2700 n4        1 G21     -0.693800
      9 C10         3.3530   -3.2920    1.2970 c         1 G21      0.563100
     10 O10         3.9520   -2.8130    2.2470 o         1 G21     -0.428100
     11 C11         3.0650   -4.7230    1.0070 c3        1 G21     -0.194100
     12 C6          3.3430   -0.3160   -1.0760 c2        1 G21     -0.635200
     13 O6          0.5180   -0.6590   -0.0840 o         1 G21     -0.532100
     14 C7          4.4200    0.3440   -1.6580 c2        1 G21      0.557300
     15 O7          5.4850    0.6880   -1.0830 o         1 G21     -0.696300
     16 N8          4.3720    0.7910   -3.1080 n4        1 G21     -0.565200
     17 C81         3.6670    2.1020   -3.2630 c3        1 G21      0.109800
     18 C82         2.1880    2.0990   -2.8850 c3        1 G21     -0.031100
     19 CG          1.6110    3.4510   -3.1220 ca        1 G21     -0.136300
     20 CD1         0.6230    3.6300   -4.0960 ca        1 G21     -0.123500
     21 CD2         2.0380    4.5460   -2.3610 ca        1 G21     -0.123500
     22 CE1         0.0710    4.8940   -4.3070 ca        1 G21     -0.112000
     23 CE2         1.4880    5.8070   -2.5760 ca        1 G21     -0.112000
     24 CZ          0.5030    5.9830   -3.5510 ca        1 G21     -0.094000
     25 C9          3.8360   -0.2500   -4.0360 c3        1 G21      0.110800
     26 C91         4.8230   -1.3840   -4.2980 c3        1 G21     -0.099400
     27 C92         4.2090   -2.3760   -5.2530 c3        1 G21     -0.103100
     28 NE          3.9300    1.2440    1.2280 n4        1 G21     -0.833600
     29 H2          0.4350    1.3170    0.4710 h4        1 G21      0.058200
     30 H31         1.4430   -0.7960    2.3800 hc        1 G21      0.115700
     31 H32         1.6510    0.9880    2.4960 hc        1 G21      0.115700
     32 H4          3.7560   -0.5390    2.3590 hx        1 G21      0.133700
     33 H5          4.6780   -1.2580    0.3170 hx        1 G21      0.114700
     34 HN5         1.8260   -2.1280    0.4480 hn        1 G21      0.478300
     35 H111        3.2560   -5.3220    1.9410 hc        1 G21      0.125700
     36 H112        3.7540   -5.0970    0.2040 hc        1 G21      0.125700
     37 H113        2.0050   -4.8860    0.6880 hc        1 G21      0.125700
     38 H6          2.3660   -0.3960   -1.5620 ha        1 G21      0.172000
     39 H811        3.7710    2.4210   -4.3420 hx        1 G21      0.106200
     40 H812        4.2200    2.8480   -2.6200 hx        1 G21      0.106200
     41 H821        1.6360    1.3300   -3.4880 hc        1 G21      0.051200
     42 H822        2.0730    1.8260   -1.8000 hc        1 G21      0.051200
     43 HD1         0.2750    2.7770   -4.6980 ha        1 G21      0.122500
     44 HD2         2.8150    4.4150   -1.5950 ha        1 G21      0.122500
     45 HE1        -0.7070    5.0300   -5.0760 ha        1 G21      0.155000
     46 HE2         1.8330    6.6680   -1.9830 ha        1 G21      0.155000
     47 HZ          0.0700    6.9820   -3.7220 ha        1 G21      0.162000
     48 H91         2.8820   -0.6590   -3.6030 hx        1 G21      0.097700
     49 H92         3.5880    0.2560   -5.0150 hx        1 G21      0.097700
     50 H911        5.7730   -0.9790   -4.7400 hc        1 G21      0.061700
     51 H912        5.0900   -1.8930   -3.3350 hc        1 G21      0.061700
     52 H921        3.2700   -2.8100   -4.8330 hc        1 G21      0.060033
     53 H922        3.9680   -1.8920   -6.2320 hc        1 G21      0.060033
     54 H923        4.9300   -3.2080   -5.4460 hc        1 G21      0.060033
     55 HNE1        3.4360    1.7670    0.4970 hn        1 G21      0.478800
     56 HNE2        4.9030    1.0900    0.9090 hn        1 G21      0.478800
     57 H52         2.9010   -2.7240   -0.6670 hn        1 G21      0.478300
     58 H81         5.3600    0.9620   -3.3700 hn        1 G21      0.462800
     59 HE3         3.9210    1.7920    2.0980 hn        1 G21      0.478800
@<TRIPOS>BOND
     1    1    2 2   
     2    1    3 2   
     3    4    5 1   
     4    4   13 2   
     5    4   29 1   
     6    5    6 1   
     7    5   30 1   
     8    5   31 1   
     9    6    7 1   
    10    6   28 1   
    11    6   32 1   
    12    7    8 1   
    13    7   12 1   
    14    7   33 1   
    15    8    9 1   
    16    8   34 1   
    17    8   57 1   
    18    9   10 2   
    19    9   11 1   
    20   11   35 1   
    21   11   36 1   
    22   11   37 1   
    23   12   14 2   
    24   12   38 1   
    25   14   15 1   
    26   14   16 1   
    27   16   17 1   
    28   16   25 1   
    29   16   58 1   
    30   17   18 1   
    31   17   39 1   
    32   17   40 1   
    33   18   19 1   
    34   18   41 1   
    35   18   42 1   
    36   19   20 ar  
    37   19   21 ar  
    38   20   22 ar  
    39   20   43 1   
    40   21   23 ar  
    41   21   44 1   
    42   22   24 ar  
    43   22   45 1   
    44   23   24 ar  
    45   23   46 1   
    46   24   47 1   
    47   25   26 1   
    48   25   48 1   
    49   25   49 1   
    50   26   27 1   
    51   26   50 1   
    52   26   51 1   
    53   27   52 1   
    54   27   53 1   
    55   27   54 1   
    56   28   55 1   
    57   28   56 1   
    58   28   59 1   
@<TRIPOS>SUBSTRUCTURE
     1 G21         1 TEMP              0 ****  ****    0 ROOT
