@<TRIPOS>MOLECULE
G21
   59    58     1     0     0
SMALL
bcc


@<TRIPOS>ATOM
      1 C1          2.1790    4.3770    3.0590 c1        1 G21      0.922000
      2 O1A         1.8400    5.3630    3.6060 o         1 G21     -0.459000
      3 O1B         2.5200    3.3690    2.4970 o         1 G21     -0.459000
      4 C2          0.8870    0.3100    0.6740 c         1 G21      0.582900
      5 C3          1.8450    0.1440    1.8260 c3        1 G21     -0.259400
      6 C4          3.3130   -0.0390    1.4510 c3        1 G21      0.123500
      7 C5          3.6150   -0.9710    0.2230 c3        1 G21      0.244700
      8 N5          2.8780   -2.2840    0.3080 n4        1 G21     -0.693800
      9 C10         3.4260   -3.2580    1.3360 c         1 G21      0.563100
     10 O10         4.0430   -2.7650    2.2680 o         1 G21     -0.428100
     11 C11         3.1380   -4.6940    1.0710 c3        1 G21     -0.194100
     12 C6          3.3550   -0.3130   -1.0740 c2        1 G21     -0.635200
     13 O6          0.5520   -0.6540   -0.0170 o         1 G21     -0.532100
     14 C7          4.4170    0.3440   -1.6870 c2        1 G21      0.557300
     15 O7          5.4920    0.6990   -1.1390 o         1 G21     -0.696300
     16 N8          4.3360    0.7720   -3.1400 n4        1 G21     -0.565200
     17 C81         3.6240    2.0790   -3.2970 c3        1 G21      0.109800
     18 C82         2.1540    2.0760   -2.8870 c3        1 G21     -0.031100
     19 CG          1.5670    3.4230   -3.1290 ca        1 G21     -0.136300
     20 CD1         0.5570    3.5870   -4.0830 ca        1 G21     -0.123500
     21 CD2         2.0080    4.5290   -2.3930 ca        1 G21     -0.123500
     22 CE1        -0.0040    4.8460   -4.2990 ca        1 G21     -0.112000
     23 CE2         1.4500    5.7860   -2.6130 ca        1 G21     -0.112000
     24 CZ          0.4420    5.9460   -3.5670 ca        1 G21     -0.094000
     25 C9          3.7850   -0.2830   -4.0440 c3        1 G21      0.110800
     26 C91         4.7690   -1.4170   -4.3110 c3        1 G21     -0.099400
     27 C92         4.1380   -2.4240   -5.2400 c3        1 G21     -0.103100
     28 NE          3.9830    1.2790    1.1980 n4        1 G21     -0.833600
     29 H2          0.4720    1.3290    0.5140 h4        1 G21      0.058200
     30 H31         1.7330    1.0290    2.5170 hc        1 G21      0.115700
     31 H32         1.5300   -0.7560    2.4280 hc        1 G21      0.115700
     32 H4          3.8410   -0.4900    2.3550 hx        1 G21      0.133700
     33 H5          4.7220   -1.2320    0.3030 hx        1 G21      0.114700
     34 HN5         1.8770   -2.1110    0.5050 hn        1 G21      0.478300
     35 H111        2.0720   -4.8650    0.7760 hc        1 G21      0.125367
     36 H112        3.8120   -5.0750    0.2590 hc        1 G21      0.125367
     37 H113        3.3520   -5.2790    2.0080 hc        1 G21      0.125367
     38 H6          2.3680   -0.4020   -1.5370 ha        1 G21      0.172000
     39 H811        3.7040    2.3830   -4.3820 hx        1 G21      0.106200
     40 H812        4.1880    2.8350   -2.6770 hx        1 G21      0.106200
     41 H821        1.5910    1.2970   -3.4680 hc        1 G21      0.051200
     42 H822        2.0630    1.8170   -1.7970 hc        1 G21      0.051200
     43 HD1         0.1980    2.7240   -4.6660 ha        1 G21      0.122500
     44 HD2         2.8030    4.4110   -1.6430 ha        1 G21      0.122500
     45 HE1        -0.7990    4.9690   -5.0520 ha        1 G21      0.155000
     46 HE2         1.8050    6.6560   -2.0390 ha        1 G21      0.155000
     47 HZ          0.0020    6.9410   -3.7420 ha        1 G21      0.162000
     48 H91         3.5150    0.2100   -5.0240 hx        1 G21      0.097700
     49 H92         2.8410   -0.6890   -3.5850 hx        1 G21      0.097700
     50 H911        5.7090   -1.0160   -4.7780 hc        1 G21      0.061700
     51 H912        5.0580   -1.9130   -3.3470 hc        1 G21      0.061700
     52 H921        4.8580   -3.2560   -5.4370 hc        1 G21      0.060033
     53 H922        3.8760   -1.9540   -6.2200 hc        1 G21      0.060033
     54 H923        3.2100   -2.8550   -4.7950 hc        1 G21      0.060033
     55 HNE1        3.4720    1.7900    0.4710 hn        1 G21      0.478800
     56 HNE2        3.9900    1.8380    2.0600 hn        1 G21      0.478800
     57 H52         2.9320   -2.7170   -0.6250 hn        1 G21      0.478300
     58 H81         5.3180    0.9420   -3.4250 hn        1 G21      0.462800
     59 HE3         4.9500    1.1250    0.8600 hn        1 G21      0.478800
@<TRIPOS>BOND
     1    1    2 2   
     2    1    3 2   
     3    4    5 1   
     4    4   13 2   
     5    4   29 1   
     6    5    6 1   
     7    5   30 1   
     8    5   31 1   
     9    6    7 1   
    10    6   28 1   
    11    6   32 1   
    12    7    8 1   
    13    7   12 1   
    14    7   33 1   
    15    8    9 1   
    16    8   34 1   
    17    8   57 1   
    18    9   10 2   
    19    9   11 1   
    20   11   35 1   
    21   11   36 1   
    22   11   37 1   
    23   12   14 2   
    24   12   38 1   
    25   14   15 1   
    26   14   16 1   
    27   16   17 1   
    28   16   25 1   
    29   16   58 1   
    30   17   18 1   
    31   17   39 1   
    32   17   40 1   
    33   18   19 1   
    34   18   41 1   
    35   18   42 1   
    36   19   20 ar  
    37   19   21 ar  
    38   20   22 ar  
    39   20   43 1   
    40   21   23 ar  
    41   21   44 1   
    42   22   24 ar  
    43   22   45 1   
    44   23   24 ar  
    45   23   46 1   
    46   24   47 1   
    47   25   26 1   
    48   25   48 1   
    49   25   49 1   
    50   26   27 1   
    51   26   50 1   
    52   26   51 1   
    53   27   52 1   
    54   27   53 1   
    55   27   54 1   
    56   28   55 1   
    57   28   56 1   
    58   28   59 1   
@<TRIPOS>SUBSTRUCTURE
     1 G21         1 TEMP              0 ****  ****    0 ROOT
