@<TRIPOS>MOLECULE
G21
   56    57     1     0     0
SMALL
bcc


@<TRIPOS>ATOM
      1 C1          1.5870    2.8760   -1.8920 c         1 G21      0.935600
      2 O1A         2.5640    2.7820   -1.1010 o         1 G21     -0.820300
      3 O1B         1.4810    3.6820   -2.8500 o         1 G21     -0.820300
      4 C2          0.3940    1.9010   -1.6160 c3        1 G21     -0.012900
      5 C3         -0.8500    2.2100   -2.4210 c3        1 G21     -0.095400
      6 C4         -1.9310    1.1370   -2.2320 c3        1 G21      0.153500
      7 C5         -1.3000   -0.2780   -2.4990 c3        1 G21      0.048700
      8 N5         -1.0230   -0.4510   -3.9060 n         1 G21     -0.554900
      9 C10        -1.5090   -1.4890   -4.6630 c         1 G21      0.655100
     10 O10        -2.3050   -2.3380   -4.2060 o         1 G21     -0.633100
     11 C11        -1.0570   -1.5520   -6.1060 c3        1 G21     -0.175100
     12 C6          0.0110   -0.4560   -1.6800 c3        1 G21      0.061100
     13 O6          0.9070    0.6010   -1.9350 os        1 G21     -0.384600
     14 C7         -0.2750   -0.7210   -0.1960 c         1 G21      0.639100
     15 O7         -1.4230   -1.0920    0.1550 o         1 G21     -0.663100
     16 N8          0.7340   -0.6860    0.7500 n         1 G21     -0.455800
     17 C81         0.4400   -1.1410    2.0920 c3        1 G21      0.097000
     18 C82        -0.0110   -0.0320    3.0530 c3        1 G21     -0.067100
     19 CG         -0.3160   -0.5970    4.3940 ca        1 G21     -0.065300
     20 CD1         0.5260   -0.3470    5.4840 ca        1 G21     -0.127500
     21 CD2        -1.4630   -1.3800    4.5820 ca        1 G21     -0.127500
     22 CE1         0.2260   -0.8710    6.7400 ca        1 G21     -0.134000
     23 CE2        -1.7590   -1.9040    5.8390 ca        1 G21     -0.134000
     24 CZ         -0.9160   -1.6500    6.9200 ca        1 G21     -0.143000
     25 C9          2.0480   -0.1150    0.5390 c3        1 G21      0.065000
     26 C91         3.0420   -1.0250   -0.1840 c3        1 G21     -0.082400
     27 C92         4.3310   -0.2720   -0.3990 c3        1 G21     -0.102100
     28 NE         -2.6230    1.2410   -0.9640 n3        1 G21     -0.895800
     29 H2          0.1590    1.9360   -0.5150 h1        1 G21      0.023700
     30 H31        -1.2330    3.2170   -2.1150 hc        1 G21      0.066700
     31 H32        -0.5770    2.2820   -3.5050 hc        1 G21      0.066700
     32 H4         -2.7280    1.3010   -3.0200 h1        1 G21      0.053700
     33 H5         -2.0290   -1.0810   -2.1770 h1        1 G21      0.102700
     34 HN5        -0.3410    0.1630   -4.2900 hn        1 G21      0.326500
     35 H111       -1.5350   -2.4360   -6.5930 hc        1 G21      0.059367
     36 H112       -1.3610   -0.6260   -6.6510 hc        1 G21      0.059367
     37 H113        0.0530   -1.6590   -6.1630 hc        1 G21      0.059367
     38 H6          0.5650   -1.3750   -2.0430 h1        1 G21      0.081700
     39 H811       -0.3750   -1.9200    2.0460 h1        1 G21      0.054200
     40 H812        1.3680   -1.6280    2.5090 h1        1 G21      0.054200
     41 H821        0.7880    0.7520    3.1310 hc        1 G21      0.063200
     42 H822       -0.9300    0.4630    2.6380 hc        1 G21      0.063200
     43 HD1         1.4270    0.2690    5.3470 ha        1 G21      0.139000
     44 HD2        -2.1290   -1.5770    3.7270 ha        1 G21      0.139000
     45 HE1         0.8930   -0.6680    7.5910 ha        1 G21      0.123500
     46 HE2        -2.6620   -2.5170    5.9770 ha        1 G21      0.123500
     47 HZ         -1.1510   -2.0630    7.9110 ha        1 G21      0.121000
     48 H91         2.4790    0.1430    1.5510 h1        1 G21      0.087200
     49 H92         1.9760    0.8590   -0.0410 h1        1 G21      0.087200
     50 H911        2.6170   -1.3250   -1.1790 hc        1 G21      0.029700
     51 H912        3.2250   -1.9590    0.4060 hc        1 G21      0.029700
     52 H921        5.0240   -0.8670   -1.0400 hc        1 G21      0.042033
     53 H922        4.1220    0.7110   -0.8990 hc        1 G21      0.042033
     54 H923        4.8370   -0.0690    0.5750 hc        1 G21      0.042033
     55 HNE1       -3.1290    0.3930   -0.7790 hn        1 G21      0.349800
     56 HNE2       -1.9660    1.3720   -0.2160 hn        1 G21      0.349800
@<TRIPOS>BOND
     1    1    2 1   
     2    1    3 1   
     3    1    4 1   
     4    4    5 1   
     5    4   13 1   
     6    4   29 1   
     7    5    6 1   
     8    5   30 1   
     9    5   31 1   
    10    6    7 1   
    11    6   28 1   
    12    6   32 1   
    13    7    8 1   
    14    7   12 1   
    15    7   33 1   
    16    8    9 1   
    17    8   34 1   
    18    9   10 2   
    19    9   11 1   
    20   11   35 1   
    21   11   36 1   
    22   11   37 1   
    23   12   13 1   
    24   12   14 1   
    25   12   38 1   
    26   14   15 2   
    27   14   16 1   
    28   16   17 1   
    29   16   25 1   
    30   17   18 1   
    31   17   39 1   
    32   17   40 1   
    33   18   19 1   
    34   18   41 1   
    35   18   42 1   
    36   19   20 ar  
    37   19   21 ar  
    38   20   22 ar  
    39   20   43 1   
    40   21   23 ar  
    41   21   44 1   
    42   22   24 ar  
    43   22   45 1   
    44   23   24 ar  
    45   23   46 1   
    46   24   47 1   
    47   25   26 1   
    48   25   48 1   
    49   25   49 1   
    50   26   27 1   
    51   26   50 1   
    52   26   51 1   
    53   27   52 1   
    54   27   53 1   
    55   27   54 1   
    56   28   55 1   
    57   28   56 1   
@<TRIPOS>SUBSTRUCTURE
     1 G21         1 TEMP              0 ****  ****    0 ROOT
