@<TRIPOS>MOLECULE
G23
   59    57     1     0     0
SMALL
bcc


@<TRIPOS>ATOM
      1 C1          0.6170    1.5490    3.0660 c2        1 G23      0.078000
      2 C2          2.5470    1.9160    4.4230 c2        1 G23     -0.054000
      3 C3          3.2120    1.8360    5.5900 c2        1 G23     -0.151000
      4 C4          2.6400    1.3120    6.8620 c2        1 G23      0.334000
      5 C7         -0.8160    1.1580    2.8430 c2        1 G23      0.328000
      6 C8          2.5270    0.8430   -0.3180 c2        1 G23     -0.023000
      7 C9         -3.0680    1.3740    3.6530 c3        1 G23      0.038000
      8 C11        -0.1840   -3.3650    4.0210 c3        1 G23     -0.144000
      9 C12         1.4040   -5.2170    3.7040 c2        1 G23     -0.042000
     10 C13         1.0510   -3.9510    3.4200 c2        1 G23     -0.167000
     11 C14         1.7960   -3.0510    2.4970 c3        1 G23     -0.211000
     12 C15         1.2470   -2.7980    1.1850 c1        1 G23     -0.073000
     13 C16         3.0430   -7.0640    3.5820 c1        1 G23      0.271000
     14 C17         2.5390   -5.9180    3.1570 c2        1 G23     -0.480000
     15 C18        -4.7870    4.6450    2.8490 ca        1 G23     -0.132000
     16 C19        -4.9300    4.5480    1.4650 ca        1 G23     -0.101000
     17 C20        -4.4510    3.4230    0.7910 ca        1 G23     -0.132000
     18 C21        -3.8320    2.3960    1.5000 ca        1 G23     -0.102500
     19 C22        -3.6900    2.4890    2.8900 ca        1 G23     -0.148000
     20 C23        -4.1690    3.6190    3.5620 ca        1 G23     -0.102500
     21 N1          1.1890    1.5430    4.2390 n3        1 G23     -0.038000
     22 N2          0.4190   -2.2130    6.1520 n         1 G23     -0.402000
     23 N3          3.2980    1.5760    8.0250 n         1 G23     -0.390000
     24 O1          1.5820    0.6340    6.8710 o         1 G23     -0.416000
     25 O2          0.1350   -0.9840    4.2700 o         1 G23     -0.495000
     26 O3         -1.6430    1.5910    3.8200 os        1 G23     -0.261000
     27 O4         -1.2090    0.5450    1.8550 o         1 G23     -0.285000
     28 S1          2.7480    1.8530    0.8640 s         1 G23     -0.155000
     29 H1          1.2230    1.8060    2.0980 h4        1 G23      0.277000
     30 H2          3.0420    2.2930    3.4970 h4        1 G23      0.202000
     31 H3          4.2670    2.1680    5.6080 ha        1 G23      0.181000
     32 H51         3.1430    1.0240   -2.3550 hc        1 G23      0.132167
     33 H52         4.4890    1.2050   -1.1470 hc        1 G23      0.132167
     34 H53         3.7770   -0.4370   -1.4960 hc        1 G23      0.132167
     35 H61         1.5310   -1.0350   -0.0690 hc        1 G23      0.132167
     36 H62         0.4520    0.4160    0.1180 hc        1 G23      0.132167
     37 H63         1.0220   -0.0920   -1.5360 hc        1 G23      0.132167
     38 H91         4.1270    2.1140    8.0440 hn        1 G23      0.248500
     39 H92        -3.2360    0.3840    3.1530 h1        1 G23      0.124500
     40 H111       -0.8830   -3.0590    3.1930 hc        1 G23      0.121000
     41 H112       -0.7210   -4.1180    4.6570 hc        1 G23      0.121000
     42 H14         2.8550   -3.4170    2.3360 hc        1 G23      0.155500
     43 H15         1.9030   -2.0300    2.9830 hc        1 G23      0.155500
     44 H16         0.3190   -3.3150    0.9030 ha        1 G23      0.064000
     45 H17         3.0440   -5.4650    2.2750 ha        1 G23      0.192000
     46 H20        -4.5670    3.3440   -0.3000 ha        1 G23      0.143500
     47 H21        -3.4510    1.5060    0.9730 ha        1 G23      0.140000
     48 H23        -4.0620    3.6960    4.6550 ha        1 G23      0.140000
     49 HN1         0.6930    1.1680    5.0560 hn        1 G23      0.320000
     50 HN2         0.6250   -1.3950    6.6790 hn        1 G23      0.243500
     51 HN3        -3.4210    1.3470    4.7210 h1        1 G23      0.124500
     52 C5          3.5430    0.6530   -1.3750 c3        1 G23     -0.269000
     53 C6          1.3200    0.0110   -0.4610 c3        1 G23     -0.269000
     54 C10         0.1330   -2.1150    4.8260 c2        1 G23      0.331000
     55 H12         0.7880   -5.8080    4.4090 ha        1 G23      0.133000
     56 H18        -5.1680    5.5310    3.3810 ha        1 G23      0.143500
     57 H22         0.4240   -3.0890    6.6100 hn        1 G23      0.243500
     58 H32         2.9280    1.2360    8.8820 hn        1 G23      0.248500
     59 H19        -5.4230    5.3560    0.9040 ha        1 G23      0.145000
@<TRIPOS>BOND
     1    1    5 1   
     2    1   21 1   
     3    1   29 1   
     4    2    3 1   
     5    2   21 1   
     6    2   30 1   
     7    3    4 1   
     8    3   31 1   
     9    4   23 1   
    10    4   24 1   
    11    5   26 1   
    12    5   27 1   
    13    6   28 1   
    14    6   52 1   
    15    6   53 1   
    16    7   19 1   
    17    7   26 1   
    18    7   39 1   
    19    7   51 1   
    20    8   10 1   
    21    8   40 1   
    22    8   41 1   
    23    8   54 1   
    24    9   10 1   
    25    9   14 1   
    26    9   55 1   
    27   10   11 1   
    28   11   12 1   
    29   11   42 1   
    30   11   43 1   
    31   12   44 1   
    32   13   14 1   
    33   14   45 1   
    34   15   16 1   
    35   15   20 1   
    36   15   56 1   
    37   16   17 1   
    38   16   59 1   
    39   17   18 1   
    40   17   46 1   
    41   18   19 1   
    42   18   47 1   
    43   19   20 1   
    44   20   48 1   
    45   21   49 1   
    46   22   50 1   
    47   22   54 1   
    48   22   57 1   
    49   23   38 1   
    50   23   58 1   
    51   25   54 1   
    52   32   52 1   
    53   33   52 1   
    54   34   52 1   
    55   35   53 1   
    56   36   53 1   
    57   37   53 1   
@<TRIPOS>SUBSTRUCTURE
     1 G23         1 TEMP              0 ****  ****    0 ROOT
