@<TRIPOS>MOLECULE
G23
   59    58     1     0     0
SMALL
bcc


@<TRIPOS>ATOM
      1 C1          0.1990    0.7650   -2.4120 ce        1 G23      0.506500
      2 C2         -0.2850    0.8500    0.8890 c2        1 G23     -0.026400
      3 C3         -0.7480    0.4780    2.1160 ce        1 G23     -0.378600
      4 C4         -1.7240    1.2030    2.8860 ce        1 G23      0.625900
      5 C7         -2.5780    3.4610   -1.5250 c1        1 G23      0.922000
      6 C8          1.2080    0.6980   -1.3360 ce        1 G23     -0.231000
      7 C9         -3.0270    1.0900    4.9480 c3        1 G23      0.163700
      8 C11         2.3740   -3.3180    4.5680 c3        1 G23     -0.094200
      9 C12         3.4310   -5.4900    5.3370 c2        1 G23     -0.110200
     10 C13         2.5380   -4.4730    5.4640 c2        1 G23     -0.189400
     11 C14         1.6750   -4.5830    6.7330 c3        1 G23      0.057000
     12 C15         2.3490   -5.7020    7.3930 cu        1 G23     -0.179400
     13 C16         3.4850   -6.1820    7.8640 cu        1 G23     -0.094200
     14 C17         3.2340   -6.4970    6.4220 cx        1 G23     -0.125100
     15 C18        -1.2350    3.8980    6.7410 ca        1 G23     -0.122000
     16 C19        -2.1910    4.9120    6.6820 ca        1 G23     -0.095000
     17 C20        -3.4110    4.6870    6.0420 ca        1 G23     -0.122000
     18 C21        -3.6750    3.4500    5.4570 ca        1 G23     -0.113500
     19 C22        -2.7160    2.4300    5.5130 ca        1 G23     -0.187300
     20 C23        -1.4980    2.6560    6.1630 ca        1 G23     -0.113500
     21 N1         -0.9650    1.2660   -2.2360 n2        1 G23     -0.814100
     22 N2          0.4820   -4.5300    3.4810 nt        1 G23     -0.657000
     23 N3         -2.3170    2.3490    2.5240 nv        1 G23     -0.482100
     24 O1         -2.0000    0.5870    4.0670 os        1 G23     -0.379400
     25 O2          0.6810   -2.2860    3.2000 o         1 G23     -0.682100
     26 O3         -2.3010    3.4270   -0.3640 o         1 G23     -0.460000
     27 O4         -2.8570    3.4980   -2.6760 o         1 G23     -0.460000
     28 S1          0.8430   -0.0680    0.1400 ss        1 G23      0.135800
     29 H1          0.5700    0.3440   -3.3750 h4        1 G23     -0.003200
     30 H2         -0.6700    1.7640    0.3950 h4        1 G23      0.173000
     31 H3         -0.3750   -0.4480    2.6090 ha        1 G23      0.229000
     32 H51         5.0300    4.4290   -1.9550 hc        1 G23      0.027200
     33 H52         3.4250    5.1930   -1.5900 hc        1 G23      0.027200
     34 H53         3.6500    3.4040   -1.3710 hc        1 G23      0.027200
     35 H61         2.7930    1.4570   -2.5610 ha        1 G23      0.147000
     36 H62         4.4620    4.5680   -0.2370 hc        1 G23      0.027200
     37 H63         3.2510    1.0610   -0.8010 ha        1 G23      0.147000
     38 H91        -4.0130    1.0700    4.4120 h1        1 G23      0.094700
     39 H92        -3.0150    0.2990    5.7550 h1        1 G23      0.094700
     40 H111        2.3450   -2.3690    5.1700 hc        1 G23      0.083200
     41 H112        3.2450   -3.2440    3.8610 hc        1 G23      0.083200
     42 H14         0.6090   -4.7960    6.4710 hc        1 G23      0.072200
     43 H15         1.7200   -3.6440    7.3390 hc        1 G23      0.072200
     44 H16         4.1510   -6.3840    8.6780 ha        1 G23      0.203000
     45 H17         3.0900   -7.5360    6.0930 hc        1 G23      0.100700
     46 H20        -4.1700    5.4840    6.0070 ha        1 G23      0.152000
     47 H21        -4.6480    3.2700    4.9740 ha        1 G23      0.142500
     48 H23        -0.7520    1.8480    6.2210 ha        1 G23      0.142500
     49 HN1        -1.5650    1.2620   -3.0360 hn        1 G23      0.417400
     50 HN2        -0.3270   -4.5560    2.9130 hn        1 G23      0.320500
     51 HN3        -2.9480    2.8290    3.1310 hn        1 G23      0.326200
     52 C5          4.1410    4.3990   -1.2880 c3        1 G23     -0.108800
     53 C6          2.4660    1.0910   -1.5740 c2        1 G23     -0.066000
     54 C10         1.1190   -3.3440    3.7130 c         1 G23      0.672100
     55 H12         4.1580   -5.6320    4.5360 ha        1 G23      0.150000
     56 H18        -0.2760    4.0720    7.2540 ha        1 G23      0.152000
     57 H22         0.8050   -5.3680    3.8960 hn        1 G23      0.320500
     58 H32        -2.0880    2.7790    1.6530 hn        1 G23      0.326200
     59 H19        -1.9870    5.8900    7.1480 ha        1 G23      0.153000
@<TRIPOS>BOND
     1    1    6 1   
     2    1   21 2   
     3    1   29 1   
     4    2    3 2   
     5    2   28 1   
     6    2   30 1   
     7    3    4 1   
     8    3   31 1   
     9    4   23 2   
    10    4   24 1   
    11    5   26 2   
    12    5   27 2   
    13    6   28 1   
    14    6   53 2   
    15    7   19 1   
    16    7   24 1   
    17    7   38 1   
    18    7   39 1   
    19    8   10 1   
    20    8   40 1   
    21    8   41 1   
    22    8   54 1   
    23    9   10 2   
    24    9   14 1   
    25    9   55 1   
    26   10   11 1   
    27   11   12 1   
    28   11   42 1   
    29   11   43 1   
    30   12   13 2   
    31   12   14 1   
    32   13   14 1   
    33   13   44 1   
    34   14   45 1   
    35   15   16 ar  
    36   15   20 ar  
    37   15   56 1   
    38   16   17 ar  
    39   16   59 1   
    40   17   18 ar  
    41   17   46 1   
    42   18   19 ar  
    43   18   47 1   
    44   19   20 ar  
    45   20   48 1   
    46   21   49 1   
    47   22   50 1   
    48   22   54 1   
    49   22   57 1   
    50   23   51 1   
    51   23   58 1   
    52   25   54 2   
    53   32   52 1   
    54   33   52 1   
    55   34   52 1   
    56   35   53 1   
    57   36   52 1   
    58   37   53 1   
@<TRIPOS>SUBSTRUCTURE
     1 G23         1 TEMP              0 ****  ****    0 ROOT
