@<TRIPOS>MOLECULE
G23
   57    59     1     0     0
SMALL
bcc


@<TRIPOS>ATOM
      1 C1         -2.3230   -0.1580    0.1040 c3        1 G23      0.015500
      2 C2         -0.0540   -0.7860    0.0820 c3        1 G23      0.240600
      3 C3          1.4380   -0.4340    0.2070 c3        1 G23      0.064700
      4 C4          1.8600    0.5390   -0.9330 c         1 G23      0.640100
      5 C7         -2.7700   -0.4300   -1.3760 c         1 G23      0.906600
      6 C8         -2.4310   -1.4100    1.0080 c3        1 G23      0.111100
      7 C9          1.5640    1.3140   -3.2360 c3        1 G23      0.140300
      8 C11         2.8910    0.0640    3.7210 c3        1 G23     -0.109100
      9 C12         0.4330   -0.1020    4.2830 ca        1 G23     -0.125500
     10 C13         1.6760    0.5240    4.4410 ca        1 G23     -0.089300
     11 C14         1.7960    1.5880    5.3460 ca        1 G23     -0.125500
     12 C15         0.6950    2.0160    6.0840 ca        1 G23     -0.131500
     13 C16        -0.5400    1.3870    5.9250 ca        1 G23     -0.136000
     14 C17        -0.6670    0.3320    5.0230 ca        1 G23     -0.131500
     15 C18         1.8390    0.4020   -6.9020 ca        1 G23     -0.139500
     16 C19         0.5690   -0.1100   -7.1670 ca        1 G23     -0.141000
     17 C20        -0.3780   -0.1790   -6.1450 ca        1 G23     -0.139500
     18 C21        -0.0660    0.2670   -4.8600 ca        1 G23     -0.118500
     19 C22         1.2090    0.7820   -4.5950 ca        1 G23     -0.099300
     20 C23         2.1600    0.8430   -5.6200 ca        1 G23     -0.118500
     21 N1         -0.9490    0.3640    0.1760 n3        1 G23     -0.791200
     22 N2          1.7780    0.0880    1.5030 n         1 G23     -0.529900
     23 N3          1.2480    0.4100   -2.1600 n         1 G23     -0.564900
     24 O1          2.7830    1.3640   -0.7670 o         1 G23     -0.633100
     25 O2          3.3290   -1.5390    1.9900 o         1 G23     -0.631100
     26 O3         -1.8570   -0.4950   -2.2570 o         1 G23     -0.838800
     27 O4         -4.0000   -0.5160   -1.6140 o         1 G23     -0.838800
     28 S1         -0.6980   -1.9460    1.3330 ss        1 G23     -0.426200
     29 H1         -3.0000    0.6460    0.5080 h1        1 G23      0.073700
     30 H2         -0.1940   -1.3670   -0.8810 h2        1 G23      0.096700
     31 H3          2.0360   -1.3840    0.0350 h1        1 G23      0.113700
     32 H51        -3.2310   -3.4240    1.0260 hc        1 G23      0.043700
     33 H52        -4.1980   -2.2110    0.0640 hc        1 G23      0.043700
     34 H53        -2.6420   -2.8470   -0.5980 hc        1 G23      0.043700
     35 H61        -3.0190   -1.9470    3.0270 hc        1 G23      0.043700
     36 H62        -2.5100   -0.2160    2.8180 hc        1 G23      0.043700
     37 H63        -4.1230   -0.7730    2.1940 hc        1 G23      0.043700
     38 H91         1.0030    2.2860   -3.0890 h1        1 G23      0.050200
     39 H92         2.6660    1.5530   -3.1880 h1        1 G23      0.050200
     40 H111        3.4010   -0.7250    4.3410 hc        1 G23      0.076700
     41 H112        3.6140    0.9160    3.5950 hc        1 G23      0.076700
     42 H14         2.7670    2.0890    5.4720 ha        1 G23      0.150000
     43 H15         0.8000    2.8530    6.7890 ha        1 G23      0.129000
     44 H16        -1.4100    1.7270    6.5040 ha        1 G23      0.123000
     45 H17        -1.6410   -0.1610    4.8810 ha        1 G23      0.129000
     46 H19         0.3170   -0.4620   -8.1770 ha        1 G23      0.116000
     47 H20        -1.3790   -0.5880   -6.3450 ha        1 G23      0.126500
     48 H21        -0.8320    0.2000   -4.0610 ha        1 G23      0.163000
     49 H23         3.1650    1.2390   -5.4130 ha        1 G23      0.163000
     50 HN1        -0.8050    0.9830   -0.6070 hn        1 G23      0.370800
     51 HN2         1.2310    0.8440    1.8430 hn        1 G23      0.334500
     52 HN3         0.4070   -0.1260   -2.2670 hn        1 G23      0.358500
     53 C5         -3.1660   -2.5440    0.3420 c3        1 G23     -0.084600
     54 C6         -3.0540   -1.0670    2.3390 c3        1 G23     -0.084600
     55 C10         2.6690   -0.5370    2.3420 c         1 G23      0.671100
     56 H12         0.3000   -0.9270    3.5550 ha        1 G23      0.150000
     57 H18         2.5890    0.4550   -7.7040 ha        1 G23      0.126500
@<TRIPOS>BOND
     1    1    5 1   
     2    1    6 1   
     3    1   21 1   
     4    1   29 1   
     5    2    3 1   
     6    2   21 1   
     7    2   28 1   
     8    2   30 1   
     9    3    4 1   
    10    3   22 1   
    11    3   31 1   
    12    4   23 1   
    13    4   24 2   
    14    5   26 1   
    15    5   27 1   
    16    6   28 1   
    17    6   53 1   
    18    6   54 1   
    19    7   19 1   
    20    7   23 1   
    21    7   38 1   
    22    7   39 1   
    23    8   10 1   
    24    8   40 1   
    25    8   41 1   
    26    8   55 1   
    27    9   10 ar  
    28    9   14 ar  
    29    9   56 1   
    30   10   11 ar  
    31   11   12 ar  
    32   11   42 1   
    33   12   13 ar  
    34   12   43 1   
    35   13   14 ar  
    36   13   44 1   
    37   14   45 1   
    38   15   16 ar  
    39   15   20 ar  
    40   15   57 1   
    41   16   17 ar  
    42   16   46 1   
    43   17   18 ar  
    44   17   47 1   
    45   18   19 ar  
    46   18   48 1   
    47   19   20 ar  
    48   20   49 1   
    49   21   50 1   
    50   22   51 1   
    51   22   55 1   
    52   23   52 1   
    53   25   55 2   
    54   32   53 1   
    55   33   53 1   
    56   34   53 1   
    57   35   54 1   
    58   36   54 1   
    59   37   54 1   
@<TRIPOS>SUBSTRUCTURE
     1 G23         1 TEMP              0 ****  ****    0 ROOT
