@<TRIPOS>MOLECULE
G23
   57    54     1     0     0
SMALL
bcc


@<TRIPOS>ATOM
      1 C1         -2.1410    2.6010   -1.5740 c3        1 G23     -0.127000
      2 C2         -0.0730    1.8790   -0.5720 c3        1 G23     -0.085000
      3 C3          0.3430    0.4990   -0.1240 c3        1 G23      0.017000
      4 C4          1.5380    0.0500   -0.9240 c2        1 G23      0.294000
      5 C5         -1.0790    2.9480   -3.9360 c3        1 G23     -0.199500
      6 C6         -1.4440    0.5980   -3.1020 c3        1 G23     -0.199500
      7 C7         -2.0780    3.9860   -1.5330 c2        1 G23      0.348000
      8 C8         -1.0720    2.0350   -2.6960 c3        1 G23     -0.081000
      9 C9          3.1180   -1.8160   -1.4230 c3        1 G23      0.014000
     10 C10        -0.3780    0.5860    2.2920 c1        1 G23      0.308000
     11 C11        -0.1210    1.2950    3.6460 c2        1 G23     -0.139000
     12 C12        -2.2850    1.8170    4.8580 c1        1 G23     -0.143000
     13 C13        -1.2390    0.9310    4.6370 c2        1 G23     -0.099000
     14 C14        -1.1500   -0.2370    5.3820 c2        1 G23     -0.108000
     15 C15        -2.1080   -0.5200    6.3490 c1        1 G23     -0.103000
     16 C16        -3.1540    0.3660    6.5700 c1        1 G23     -0.135750
     17 C17        -3.2430    1.5320    5.8270 c1        1 G23     -0.135750
     18 C18         3.3960   -5.6010   -1.9170 c1        1 G23     -0.136000
     19 C19         3.0580   -5.7330   -3.2630 c1        1 G23     -0.135750
     20 C20         2.7140   -4.6080   -4.0080 c1        1 G23     -0.135750
     21 C21         2.7060   -3.3520   -3.4100 c1        1 G23     -0.120000
     22 C22         3.0440   -3.2180   -2.0640 c2        1 G23     -0.087000
     23 C23         3.3890   -4.3440   -1.3180 c2        1 G23     -0.115000
     24 N1         -1.6420    2.0730   -0.3620 n3        1 G23     -0.268000
     25 N2          0.6850    0.5260    1.2810 n3        1 G23     -0.330000
     26 N3          1.7920   -1.3610   -1.1120 n         1 G23     -0.382000
     27 O1          2.3370    0.8720   -1.3360 o         1 G23     -0.385000
     28 O2         -1.4520    0.0540    2.0770 o         1 G23     -0.390000
     29 O3         -0.9660    4.5620   -1.3910 o         1 G23     -0.555000
     30 O4         -3.1430    4.6720   -1.5960 o         1 G23     -0.555000
     31 S1          0.1950    2.0500   -2.0970 ss        1 G23     -0.169000
     32 H1         -3.0930    2.4640   -1.7590 h1        1 G23      0.104000
     33 H2          0.4160    2.5550   -0.0700 h2        1 G23      0.116000
     34 H3         -0.4000   -0.1270   -0.2670 h1        1 G23      0.150000
     35 H51        -0.8060    3.8550   -3.6770 hc        1 G23      0.085000
     36 H52        -0.4540    2.5980   -4.6030 hc        1 G23      0.085000
     37 H53        -1.9870    2.9750   -4.3190 hc        1 G23      0.085000
     38 H61        -0.6900    0.1870   -3.5840 hc        1 G23      0.085000
     39 H62        -2.2370    0.6170   -3.6870 hc        1 G23      0.085000
     40 H63        -1.6440    0.0730   -2.3000 hc        1 G23      0.085000
     41 H91         3.6500   -1.8590   -0.6010 h1        1 G23      0.097500
     42 H92         3.5380   -1.1920   -2.0510 h1        1 G23      0.097500
     43 H111       -0.1090    2.2690    3.5090 ha        1 G23      0.110000
     44 H112        0.7350    1.0080    4.0040 ha        1 G23      0.110000
     45 H12        -2.2970    2.6790    4.4000 ha        1 G23      0.115000
     46 H14        -0.4190   -0.8560    5.2280 ha        1 G23      0.151000
     47 H15        -2.0000   -1.3050    6.9300 ha        1 G23      0.196000
     48 H16        -3.8240    0.1680    7.2470 ha        1 G23      0.123250
     49 H17        -3.9740    2.1510    5.9820 ha        1 G23      0.123250
     50 H18         3.6390   -6.3940   -1.3920 ha        1 G23      0.125000
     51 H19         3.0630   -6.6210   -3.6860 ha        1 G23      0.123250
     52 H20         2.4600   -4.7040   -4.9480 ha        1 G23      0.123250
     53 H21         2.4640   -2.5630   -3.9330 ha        1 G23      0.140000
     54 H23         3.5480   -4.2630   -0.3580 ha        1 G23      0.136000
     55 HN1        -1.7880    2.6710    0.3140 hn        1 G23      0.196000
     56 HN2         1.5560    0.4270    1.5400 hn        1 G23      0.243000
     57 HN3         1.1040   -1.9540   -1.0800 hn        1 G23      0.248000
@<TRIPOS>BOND
     1    1    7 1   
     2    1    8 1   
     3    1   24 1   
     4    1   32 1   
     5    2    3 1   
     6    2   24 1   
     7    2   31 1   
     8    2   33 1   
     9    3    4 1   
    10    3   25 1   
    11    3   34 1   
    12    4   26 1   
    13    4   27 1   
    14    5    8 1   
    15    5   35 1   
    16    5   36 1   
    17    5   37 1   
    18    6    8 1   
    19    6   38 1   
    20    6   39 1   
    21    6   40 1   
    22    7   29 1   
    23    7   30 1   
    24    8   31 1   
    25    9   22 1   
    26    9   26 1   
    27    9   41 1   
    28    9   42 1   
    29   10   25 1   
    30   10   28 1   
    31   11   13 1   
    32   11   43 1   
    33   11   44 1   
    34   12   13 1   
    35   12   45 1   
    36   13   14 1   
    37   14   15 1   
    38   14   46 1   
    39   15   47 1   
    40   16   17 1   
    41   16   48 1   
    42   17   49 1   
    43   18   23 1   
    44   18   50 1   
    45   19   20 1   
    46   19   51 1   
    47   20   52 1   
    48   21   22 1   
    49   21   53 1   
    50   22   23 1   
    51   23   54 1   
    52   24   55 1   
    53   25   56 1   
    54   26   57 1   
@<TRIPOS>SUBSTRUCTURE
     1 G23         1 TEMP              0 ****  ****    0 ROOT
