@<TRIPOS>MOLECULE
G23
   59    57     1     0     0
SMALL
bcc


@<TRIPOS>ATOM
      1 C1         -2.1580    0.7050    2.2810 c2        1 G23      0.116000
      2 C2         -0.3310   -0.8350    2.5770 c2        1 G23     -0.106000
      3 C3          0.2650   -0.5960    3.7570 c2        1 G23     -0.119000
      4 C4          0.1780    0.6890    4.5110 c2        1 G23      0.325000
      5 C7         -2.9570    1.6400    1.4120 c2        1 G23      0.310000
      6 C8          0.2630    0.7730   -1.9070 c2        1 G23     -0.056000
      7 C9         -5.0940    2.7160    1.1990 c3        1 G23      0.038000
      8 C11         3.2970   -3.9670    5.7500 c3        1 G23     -0.110000
      9 C12         4.3130   -5.6060    7.3250 c2        1 G23     -0.131000
     10 C13         4.4180   -4.7920    6.2450 c2        1 G23     -0.262000
     11 C14         5.6820   -4.7800    5.4420 c3        1 G23     -0.006000
     12 C15         6.5660   -5.8120    5.9090 c1        1 G23     -0.164000
     13 C16         7.2240   -6.7170    6.3520 c1        1 G23     -0.145000
     14 C17         5.2320   -6.5720    7.7310 c1        1 G23     -0.061000
     15 C18        -5.5380    5.7260    3.4430 ca        1 G23     -0.131000
     16 C19        -4.6920    6.6520    2.8310 ca        1 G23     -0.098000
     17 C20        -3.9640    6.2900    1.6970 ca        1 G23     -0.131000
     18 C21        -4.0820    5.0050    1.1730 ca        1 G23     -0.098000
     19 C22        -4.9330    4.0750    1.7820 ca        1 G23     -0.150000
     20 C23        -5.6590    4.4390    2.9210 ca        1 G23     -0.098000
     21 N1         -1.1310    0.0580    1.8120 n3        1 G23     -0.077000
     22 N2          4.3010   -2.0380    6.9810 n         1 G23     -0.406000
     23 N3          1.1500    0.9680    5.4170 n         1 G23     -0.380000
     24 O1         -0.7660    1.4930    4.3010 o         1 G23     -0.436000
     25 O2          2.5830   -1.6750    5.5460 o         1 G23     -0.486000
     26 O3         -4.2210    1.7600    1.8600 os        1 G23     -0.239000
     27 O4         -2.5420    2.2230    0.4110 o         1 G23     -0.312000
     28 S1         -0.0970   -0.4010   -0.9420 s         1 G23     -0.079000
     29 H1         -2.4930    0.6190    3.3450 h4        1 G23      0.245000
     30 H2         -0.1900   -1.8030    2.0470 h4        1 G23      0.194000
     31 H3          0.8940   -1.3970    4.2070 ha        1 G23      0.220000
     32 H51         1.8040    1.0760   -3.3660 hc        1 G23      0.125167
     33 H52         1.0310   -0.5720   -3.4140 hc        1 G23      0.125167
     34 H53         0.1360    0.8810   -4.0400 hc        1 G23      0.125167
     35 H61        -0.4950    2.3520   -0.6350 hc        1 G23      0.125167
     36 H62         1.0690    2.7110   -1.4970 hc        1 G23      0.125167
     37 H63        -0.4900    2.7150   -2.4140 hc        1 G23      0.125167
     38 H91        -4.8860    2.7070    0.0970 h1        1 G23      0.126500
     39 H92         1.8710    0.3120    5.6210 hn        1 G23      0.258000
     40 H111        3.2320   -4.0430    4.6300 hc        1 G23      0.116500
     41 H112        2.3200   -4.3340    6.1690 hc        1 G23      0.116500
     42 H14         6.1820   -3.7730    5.5210 hc        1 G23      0.105000
     43 H15         5.4450   -4.9510    4.3540 hc        1 G23      0.105000
     44 H16         7.8310   -7.5170    6.7010 ha        1 G23      0.241000
     45 H17         5.9290   -6.5180    8.5640 ha        1 G23      0.129000
     46 H20        -3.2990    7.0210    1.2130 ha        1 G23      0.144000
     47 H21        -3.5060    4.7130    0.2810 ha        1 G23      0.138500
     48 H23        -6.3290    3.7110    3.4030 ha        1 G23      0.138500
     49 HN1        -0.8300    0.1390    0.7780 hn        1 G23      0.322000
     50 HN2         4.3580   -1.0750    7.2020 hn        1 G23      0.235000
     51 HN3        -6.1080    2.2810    1.4200 h1        1 G23      0.126500
     52 C5          0.8400    0.5180   -3.2460 c3        1 G23     -0.250000
     53 C6          0.0720    2.2040   -1.5890 c3        1 G23     -0.250000
     54 C10         3.3800   -2.4890    6.0850 c2        1 G23      0.322000
     55 H12         3.3650   -5.6560    7.9060 ha        1 G23      0.174000
     56 H18        -6.1130    6.0120    4.3370 ha        1 G23      0.144000
     57 H22         4.9480   -2.6630    7.3950 hn        1 G23      0.235000
     58 H32         1.0950    1.8090    5.9400 hn        1 G23      0.258000
     59 H19        -4.6010    7.6700    3.2420 ha        1 G23      0.145000
@<TRIPOS>BOND
     1    1    5 1   
     2    1   21 1   
     3    1   29 1   
     4    2    3 1   
     5    2   21 1   
     6    2   30 1   
     7    3    4 1   
     8    3   31 1   
     9    4   23 1   
    10    4   24 1   
    11    5   26 1   
    12    5   27 1   
    13    6   28 1   
    14    6   52 1   
    15    6   53 1   
    16    7   19 1   
    17    7   26 1   
    18    7   38 1   
    19    7   51 1   
    20    8   10 1   
    21    8   40 1   
    22    8   41 1   
    23    8   54 1   
    24    9   10 1   
    25    9   14 1   
    26    9   55 1   
    27   10   11 1   
    28   11   12 1   
    29   11   42 1   
    30   11   43 1   
    31   12   13 1   
    32   13   44 1   
    33   14   45 1   
    34   15   16 1   
    35   15   20 1   
    36   15   56 1   
    37   16   17 1   
    38   16   59 1   
    39   17   18 1   
    40   17   46 1   
    41   18   19 1   
    42   18   47 1   
    43   19   20 1   
    44   20   48 1   
    45   21   49 1   
    46   22   50 1   
    47   22   54 1   
    48   22   57 1   
    49   23   39 1   
    50   23   58 1   
    51   25   54 1   
    52   32   52 1   
    53   33   52 1   
    54   34   52 1   
    55   35   53 1   
    56   36   53 1   
    57   37   53 1   
@<TRIPOS>SUBSTRUCTURE
     1 G23         1 TEMP              0 ****  ****    0 ROOT
