@<TRIPOS>MOLECULE
G24
   51    53     1     0     0
SMALL
bcc


@<TRIPOS>ATOM
      1 CAF        -0.1510   -0.3460   -0.5100 ca        1 G24     -0.122000
      2 CAB         1.0080   -0.6500   -1.2220 ca        1 G24     -0.132500
      3 CAC         2.0960   -1.2330   -0.5720 ca        1 G24     -0.137000
      4 CAD         2.0220   -1.5150    0.7920 ca        1 G24     -0.132500
      5 CAH         0.8640   -1.2100    1.5070 ca        1 G24     -0.122000
      6 CAG        -0.2290   -0.6220    0.8610 ca        1 G24     -0.075300
      7 CAQ        -1.4640   -0.2750    1.6220 c3        1 G24      0.016200
      8 CAP        -2.5120   -1.3290    1.5170 ca        1 G24     -0.094300
      9 CAO        -2.5270   -2.4030    2.4110 ca        1 G24     -0.082000
     10 CBA        -3.5140   -1.2670    0.5300 ca        1 G24      0.111100
     11 OBC        -3.4870   -0.1930   -0.3380 oh        1 G24     -0.506100
     12 CAZ        -4.5000   -2.2600    0.4440 ca        1 G24     -0.214000
     13 CAY        -4.4880   -3.3200    1.3440 ca        1 G24     -0.107000
     14 CAN        -3.5030   -3.4020    2.3360 ca        1 G24     -0.092300
     15 CAM        -3.5410   -4.5390    3.3010 c3        1 G24      0.025200
     16 CAL        -2.2710   -4.7770    4.0440 ca        1 G24     -0.156300
     17 CAX        -1.2860   -5.6300    3.5070 ca        1 G24     -0.039300
     18 CBB        -1.4800   -6.2730    2.1830 c3        1 G24     -0.051800
     19 CAW        -0.1120   -5.8810    4.2110 ca        1 G24     -0.203500
     20 CAK        -2.0530   -4.1810    5.2970 ca        1 G24     -0.039300
     21 CAE        -3.0630   -3.2710    5.8930 c3        1 G24     -0.051800
     22 CAJ        -0.8760   -4.4320    6.0070 ca        1 G24     -0.203500
     23 CAV         0.1000   -5.2820    5.4700 ca        1 G24      0.169100
     24 OAU         1.2860   -5.5960    6.0730 os        1 G24     -0.285900
     25 CAT         1.5340   -4.9850    7.3460 c3        1 G24     -0.011600
     26 CAS         2.9440   -5.4560    7.8120 c         1 G24      0.926600
     27 OAR         3.9330   -4.7820    7.4210 o         1 G24     -0.819800
     28 OAI         2.9820   -6.4370    8.6000 o         1 G24     -0.819800
     29 HAF        -1.0190    0.1020   -1.0180 ha        1 G24      0.140000
     30 HAB         1.0620   -0.4320   -2.2980 ha        1 G24      0.130000
     31 HAC         3.0090   -1.4740   -1.1340 ha        1 G24      0.124000
     32 HAD         2.8740   -1.9820    1.3070 ha        1 G24      0.130000
     33 HAH         0.8080   -1.4420    2.5820 ha        1 G24      0.140000
     34 HAQ1       -1.2050   -0.1200    2.7060 hc        1 G24      0.058700
     35 HAQ2       -1.8780    0.6960    1.2310 hc        1 G24      0.058700
     36 HAO        -1.7460   -2.4690    3.1890 ha        1 G24      0.160000
     37 HBC        -4.2330   -0.2910   -0.9460 ho        1 G24      0.410000
     38 HAZ        -5.2750   -2.2000   -0.3330 ha        1 G24      0.123000
     39 HAY        -5.2590   -4.1020    1.2740 ha        1 G24      0.126000
     40 HAM1       -4.3750   -4.3440    4.0330 hc        1 G24      0.046200
     41 HAM2       -3.8250   -5.4760    2.7430 hc        1 G24      0.046200
     42 HBB1       -1.8040   -5.5180    1.4250 hc        1 G24      0.038033
     43 HBB2       -2.2680   -7.0660    2.2510 hc        1 G24      0.038033
     44 HBB3       -0.5350   -6.7500    1.8250 hc        1 G24      0.038033
     45 HAW         0.6650   -6.5430    3.8030 ha        1 G24      0.145000
     46 HAE1       -3.3770   -2.4970    5.1490 hc        1 G24      0.038033
     47 HAE2       -3.9690   -3.8490    6.2050 hc        1 G24      0.038033
     48 HAE3       -2.6570   -2.7500    6.7940 hc        1 G24      0.038033
     49 HAJ        -0.7200   -3.9610    6.9880 ha        1 G24      0.145000
     50 HAT1        1.5200   -3.8720    7.2330 h1        1 G24      0.020700
     51 HAT2        0.7520   -5.3170    8.0740 h1        1 G24      0.020700
@<TRIPOS>BOND
     1    1    2 ar  
     2    1    6 ar  
     3    1   29 1   
     4    2    3 ar  
     5    2   30 1   
     6    3    4 ar  
     7    3   31 1   
     8    4    5 ar  
     9    4   32 1   
    10    5    6 ar  
    11    5   33 1   
    12    6    7 1   
    13    7    8 1   
    14    7   34 1   
    15    7   35 1   
    16    8    9 ar  
    17    8   10 ar  
    18    9   14 ar  
    19    9   36 1   
    20   10   11 1   
    21   10   12 ar  
    22   11   37 1   
    23   12   13 ar  
    24   12   38 1   
    25   13   14 ar  
    26   13   39 1   
    27   14   15 1   
    28   15   16 1   
    29   15   40 1   
    30   15   41 1   
    31   16   17 ar  
    32   16   20 ar  
    33   17   18 1   
    34   17   19 ar  
    35   18   42 1   
    36   18   43 1   
    37   18   44 1   
    38   19   23 ar  
    39   19   45 1   
    40   20   21 1   
    41   20   22 ar  
    42   21   46 1   
    43   21   47 1   
    44   21   48 1   
    45   22   23 ar  
    46   22   49 1   
    47   23   24 1   
    48   24   25 1   
    49   25   26 1   
    50   25   50 1   
    51   25   51 1   
    52   26   27 1   
    53   26   28 1   
@<TRIPOS>SUBSTRUCTURE
     1 G24         1 TEMP              0 ****  ****    0 ROOT
