@<TRIPOS>MOLECULE
G24
   51    46     1     0     0
SMALL
bcc


@<TRIPOS>ATOM
      1 CAF        -2.4210    0.4430   -4.0840 c1        1 G24     -0.130000
      2 CAB        -2.3860   -0.2530   -5.3200 c1        1 G24     -0.130000
      3 CAC        -2.2130    0.4370   -6.4900 c1        1 G24     -0.130000
      4 CAD        -2.0710    1.8290   -6.4650 c1        1 G24     -0.130000
      5 CAH        -2.1060    2.5220   -5.2350 c1        1 G24     -0.130000
      6 CAG        -2.2800    1.8290   -4.0610 c1        1 G24     -0.060000
      7 CAQ        -2.3800    2.5680   -2.7710 c3        1 G24     -0.076000
      8 CAP        -1.2740    2.0300   -1.7650 c2        1 G24     -0.097000
      9 CAO        -1.6620    1.3900   -0.5580 c2        1 G24     -0.104000
     10 CBA         0.0950    2.2460   -2.0400 c1        1 G24      0.064000
     11 OBC         0.5010    2.8110   -3.3070 o         1 G24     -0.266000
     12 CAZ         1.0400    1.8420   -1.1500 c2        1 G24     -0.208000
     13 CAY         0.6650    1.2180    0.0290 c1        1 G24     -0.079000
     14 CAN        -0.7340    0.9950    0.3130 c1        1 G24     -0.086000
     15 CAM        -1.1580    0.3510    1.6640 c3        1 G24     -0.069000
     16 CAL         0.0870   -0.4550    2.2830 c2        1 G24     -0.150000
     17 CAX         0.5590   -1.5880    1.6460 c2        1 G24     -0.024000
     18 CBB        -0.2590   -2.2140    0.4450 c3        1 G24     -0.178000
     19 CAW         1.6310   -2.2640    2.1640 c1        1 G24     -0.225000
     20 CAK         0.6970   -0.0060    3.4390 c1        1 G24     -0.040000
     21 CAE         0.1040    1.1790    4.2040 c2        1 G24     -0.176000
     22 CAJ         1.7630   -0.6830    3.9500 c2        1 G24     -0.183000
     23 CAV         2.2360   -1.8190    3.3120 c1        1 G24      0.125000
     24 OAU         3.4140   -2.4300    3.7610 os        1 G24     -0.169000
     25 CAT         3.1900   -3.5090    4.7290 c3        1 G24     -0.112000
     26 CAS         4.5300   -4.0630    5.1900 c2        1 G24      0.346000
     27 OAR         5.0560   -5.1180    4.5850 o         1 G24     -0.555000
     28 OAI         5.1580   -3.5070    6.2180 o         1 G24     -0.555000
     29 HAF        -2.5420   -0.0370   -3.2680 ha        1 G24      0.127000
     30 HAB        -2.4850   -1.2150   -5.3350 ha        1 G24      0.130750
     31 HAC        -2.0860   -0.0340   -7.2970 ha        1 G24      0.130750
     32 HAD        -1.9440    2.3310   -7.3140 ha        1 G24      0.130750
     33 HAH        -2.1290    3.4340   -5.2260 ha        1 G24      0.130750
     34 HAQ1       -3.2270    2.4380   -2.4030 hc        1 G24      0.095500
     35 HAQ2       -2.2490    3.4600   -2.9190 hc        1 G24      0.095500
     36 HAO        -2.6550    1.2330   -0.3580 ha        1 G24      0.129000
     37 HBC         1.1250    2.3020   -3.6700 ho        1 G24      0.214000
     38 HAZ         2.0050    1.9950   -1.3450 ha        1 G24      0.132000
     39 HAY         1.3490    1.0810    0.7540 ha        1 G24      0.161000
     40 HAM1       -1.9040   -0.2670    1.5130 hc        1 G24      0.087000
     41 HAM2       -1.4140    0.9910    2.2340 hc        1 G24      0.087000
     42 HBB1       -1.1390   -2.2280    0.6510 hc        1 G24      0.078000
     43 HBB2        0.0370   -3.0880    0.2930 hc        1 G24      0.078000
     44 HBB3       -0.1170   -1.6590   -0.3860 hc        1 G24      0.078000
     45 HAW         1.9830   -3.1070    1.6920 ha        1 G24      0.144000
     46 HAE1        0.4850    1.1980    5.1580 ha        1 G24      0.076667
     47 HAE2        0.3440    2.0460    3.7240 ha        1 G24      0.076667
     48 HAE3       -0.8730    1.0880    4.2440 ha        1 G24      0.076667
     49 HAJ         2.2270   -0.3470    4.8260 ha        1 G24      0.147000
     50 HAT1        2.7480   -3.1910    5.4290 h1        1 G24      0.060500
     51 HAT2        2.6780   -4.2040    4.3180 h1        1 G24      0.060500
@<TRIPOS>BOND
     1    1    6 1   
     2    1   29 1   
     3    2    3 1   
     4    2   30 1   
     5    3   31 1   
     6    4    5 1   
     7    4   32 1   
     8    5   33 1   
     9    6    7 1   
    10    7    8 1   
    11    7   34 1   
    12    7   35 1   
    13    8    9 1   
    14    8   10 1   
    15    9   14 1   
    16    9   36 1   
    17   10   12 1   
    18   11   37 1   
    19   12   13 1   
    20   12   38 1   
    21   13   39 1   
    22   14   15 1   
    23   15   16 1   
    24   15   40 1   
    25   15   41 1   
    26   16   17 1   
    27   16   20 1   
    28   17   18 1   
    29   17   19 1   
    30   18   42 1   
    31   18   43 1   
    32   18   44 1   
    33   19   45 1   
    34   20   22 1   
    35   21   46 1   
    36   21   47 1   
    37   21   48 1   
    38   22   23 1   
    39   22   49 1   
    40   23   24 1   
    41   24   25 1   
    42   25   26 1   
    43   25   50 1   
    44   25   51 1   
    45   26   27 1   
    46   26   28 1   
@<TRIPOS>SUBSTRUCTURE
     1 G24         1 TEMP              0 ****  ****    0 ROOT
