@<TRIPOS>MOLECULE
G24
   51    53     1     0     0
SMALL
bcc


@<TRIPOS>ATOM
      1 CAF        -2.7860    0.5690   -4.2960 ca        1 G24     -0.127500
      2 CAB        -3.6570    1.6550   -4.2140 ca        1 G24     -0.126000
      3 CAC        -3.7690    2.3740   -3.0240 ca        1 G24     -0.134000
      4 CAD        -3.0090    2.0040   -1.9140 ca        1 G24     -0.126000
      5 CAH        -2.1370    0.9200   -1.9940 ca        1 G24     -0.127500
      6 CAG        -2.0200    0.1950   -3.1860 ca        1 G24     -0.088300
      7 CAQ        -1.1090   -0.9840   -3.2570 c3        1 G24      0.005200
      8 CAP         0.3280   -0.6270   -3.0800 ca        1 G24     -0.148300
      9 CAO         0.9640   -0.8790   -1.8610 ca        1 G24     -0.085000
     10 CBA         1.0790   -0.0560   -4.1230 ca        1 G24      0.118100
     11 OBC         0.5510    0.2230   -5.3670 oh        1 G24     -0.513100
     12 CAZ         2.4420    0.2330   -3.9540 ca        1 G24     -0.159000
     13 CAY         3.0510   -0.0370   -2.7340 ca        1 G24     -0.111000
     14 CAN         2.3180   -0.5880   -1.6750 ca        1 G24     -0.093300
     15 CAM         2.9980   -0.8790   -0.3780 c3        1 G24      0.024200
     16 CAL         2.1290   -0.6910    0.8190 ca        1 G24     -0.154300
     17 CAX         1.9570    0.6000    1.3600 ca        1 G24     -0.041300
     18 CBB         2.6260    1.7720    0.7440 c3        1 G24     -0.051800
     19 CAW         1.1590    0.7930    2.4830 ca        1 G24     -0.204000
     20 CAK         1.4950   -1.7820    1.4330 ca        1 G24     -0.041300
     21 CAE         1.6600   -3.1610    0.9070 c3        1 G24     -0.051800
     22 CAJ         0.6930   -1.5920    2.5620 ca        1 G24     -0.204000
     23 CAV         0.5170   -0.3070    3.0920 ca        1 G24      0.169100
     24 OAU        -0.2470   -0.0050    4.1840 os        1 G24     -0.285900
     25 CAT        -0.9330   -1.1000    4.8030 c3        1 G24     -0.011600
     26 CAS        -1.7720   -0.5080    5.9760 c         1 G24      0.926600
     27 OAR        -2.9020   -0.0340    5.6930 o         1 G24     -0.819800
     28 OAI        -1.2800   -0.6110    7.1300 o         1 G24     -0.819800
     29 HAF        -2.7110   -0.0010   -5.2340 ha        1 G24      0.137500
     30 HAB        -4.2560    1.9420   -5.0890 ha        1 G24      0.133500
     31 HAC        -4.4580    3.2280   -2.9600 ha        1 G24      0.128000
     32 HAD        -3.0980    2.5640   -0.9710 ha        1 G24      0.133500
     33 HAH        -1.5340    0.6270   -1.1180 ha        1 G24      0.137500
     34 HAQ1       -1.2380   -1.5110   -4.2440 hc        1 G24      0.057700
     35 HAQ2       -1.4120   -1.7150   -2.4560 hc        1 G24      0.057700
     36 HAO         0.3870   -1.3060   -1.0220 ha        1 G24      0.153000
     37 HBC        -0.4110    0.3030   -5.2660 ho        1 G24      0.423000
     38 HAZ         3.0070    0.6710   -4.7880 ha        1 G24      0.140000
     39 HAY         4.1180    0.1930   -2.5990 ha        1 G24      0.128000
     40 HAM1        3.9050   -0.2200   -0.2800 hc        1 G24      0.046200
     41 HAM2        3.3780   -1.9380   -0.4160 hc        1 G24      0.046200
     42 HBB1        3.7240    1.7440    0.9580 hc        1 G24      0.037867
     43 HBB2        2.4850    1.7660   -0.3660 hc        1 G24      0.037867
     44 HBB3        2.2160    2.7300    1.1480 hc        1 G24      0.037867
     45 HAW         1.0140    1.7940    2.9140 ha        1 G24      0.145000
     46 HAE1        1.4430   -3.1940   -0.1900 hc        1 G24      0.037867
     47 HAE2        2.7090   -3.5140    1.0690 hc        1 G24      0.037867
     48 HAE3        0.9710   -3.8750    1.4220 hc        1 G24      0.037867
     49 HAJ         0.2030   -2.4550    3.0340 ha        1 G24      0.145000
     50 HAT1       -1.6100   -1.5860    4.0570 h1        1 G24      0.021200
     51 HAT2       -0.1830   -1.8330    5.1920 h1        1 G24      0.021200
@<TRIPOS>BOND
     1    1    2 ar  
     2    1    6 ar  
     3    1   29 1   
     4    2    3 ar  
     5    2   30 1   
     6    3    4 ar  
     7    3   31 1   
     8    4    5 ar  
     9    4   32 1   
    10    5    6 ar  
    11    5   33 1   
    12    6    7 1   
    13    7    8 1   
    14    7   34 1   
    15    7   35 1   
    16    8    9 ar  
    17    8   10 ar  
    18    9   14 ar  
    19    9   36 1   
    20   10   11 1   
    21   10   12 ar  
    22   11   37 1   
    23   12   13 ar  
    24   12   38 1   
    25   13   14 ar  
    26   13   39 1   
    27   14   15 1   
    28   15   16 1   
    29   15   40 1   
    30   15   41 1   
    31   16   17 ar  
    32   16   20 ar  
    33   17   18 1   
    34   17   19 ar  
    35   18   42 1   
    36   18   43 1   
    37   18   44 1   
    38   19   23 ar  
    39   19   45 1   
    40   20   21 1   
    41   20   22 ar  
    42   21   46 1   
    43   21   47 1   
    44   21   48 1   
    45   22   23 ar  
    46   22   49 1   
    47   23   24 1   
    48   24   25 1   
    49   25   26 1   
    50   25   50 1   
    51   25   51 1   
    52   26   27 1   
    53   26   28 1   
@<TRIPOS>SUBSTRUCTURE
     1 G24         1 TEMP              0 ****  ****    0 ROOT
