@<TRIPOS>MOLECULE
G24
   51    53     1     0     0
SMALL
bcc


@<TRIPOS>ATOM
      1 CAF        -0.1410   -0.2770   -0.4510 ca        1 G24     -0.122000
      2 CAB         1.0190   -0.5660   -1.1670 ca        1 G24     -0.132500
      3 CAC         2.1060   -1.1610   -0.5270 ca        1 G24     -0.137000
      4 CAD         2.0290   -1.4710    0.8310 ca        1 G24     -0.132500
      5 CAH         0.8700   -1.1810    1.5500 ca        1 G24     -0.122000
      6 CAG        -0.2220   -0.5800    0.9130 ca        1 G24     -0.075300
      7 CAQ        -1.4590   -0.2490    1.6790 c3        1 G24      0.016200
      8 CAP        -2.5070   -1.3020    1.5490 ca        1 G24     -0.094300
      9 CAO        -2.5240   -2.3930    2.4210 ca        1 G24     -0.082000
     10 CBA        -3.5060   -1.2200    0.5610 ca        1 G24      0.111100
     11 OBC        -3.4770   -0.1280   -0.2840 oh        1 G24     -0.506100
     12 CAZ        -4.4920   -2.2110    0.4520 ca        1 G24     -0.214000
     13 CAY        -4.4820   -3.2890    1.3310 ca        1 G24     -0.107000
     14 CAN        -3.4990   -3.3910    2.3240 ca        1 G24     -0.092300
     15 CAM        -3.5400   -4.5480    3.2650 c3        1 G24      0.025200
     16 CAL        -2.2730   -4.7990    4.0080 ca        1 G24     -0.156300
     17 CAX        -1.2840   -5.6400    3.4590 ca        1 G24     -0.039300
     18 CBB        -1.4720   -6.2570    2.1220 c3        1 G24     -0.051800
     19 CAW        -0.1140   -5.9050    4.1630 ca        1 G24     -0.203500
     20 CAK        -2.0610   -4.2280    5.2740 ca        1 G24     -0.039300
     21 CAE        -3.0750   -3.3310    5.8830 c3        1 G24     -0.051800
     22 CAJ        -0.8880   -4.4920    5.9840 ca        1 G24     -0.203500
     23 CAV         0.0920   -5.3310    5.4350 ca        1 G24      0.169100
     24 OAU         1.2750   -5.6550    6.0370 os        1 G24     -0.285900
     25 CAT         1.5160   -5.0700    7.3230 c3        1 G24     -0.011600
     26 CAS         2.9250   -5.5510    7.7870 c         1 G24      0.926600
     27 OAR         3.9140   -4.8680    7.4160 o         1 G24     -0.819800
     28 OAI         2.9590   -6.5480    8.5530 o         1 G24     -0.819800
     29 HAF        -1.0090    0.1810   -0.9520 ha        1 G24      0.140000
     30 HAB         1.0760   -0.3250   -2.2380 ha        1 G24      0.129500
     31 HAC         3.0210   -1.3900   -1.0920 ha        1 G24      0.124000
     32 HAD         2.8810   -1.9480    1.3380 ha        1 G24      0.129500
     33 HAH         0.8110   -1.4350    2.6200 ha        1 G24      0.140000
     34 HAQ1       -1.2030   -0.1180    2.7660 hc        1 G24      0.058700
     35 HAQ2       -1.8720    0.7290    1.3070 hc        1 G24      0.058700
     36 HAO        -1.7450   -2.4750    3.2000 ha        1 G24      0.160000
     37 HBC        -4.2210   -0.2140   -0.8960 ho        1 G24      0.410000
     38 HAZ        -5.2650   -2.1350   -0.3260 ha        1 G24      0.123000
     39 HAY        -5.2520   -4.0690    1.2430 ha        1 G24      0.126000
     40 HAM1       -4.3780   -4.3690    3.9970 hc        1 G24      0.046200
     41 HAM2       -3.8200   -5.4730    2.6860 hc        1 G24      0.046200
     42 HBB1       -1.7930   -5.4870    1.3770 hc        1 G24      0.038033
     43 HBB2       -2.2590   -7.0510    2.1700 hc        1 G24      0.038033
     44 HBB3       -0.5250   -6.7260    1.7580 hc        1 G24      0.038033
     45 HAW         0.6660   -6.5570    3.7460 ha        1 G24      0.145000
     46 HAE1       -3.9820   -3.9160    6.1790 hc        1 G24      0.038033
     47 HAE2       -2.6730   -2.8270    6.7960 hc        1 G24      0.038033
     48 HAE3       -3.3870   -2.5420    5.1530 hc        1 G24      0.038033
     49 HAJ        -0.7370   -4.0410    6.9750 ha        1 G24      0.145000
     50 HAT1        1.5020   -3.9550    7.2330 h1        1 G24      0.020700
     51 HAT2        0.7310   -5.4180    8.0400 h1        1 G24      0.020700
@<TRIPOS>BOND
     1    1    2 ar  
     2    1    6 ar  
     3    1   29 1   
     4    2    3 ar  
     5    2   30 1   
     6    3    4 ar  
     7    3   31 1   
     8    4    5 ar  
     9    4   32 1   
    10    5    6 ar  
    11    5   33 1   
    12    6    7 1   
    13    7    8 1   
    14    7   34 1   
    15    7   35 1   
    16    8    9 ar  
    17    8   10 ar  
    18    9   14 ar  
    19    9   36 1   
    20   10   11 1   
    21   10   12 ar  
    22   11   37 1   
    23   12   13 ar  
    24   12   38 1   
    25   13   14 ar  
    26   13   39 1   
    27   14   15 1   
    28   15   16 1   
    29   15   40 1   
    30   15   41 1   
    31   16   17 ar  
    32   16   20 ar  
    33   17   18 1   
    34   17   19 ar  
    35   18   42 1   
    36   18   43 1   
    37   18   44 1   
    38   19   23 ar  
    39   19   45 1   
    40   20   21 1   
    41   20   22 ar  
    42   21   46 1   
    43   21   47 1   
    44   21   48 1   
    45   22   23 ar  
    46   22   49 1   
    47   23   24 1   
    48   24   25 1   
    49   25   26 1   
    50   25   50 1   
    51   25   51 1   
    52   26   27 1   
    53   26   28 1   
@<TRIPOS>SUBSTRUCTURE
     1 G24         1 TEMP              0 ****  ****    0 ROOT
