@<TRIPOS>MOLECULE
G25
   36    35     1     0     0
SMALL
bcc


@<TRIPOS>ATOM
      1 OP3        -2.0180    3.9140   -2.2700 o         1 G25     -0.920500
      2 P          -0.6020    4.3540   -1.9220 p5        1 G25      1.576500
      3 OP1        -0.5530    4.7900   -0.5260 o         1 G25     -0.920500
      4 OP2        -0.2100    5.4590   -2.7870 o         1 G25     -0.920500
      5 O5'         0.3840    3.1490   -2.1300 os        1 G25     -0.730000
      6 C5'         0.1400    1.9270   -1.4090 c3        1 G25      0.067000
      7 C4'         1.3860    1.0460   -1.4560 c3        1 G25     -0.024000
      8 O4'         1.4410    0.1080   -0.1630 os        1 G25     -0.296000
      9 C3'         1.3270    0.2510   -2.4810 c3        1 G25     -0.074000
     10 O3'         2.7070   -0.0480   -2.9870 oh        1 G25     -0.370000
     11 C2'         0.6530   -1.0470   -1.9470 c3        1 G25     -0.007000
     12 O2'         1.3760   -2.1510   -2.3290 oh        1 G25     -0.340000
     13 C1'         0.6510   -0.9070   -0.4160 c3        1 G25      0.126000
     14 N9         -0.7140   -0.6290    0.0740 n3        1 G25     -0.138000
     15 C8         -2.0190   -0.3200   -0.2180 c1        1 G25     -0.026000
     16 N7         -2.7760   -0.5650    0.9030 n2        1 G25     -0.131000
     17 C5         -1.9510   -1.0190    1.8750 c1        1 G25     -0.207000
     18 C6         -2.2110   -1.4560    3.3220 c1        1 G25      0.387000
     19 O6         -3.3350   -1.2430    3.8440 o         1 G25     -0.383000
     20 N1         -1.1500   -1.8900    4.1160 n3        1 G25     -0.331000
     21 C2          0.2010   -1.9240    3.5680 c2        1 G25      0.117000
     22 N2          1.2710   -2.4220    4.3480 n3        1 G25     -0.301000
     23 N3          0.4410   -1.5020    2.1920 n1        1 G25     -0.181000
     24 C4         -0.6640   -1.0590    1.3590 c1        1 G25     -0.018000
     25 H5'        -0.6700    1.4120   -1.8500 h1        1 G25      0.042000
     26 H5''       -0.0770    2.1350   -0.4700 h1        1 G25      0.042000
     27 H4'         2.2290    1.6260   -1.5070 h1        1 G25      0.090000
     28 H3'         0.7850    0.6490   -3.1890 h1        1 G25      0.250000
     29 HO'3        2.7940    0.2720   -3.8590 ho        1 G25      0.212000
     30 H2'        -0.2890   -1.1140   -2.2900 h1        1 G25      0.182000
     31 HO2'        0.8120   -2.8250   -2.5380 ho        1 G25      0.203000
     32 H1'         0.9940   -1.6990   -0.0120 h2        1 G25      0.111000
     33 H8         -2.3300    0.0330   -1.0180 DU        1 G25      0.348000
     34 H1         -1.2880   -2.0530    5.0320 hn        1 G25      0.232000
     35 H21         1.1140   -2.7240    5.1900 hn        1 G25      0.167000
     36 H22         2.1520   -2.5290    3.9500 hn        1 G25      0.167000
@<TRIPOS>BOND
     1    1    2 1   
     2    2    3 1   
     3    2    4 1   
     4    2    5 1   
     5    5    6 1   
     6    6    7 1   
     7    6   25 1   
     8    6   26 1   
     9    7    8 1   
    10    7    9 1   
    11    7   27 1   
    12    8   13 1   
    13    9   10 1   
    14    9   11 1   
    15    9   28 1   
    16   10   29 1   
    17   11   12 1   
    18   11   13 1   
    19   11   30 1   
    20   12   31 1   
    21   13   14 1   
    22   13   32 1   
    23   14   15 1   
    24   14   24 1   
    25   15   16 1   
    26   16   17 1   
    27   17   24 1   
    28   18   19 1   
    29   18   20 1   
    30   20   21 1   
    31   20   34 1   
    32   21   22 1   
    33   21   23 1   
    34   22   35 1   
    35   22   36 1   
@<TRIPOS>SUBSTRUCTURE
     1 G25         1 TEMP              0 ****  ****    0 ROOT
