@<TRIPOS>MOLECULE
G25
   36    38     1     0     0
SMALL
bcc


@<TRIPOS>ATOM
      1 OP3         6.2170    0.7150   -0.5860 o         1 G25     -0.929500
      2 P           5.9670    1.5540    0.6330 p5        1 G25      1.330900
      3 OP1         7.1410    2.1550    1.3400 o         1 G25     -0.929500
      4 OP2         4.8190    1.0620    1.4930 o         1 G25     -0.929500
      5 O5'         5.1510    2.9350   -0.0660 os        1 G25     -0.552200
      6 C5'         4.0460    2.6060   -0.7960 c3        1 G25      0.229400
      7 C4'         2.7550    2.8670    0.0200 c3        1 G25      0.054100
      8 O4'         1.7130    3.3610   -0.8660 os        1 G25     -0.426600
      9 C3'         2.2220    1.6180    0.7490 c3        1 G25      0.167100
     10 O3'         2.2420    1.7930    2.1420 oh        1 G25     -0.642800
     11 C2'         0.7740    1.4240    0.2410 c3        1 G25      0.095100
     12 O2'        -0.1710    1.6780    1.2580 oh        1 G25     -0.553800
     13 C1'         0.6020    2.4930   -0.8890 c3        1 G25      0.212800
     14 N9          0.4610    1.9160   -2.2270 na        1 G25     -0.182900
     15 C8          1.4620    1.7260   -3.2010 cc        1 G25      0.453400
     16 N7          0.9840    1.2280   -4.3660 nd        1 G25     -0.631000
     17 C5         -0.3850    1.0790   -4.1560 cd        1 G25      0.197800
     18 C6         -1.4300    0.5970   -5.0320 c         1 G25      0.646000
     19 O6         -1.3460    0.2060   -6.2100 o         1 G25     -0.640500
     20 N1         -2.7200    0.5720   -4.4390 n         1 G25     -0.500400
     21 C2         -2.9600    1.0200   -3.1240 cd        1 G25      0.602800
     22 N2         -4.3360    1.0180   -2.7010 nh        1 G25     -0.868800
     23 N3         -2.0130    1.4680   -2.2850 nc        1 G25     -0.630100
     24 C4         -0.7330    1.5060   -2.8180 cc        1 G25      0.048800
     25 H5'         3.9850    3.2630   -1.7160 h1        1 G25     -0.005800
     26 H5''        4.0800    1.5270   -1.1230 h1        1 G25     -0.005800
     27 H4'         2.9330    3.7030    0.7490 h1        1 G25      0.086700
     28 H3'         2.8360    0.7110    0.4740 h1        1 G25      0.119700
     29 HO'3        3.1750    1.6090    2.4010 ho        1 G25      0.494000
     30 H2'         0.6420    0.3800   -0.1480 h1        1 G25      0.040700
     31 HO2'       -1.0270    1.4210    0.8930 ho        1 G25      0.369000
     32 H1'        -0.3190    3.1260   -0.7110 h2        1 G25      0.072700
     33 H8          2.5160    1.9680   -2.9700 h5        1 G25      0.116100
     34 H1         -3.4860    0.3040   -5.0150 hn        1 G25      0.322500
     35 H21        -4.4450    1.4700   -1.8120 hn        1 G25      0.384800
     36 H22        -4.6930    0.0840   -2.6640 hn        1 G25      0.384800
@<TRIPOS>BOND
     1    1    2 1   
     2    2    3 1   
     3    2    4 1   
     4    2    5 1   
     5    5    6 1   
     6    6    7 1   
     7    6   25 1   
     8    6   26 1   
     9    7    8 1   
    10    7    9 1   
    11    7   27 1   
    12    8   13 1   
    13    9   10 1   
    14    9   11 1   
    15    9   28 1   
    16   10   29 1   
    17   11   12 1   
    18   11   13 1   
    19   11   30 1   
    20   12   31 1   
    21   13   14 1   
    22   13   32 1   
    23   14   15 1   
    24   14   24 1   
    25   15   16 2   
    26   15   33 1   
    27   16   17 1   
    28   17   18 1   
    29   17   24 2   
    30   18   19 2   
    31   18   20 1   
    32   20   21 1   
    33   20   34 1   
    34   21   22 1   
    35   21   23 2   
    36   22   35 1   
    37   22   36 1   
    38   23   24 1   
@<TRIPOS>SUBSTRUCTURE
     1 G25         1 TEMP              0 ****  ****    0 ROOT
