@<TRIPOS>MOLECULE
G26
   79    73     1     0     0
SMALL
bcc


@<TRIPOS>ATOM
      1 C          -1.5260    0.7930   -0.8370 c3        1 G26     -0.132000
      2 C1          0.1880    0.6200   -0.8870 c3        1 G26     -0.040000
      3 C2         -0.8630   -0.0350    1.3730 c3        1 G26     -0.109000
      4 C3         -0.7960    0.3920    2.8350 c3        1 G26      0.016000
      5 C4         -2.1530    0.9020    3.2850 c2        1 G26      0.288000
      6 C5         -2.2010   -0.2390   -1.7830 c3        1 G26     -0.209000
      7 C6         -1.9260    2.2260   -1.2550 c3        1 G26     -0.209000
      8 C7          0.5220   -0.5340   -1.5690 c2        1 G26      0.311000
      9 C8          1.0200   -1.6540   -3.7710 c3        1 G26     -0.006000
     10 C9         -3.6630    2.8960    3.5950 c3        1 G26      0.003000
     11 C10        -0.0660   -2.6290   -3.3620 c3        1 G26     -0.032000
     12 C11         0.7570   -0.6500    4.5320 c1        1 G26      0.319000
     13 C12         1.8060   -1.8110    4.5530 c2        1 G26     -0.140000
     14 C13         3.4770   -1.9300    6.4680 c1        1 G26     -0.125000
     15 C14         3.0830   -1.3340    5.2700 c1        1 G26     -0.090000
     16 C15         3.8670   -0.3780    4.6970 c1        1 G26     -0.116000
     17 C16         5.0590    0.0020    5.3060 c1        1 G26     -0.125000
     18 C17         5.4490   -0.5940    6.4990 c1        1 G26     -0.125000
     19 C18         4.6630   -1.5530    7.0740 c1        1 G26     -0.125000
     20 C19         0.8650   -1.3160   -5.2440 c3        1 G26     -0.138000
     21 C20         2.9210   -4.0230   -7.8880 c1        1 G26     -0.125000
     22 C21         1.7320   -4.4080   -7.2970 c1        1 G26     -0.125000
     23 C22         1.1070   -3.5750   -6.4070 c1        1 G26     -0.125000
     24 C23         1.6710   -2.3320   -6.0950 c1        1 G26     -0.081000
     25 C24         2.8560   -1.9470   -6.6830 c1        1 G26     -0.139000
     26 C25         3.4850   -2.7870   -7.5800 c1        1 G26     -0.125000
     27 C26        -3.6250    5.8980    1.2640 c1        1 G26     -0.135000
     28 C27        -4.2990    5.4020    0.1490 c1        1 G26     -0.125000
     29 C28        -4.7580    4.0990    0.1430 c1        1 G26     -0.125000
     30 C29        -4.5440    3.2740    1.2620 c1        1 G26     -0.107000
     31 C30        -3.8680    3.7730    2.3790 c2        1 G26     -0.119000
     32 C31        -3.4120    5.0720    2.3840 c2        1 G26     -0.117000
     33 N           0.5280    0.5980    0.5020 n3        1 G26     -0.263000
     34 N1          0.9150   -0.4570   -2.9930 n         1 G26     -0.369000
     35 N2         -0.4190   -0.7350    3.6440 n3        1 G26     -0.362000
     36 N3         -2.3540    2.3640    3.5770 n         1 G26     -0.345000
     37 O           0.6790   -1.5570   -0.9630 o         1 G26     -0.354000
     38 O1         -3.0470    0.1210    3.4950 o         1 G26     -0.367000
     39 O2          0.9150    0.3350    5.2510 o         1 G26     -0.401000
     40 O4         -0.0810   -3.7410   -4.2770 oh        1 G26     -0.327000
     41 S          -1.9900    0.5020    0.7690 ss        1 G26     -0.062000
     42 H1          0.7210    1.3070   -1.3840 h1        1 G26      0.116000
     43 H2         -0.8810   -1.0110    1.3090 h2        1 G26      0.165000
     44 H3         -0.1510    1.0850    2.9310 h1        1 G26      0.141000
     45 H51        -3.1740   -0.0600   -1.8250 hc        1 G26      0.091500
     46 H52        -2.0490   -1.1500   -1.4380 hc        1 G26      0.091500
     47 H53        -1.8100   -0.1600   -2.6920 hc        1 G26      0.091500
     48 H61        -1.4320    2.8760   -0.7140 hc        1 G26      0.091500
     49 H62        -1.7090    2.3620   -2.2100 hc        1 G26      0.091500
     50 H63        -2.9010    2.3520   -1.1160 hc        1 G26      0.091500
     51 H8          1.8910   -2.0620   -3.6220 h1        1 G26      0.100000
     52 H91        -4.2890    2.1860    3.5840 h1        1 G26      0.109500
     53 H92        -3.7870    3.4190    4.3930 h1        1 G26      0.109500
     54 H101        0.1120   -2.9570   -2.4480 h1        1 G26      0.099000
     55 H102       -0.9230   -2.1850   -3.3820 h1        1 G26      0.099000
     56 H121        1.4290   -2.5900    5.0340 ha        1 G26      0.123500
     57 H122        2.0230   -2.0680    3.6420 ha        1 G26      0.123500
     58 H13         2.9230   -2.6090    6.8740 ha        1 G26      0.133700
     59 H15         3.5900    0.0420    3.8570 ha        1 G26      0.137000
     60 H16         5.6060    0.6690    4.9060 ha        1 G26      0.133700
     61 H17         6.3030   -0.3230    6.9360 ha        1 G26      0.133700
     62 H18         4.9440   -1.9790    7.9280 ha        1 G26      0.133700
     63 H191        1.2110   -0.3870   -5.4120 hc        1 G26      0.107500
     64 H192       -0.0520   -1.3590   -5.4850 hc        1 G26      0.107500
     65 H20         3.3610   -4.6150   -8.5180 ha        1 G26      0.133700
     66 H21         1.3210   -5.3090   -7.5220 ha        1 G26      0.133700
     67 H22         0.2880   -3.8440   -6.0000 ha        1 G26      0.133700
     68 H24         3.2320   -1.1170   -6.4750 ha        1 G26      0.127000
     69 H25         4.3080   -2.5200   -7.9890 ha        1 G26      0.133700
     70 H26        -3.3120    6.7910    1.2680 ha        1 G26      0.130000
     71 H27        -4.4560    6.0090   -0.6730 ha        1 G26      0.133700
     72 H28        -5.2380    3.7450   -0.6530 ha        1 G26      0.133700
     73 H29        -4.8770    2.3330    1.2580 ha        1 G26      0.152000
     74 H31        -2.9400    5.4180    3.1620 ha        1 G26      0.128000
     75 HN          0.6990    1.4280    0.7790 hn        1 G26      0.198000
     76 HN1         1.2030    0.3620   -3.3570 hn        1 G26      0.225000
     77 HN2        -0.9540   -1.5090    3.6480 hn        1 G26      0.258000
     78 HN3        -1.6650    2.8620    3.8670 hn        1 G26      0.237000
     79 HO4        -0.5400   -4.4820   -3.8750 ho        1 G26      0.203000
@<TRIPOS>BOND
     1    1    2 1   
     2    1    6 1   
     3    1    7 1   
     4    1   41 1   
     5    2    8 1   
     6    2   33 1   
     7    2   42 1   
     8    3    4 1   
     9    3   33 1   
    10    3   41 1   
    11    3   43 1   
    12    4    5 1   
    13    4   35 1   
    14    4   44 1   
    15    5   36 1   
    16    5   38 1   
    17    6   45 1   
    18    6   46 1   
    19    6   47 1   
    20    7   48 1   
    21    7   49 1   
    22    7   50 1   
    23    8   34 1   
    24    8   37 1   
    25    9   11 1   
    26    9   20 1   
    27    9   34 1   
    28    9   51 1   
    29   10   31 1   
    30   10   36 1   
    31   10   52 1   
    32   10   53 1   
    33   11   40 1   
    34   11   54 1   
    35   11   55 1   
    36   12   35 1   
    37   12   39 1   
    38   13   15 1   
    39   13   56 1   
    40   13   57 1   
    41   14   19 1   
    42   14   58 1   
    43   15   16 1   
    44   16   59 1   
    45   17   18 1   
    46   17   60 1   
    47   18   61 1   
    48   19   62 1   
    49   20   24 1   
    50   20   63 1   
    51   20   64 1   
    52   21   26 1   
    53   21   65 1   
    54   22   23 1   
    55   22   66 1   
    56   23   67 1   
    57   24   25 1   
    58   25   68 1   
    59   26   69 1   
    60   27   32 1   
    61   27   70 1   
    62   28   29 1   
    63   28   71 1   
    64   29   72 1   
    65   30   31 1   
    66   30   73 1   
    67   31   32 1   
    68   32   74 1   
    69   33   75 1   
    70   34   76 1   
    71   35   77 1   
    72   36   78 1   
    73   40   79 1   
@<TRIPOS>SUBSTRUCTURE
     1 G26         1 TEMP              0 ****  ****    0 ROOT
