@<TRIPOS>MOLECULE
G26
   82    78     1     0     0
SMALL
bcc


@<TRIPOS>ATOM
      1 C        -232.2270   37.4190   76.6030 c3        1 G26     -0.170000
      2 C1       -231.6810   37.9760   77.9360 c3        1 G26     -0.107000
      3 C2       -231.2270   35.5370   78.1090 c3        1 G26     -0.098000
      4 C3       -231.4940   34.4810   79.1270 c2        1 G26     -0.218000
      5 C4       -230.4440   33.7310   79.5100 c1        1 G26      0.315000
      6 C5       -231.2330   37.5580   75.4730 c3        1 G26     -0.218000
      7 C6       -233.5480   38.0590   76.2410 c3        1 G26     -0.218000
      8 C7       -230.6870   39.1390   77.6890 c2        1 G26      0.300000
      9 C8        195.1890 -125.7540 -552.2050 c2        1 G26     -0.152000
     10 C10       194.5500 -126.4910 -553.2830 c1        1 G26      0.040000
     11 C13      -237.1320   30.1200   78.3290 c2        1 G26     -0.192000
     12 C14      -235.6730   34.5200   80.5930 c2        1 G26     -0.016000
     13 C15      -235.8300   33.5720   79.6420 c2        1 G26     -0.216000
     14 C16      -234.7740   32.7450   79.1870 c1        1 G26     -0.086000
     15 C17      -234.9100   31.4810   78.5940 c2        1 G26     -0.179000
     16 C18      -236.0430   30.8050   78.4600 c1        1 G26      0.013000
     17 C19       195.1380 -126.1060 -550.9150 c2        1 G26     -0.238000
     18 C20       195.7620 -123.4500 -547.2890 c2        1 G26      0.278000
     19 C21       194.6330 -124.1180 -547.7320 c2        1 G26     -0.285000
     20 C22       194.5190 -124.9230 -548.8540 c2        1 G26      0.192000
     21 C23       195.5840 -125.2190 -549.8140 c3        1 G26     -0.168000
     22 C24       198.1280 -123.4300 -548.3400 c1        1 G26      0.067000
     23 C25       197.0110 -123.4650 -547.8830 c1        1 G26     -0.284000
     24 C26       529.7770   50.4900  495.0550 c2        1 G26     -0.282000
     25 C27       530.8780   50.6260  495.8860 c2        1 G26      0.215000
     26 C28       531.3220   51.7890  496.5460 c2        1 G26     -0.562000
     27 C29       532.3380   51.9190  497.4120 c1        1 G26      0.500000
     28 C30       528.3310   52.4720  495.6250 c2        1 G26     -0.270000
     29 C31       528.7070   51.3410  494.8470 c2        1 G26      0.167000
     30 N        -231.0210   36.8950   78.7420 n4        1 G26     -0.055000
     31 N1       -231.2050   40.3610   77.3990 n         1 G26     -0.396000
     32 N2       -232.7420   34.3030   79.7350 n         1 G26     -0.350000
     33 N3       -229.4560   36.0730   81.1240 n3        1 G26     -0.448000
     34 O        -229.4590   38.9350   77.7820 o         1 G26     -0.359000
     35 O1       -229.5450   33.0200   79.7940 o         1 G26     -0.077000
     36 S        -232.5670   35.6810   76.9360 ss        1 G26      0.190000
     37 H1       -231.4190   36.8870   79.7050 hn        1 G26      0.289000
     38 H2       -230.0070   37.0850   78.8220 hn        1 G26      0.289000
     39 H3       -230.2770   35.3020   77.5440 hx        1 G26      0.152000
     40 H51      -231.5730   36.9610   74.5900 hc        1 G26      0.106333
     41 H52      -230.2220   37.1950   75.7840 hc        1 G26      0.106333
     42 H53      -231.1410   38.6260   75.1550 hc        1 G26      0.106333
     43 H61      -233.4110   39.1430   76.0070 hc        1 G26      0.106333
     44 H62      -234.2880   37.9590   77.0730 hc        1 G26      0.106333
     45 H63      -233.9690   37.5620   75.3300 hc        1 G26      0.106333
     46 H8        195.5670 -124.7650 -552.5320 ha        1 G26      0.156000
     47 H91       526.7450   53.1580  494.3270 ha        1 G26      0.156500
     48 H92      -229.0440   35.1730   81.2630 hn        1 G26      0.150333
     49 H101       21.8160    5.7430  -27.9490 ha        1 G26      0.000000
     50 H102       22.3910    5.9640  -28.2270 ha        1 G26      0.000000
     51 H121     -234.7030   35.6090   82.1560 hc        1 G26      0.137000
     52 H122     -234.2650   33.8520   82.0550 hc        1 G26      0.137000
     53 H15      -236.5470   35.1490   80.8540 ha        1 G26      0.140000
     54 H16      -236.8260   33.4710   79.1650 ha        1 G26      0.132000
     55 H17      -233.9740   31.0110   78.2270 ha        1 G26      0.166000
     56 H18      -237.4920   29.4240   79.1060 ha        1 G26      0.182000
     57 H191      196.0040 -124.2460 -550.2130 hc        1 G26      0.156000
     58 H192      194.7680 -127.0960 -550.6030 ha        1 G26      0.149000
     59 H20       195.6780 -122.8350 -546.3600 ha        1 G26      0.195000
     60 H21       193.7160 -123.9920 -547.1140 ha        1 G26      0.191000
     61 H22       193.5280 -125.3930 -549.0530 ha        1 G26      0.186000
     62 H24       199.1190 -123.3980 -548.7440 ha        1 G26      0.270000
     63 H25       196.4460 -125.7110 -549.2630 hc        1 G26      0.156000
     64 H27       531.5180   49.7200  496.0020 ha        1 G26      0.171000
     65 H28       530.8120   52.7610  496.3170 ha        1 G26      0.229000
     66 H29       528.8560   52.6500  496.5800 ha        1 G26      0.157000
     67 H31       528.0260   51.0760  494.0050 ha        1 G26      0.167000
     68 HN       -232.5520   38.3530   78.5570 hx        1 G26      0.165000
     69 HN1      -232.1790   40.5070   77.3120 hn        1 G26      0.251500
     70 HN2      -233.4220   33.5010   79.3870 hn        1 G26      0.347000
     71 HN3      -230.2840   36.1400   81.6840 hn        1 G26      0.150333
     72 C11      -233.2010   35.1490   80.7090 c2        1 G26      0.311000
     73 C9        527.3200   53.2920  495.2590 c2        1 G26      0.009000
     74 H13      -237.7680   30.1840   77.4290 ha        1 G26      0.182000
     75 H12      -230.5870   41.1220   77.2330 hn        1 G26      0.251500
     76 H221     -228.8050   36.7690   81.4260 hn        1 G26      0.150333
     77 H32       527.0230   54.1540  495.8790 ha        1 G26      0.156500
     78 O4        195.2670 -127.4100 -553.8810 oh        1 G26     -0.187000
     79 C12      -234.4840   34.7690   81.4370 c3        1 G26     -0.171000
     80 O2       -232.5960   36.1980   81.0600 o         1 G26     -0.463000
     81 H26       529.7530   49.5450  494.4640 ha        1 G26      0.186000
     82 HO4       194.7220 -127.7960 -554.5980 ho        1 G26      0.280000
@<TRIPOS>BOND
     1    1    2 1   
     2    1    6 1   
     3    1    7 1   
     4    1   36 1   
     5    2    8 1   
     6    2   30 1   
     7    2   68 1   
     8    3    4 1   
     9    3   30 1   
    10    3   36 1   
    11    3   39 1   
    12    4    5 1   
    13    4   32 1   
    14    5   35 1   
    15    6   40 1   
    16    6   41 1   
    17    6   42 1   
    18    7   43 1   
    19    7   44 1   
    20    7   45 1   
    21    8   31 1   
    22    8   34 1   
    23    9   10 1   
    24    9   17 1   
    25    9   46 1   
    26   10   78 1   
    27   11   16 1   
    28   11   56 1   
    29   11   74 1   
    30   12   13 1   
    31   12   53 1   
    32   12   79 1   
    33   13   14 1   
    34   13   54 1   
    35   14   15 1   
    36   15   16 1   
    37   15   55 1   
    38   17   21 1   
    39   17   58 1   
    40   18   19 1   
    41   18   23 1   
    42   18   59 1   
    43   19   20 1   
    44   19   60 1   
    45   20   21 1   
    46   20   61 1   
    47   21   57 1   
    48   21   63 1   
    49   22   23 1   
    50   22   62 1   
    51   24   25 1   
    52   24   29 1   
    53   24   81 1   
    54   25   26 1   
    55   25   64 1   
    56   26   27 1   
    57   26   65 1   
    58   28   29 1   
    59   28   66 1   
    60   28   73 1   
    61   29   67 1   
    62   30   37 1   
    63   30   38 1   
    64   31   69 1   
    65   31   75 1   
    66   32   70 1   
    67   32   72 1   
    68   33   48 1   
    69   33   71 1   
    70   33   76 1   
    71   47   73 1   
    72   49   50 1   
    73   51   79 1   
    74   52   79 1   
    75   72   79 1   
    76   72   80 1   
    77   73   77 1   
    78   78   82 1   
@<TRIPOS>SUBSTRUCTURE
     1 G26         1 TEMP              0 ****  ****    0 ROOT
