@<TRIPOS>MOLECULE
G26
   79    82     1     0     0
SMALL
bcc


@<TRIPOS>ATOM
      1 C           3.0100   -0.9850    1.1810 c3        1 G26      0.022100
      2 C1          1.4640   -0.8460    1.2540 c3        1 G26      0.102500
      3 C2          1.5890   -2.4830   -0.5140 c3        1 G26      0.249600
      4 C3          1.1750   -2.0790   -1.9560 c3        1 G26      0.050700
      5 C4         -0.1010   -2.8940   -2.2970 c         1 G26      0.639100
      6 C5          3.5940   -1.6410    2.4100 c3        1 G26     -0.091600
      7 C6          3.6690    0.3510    0.9280 c3        1 G26     -0.091600
      8 C7          1.0130   -0.7850    2.7310 c         1 G26      0.656100
      9 C8          0.9210    0.5720    4.7790 c3        1 G26      0.103700
     10 C10         2.0650   -0.0480    5.6150 c3        1 G26      0.094400
     11 C12         1.5500    1.5290   -3.2050 c3        1 G26     -0.111100
     12 C13         0.3020    2.3880   -1.2110 ca        1 G26     -0.127500
     13 C14         0.3230    2.0830   -2.5780 ca        1 G26     -0.095300
     14 C15        -0.8170    2.3280   -3.3530 ca        1 G26     -0.127500
     15 C16        -1.9610    2.8690   -2.7670 ca        1 G26     -0.126500
     16 C17        -1.9740    3.1720   -1.4050 ca        1 G26     -0.125000
     17 C18        -0.8410    2.9330   -0.6280 ca        1 G26     -0.126500
     18 C19         0.7390    2.0380    5.2080 c3        1 G26     -0.044100
     19 C20        -2.4580    4.0060    3.1390 ca        1 G26     -0.130000
     20 C21        -2.7400    3.0510    4.1160 ca        1 G26     -0.129500
     21 C22        -1.7010    2.4080    4.7860 ca        1 G26     -0.125000
     22 C23        -0.3690    2.7150    4.4840 ca        1 G26     -0.076300
     23 C24        -0.0920    3.6750    3.5030 ca        1 G26     -0.125000
     24 C25        -1.1330    4.3160    2.8330 ca        1 G26     -0.129500
     25 C26        -5.2320   -1.2240   -3.9090 ca        1 G26     -0.134500
     26 C27        -4.7450   -1.2570   -5.2150 ca        1 G26     -0.127000
     27 C28        -3.5360   -1.8980   -5.4920 ca        1 G26     -0.134500
     28 C29        -2.8170   -2.5060   -4.4650 ca        1 G26     -0.115500
     29 C30        -3.3050   -2.4740   -3.1530 ca        1 G26     -0.122300
     30 C31        -4.5130   -1.8280   -2.8780 ca        1 G26     -0.115500
     31 N           0.7620   -1.8900    0.5160 n3        1 G26     -0.808200
     32 N1          1.1220    0.4430    3.3530 n         1 G26     -0.530900
     33 N2          1.0170   -0.6700   -2.1630 n         1 G26     -0.563900
     34 N3         -1.2910   -2.5310   -1.7090 n         1 G26     -0.546900
     35 O           0.5320   -1.7800    3.3090 o         1 G26     -0.609100
     36 O1         -0.0010   -3.8950   -3.0330 o         1 G26     -0.606100
     37 O2          2.3420   -0.5810   -4.0370 o         1 G26     -0.595100
     38 S           3.3260   -2.0480   -0.2380 ss        1 G26     -0.327200
     39 H1          1.1750    0.1270    0.7480 h1        1 G26      0.082700
     40 H2          1.5280   -3.6090   -0.4820 h2        1 G26      0.099700
     41 H3          1.9830   -2.4590   -2.6590 h1        1 G26      0.134700
     42 H51         4.6570   -1.9290    2.2200 hc        1 G26      0.052033
     43 H52         3.5720   -0.9390    3.2840 hc        1 G26      0.052033
     44 H53         3.0170   -2.5600    2.6780 hc        1 G26      0.052033
     45 H61         4.7610    0.2060    0.7410 hc        1 G26      0.052033
     46 H62         3.2220    0.8550    0.0350 hc        1 G26      0.052033
     47 H63         3.5550    1.0220    1.8150 hc        1 G26      0.052033
     48 H8         -0.0180   -0.0080    5.0370 h1        1 G26      0.086700
     49 H91        -2.3210   -4.2200   -2.3850 h1        1 G26      0.068700
     50 H92        -3.1710   -3.1980   -1.1240 h1        1 G26      0.068700
     51 H101        1.8550    0.1130    6.7060 h1        1 G26      0.042200
     52 H102        2.1340   -1.1490    5.4040 h1        1 G26      0.042200
     53 H121        2.4650    1.9290   -2.6880 hc        1 G26      0.085200
     54 H122        1.6080    1.8390   -4.2840 hc        1 G26      0.085200
     55 H15        -0.8100    2.0910   -4.4270 ha        1 G26      0.133500
     56 H16        -2.8540    3.0550   -3.3810 ha        1 G26      0.139000
     57 H17        -2.8770    3.5990   -0.9450 ha        1 G26      0.134000
     58 H18        -0.8500    3.1750    0.4470 ha        1 G26      0.139000
     59 H191        0.5230    2.0390    6.3100 hc        1 G26      0.064700
     60 H192        1.7070    2.5880    5.0550 hc        1 G26      0.064700
     61 H20        -3.2790    4.5150    2.6140 ha        1 G26      0.132000
     62 H21        -3.7840    2.8050    4.3600 ha        1 G26      0.133000
     63 H22        -1.9250    1.6530    5.5540 ha        1 G26      0.131000
     64 H24         0.9510    3.9280    3.2640 ha        1 G26      0.131000
     65 H25        -0.9080    5.0710    2.0660 ha        1 G26      0.133000
     66 H26        -6.1850   -0.7210   -3.6900 ha        1 G26      0.131500
     67 H27        -5.3130   -0.7810   -6.0270 ha        1 G26      0.129000
     68 H28        -3.1510   -1.9270   -6.5220 ha        1 G26      0.131500
     69 H29        -1.8630   -3.0190   -4.6740 ha        1 G26      0.142000
     70 H31        -4.9020   -1.8000   -1.8500 ha        1 G26      0.142000
     71 HN          0.3950   -2.5900    1.1400 hn        1 G26      0.405800
     72 HN1         1.7010    1.1340    2.9330 hn        1 G26      0.312500
     73 HN2         0.4830   -0.1570   -1.5010 hn        1 G26      0.322500
     74 HN3        -1.3470   -1.6650   -1.2260 hn        1 G26      0.317500
     75 C11         1.6650    0.0120   -3.1760 c         1 G26      0.667100
     76 O4          3.2760    0.5950    5.2520 oh        1 G26     -0.612800
     77 C9         -2.5370   -3.1600   -2.0580 c3        1 G26      0.129300
     78 H13         1.1970    2.2020   -0.5970 ha        1 G26      0.133500
     79 HO4         3.9770    0.1730    5.7630 ho        1 G26      0.408000
@<TRIPOS>BOND
     1    1    2 1   
     2    1    6 1   
     3    1    7 1   
     4    1   38 1   
     5    2    8 1   
     6    2   31 1   
     7    2   39 1   
     8    3    4 1   
     9    3   31 1   
    10    3   38 1   
    11    3   40 1   
    12    4    5 1   
    13    4   33 1   
    14    4   41 1   
    15    5   34 1   
    16    5   36 2   
    17    6   42 1   
    18    6   43 1   
    19    6   44 1   
    20    7   45 1   
    21    7   46 1   
    22    7   47 1   
    23    8   32 1   
    24    8   35 2   
    25    9   10 1   
    26    9   18 1   
    27    9   32 1   
    28    9   48 1   
    29   10   51 1   
    30   10   52 1   
    31   10   76 1   
    32   11   13 1   
    33   11   53 1   
    34   11   54 1   
    35   11   75 1   
    36   12   13 ar  
    37   12   17 ar  
    38   12   78 1   
    39   13   14 ar  
    40   14   15 ar  
    41   14   55 1   
    42   15   16 ar  
    43   15   56 1   
    44   16   17 ar  
    45   16   57 1   
    46   17   58 1   
    47   18   22 1   
    48   18   59 1   
    49   18   60 1   
    50   19   20 ar  
    51   19   24 ar  
    52   19   61 1   
    53   20   21 ar  
    54   20   62 1   
    55   21   22 ar  
    56   21   63 1   
    57   22   23 ar  
    58   23   24 ar  
    59   23   64 1   
    60   24   65 1   
    61   25   26 ar  
    62   25   30 ar  
    63   25   66 1   
    64   26   27 ar  
    65   26   67 1   
    66   27   28 ar  
    67   27   68 1   
    68   28   29 ar  
    69   28   69 1   
    70   29   30 ar  
    71   29   77 1   
    72   30   70 1   
    73   31   71 1   
    74   32   72 1   
    75   33   73 1   
    76   33   75 1   
    77   34   74 1   
    78   34   77 1   
    79   37   75 2   
    80   49   77 1   
    81   50   77 1   
    82   76   79 1   
@<TRIPOS>SUBSTRUCTURE
     1 G26         1 TEMP              0 ****  ****    0 ROOT
