@<TRIPOS>MOLECULE
G27
   42    43     1     0     0
SMALL
bcc


@<TRIPOS>ATOM
      1 C12         0.1530   -0.0400   -0.0500 ca        1 G27     -0.127000
      2 C13         1.5380    0.0370    0.0860 ca        1 G27     -0.128000
      3 C14         2.1140    0.1410    1.3510 ca        1 G27     -0.132000
      4 C15         1.3000    0.1680    2.4840 ca        1 G27     -0.128000
      5 C16        -0.0850    0.0900    2.3510 ca        1 G27     -0.127000
      6 C11        -0.6690   -0.0150    1.0820 ca        1 G27     -0.078300
      7 C10        -2.1500   -0.0900    0.9440 c3        1 G27     -0.037100
      8 C9         -2.6700   -1.4750    1.2840 c3        1 G27     -0.079400
      9 C8         -4.1970   -1.4790    1.2260 c3        1 G27      0.171800
     10 N1         -4.7920   -2.8090    1.2690 n3        1 G27     -0.725600
     11 C7         -6.2250   -2.7550    1.0050 c3        1 G27      0.168800
     12 C2         -4.4730   -3.5340    2.4880 c3        1 G27      0.135800
     13 C3         -5.0940   -4.9400    2.5180 c3        1 G27      0.102100
     14 O3         -4.9170   -5.5250    3.8010 oh        1 G27     -0.610800
     15 C4         -6.6130   -4.8710    2.2910 c3        1 G27      0.150100
     16 O4         -7.1600   -6.1760    2.1840 oh        1 G27     -0.603800
     17 C5         -6.8910   -4.1350    0.9810 c3        1 G27     -0.064700
     18 C6         -8.3950   -3.9850    0.7800 c3        1 G27      0.133400
     19 O6         -8.6010   -3.4180   -0.5050 oh        1 G27     -0.605800
     20 H12        -0.2960   -0.1220   -1.0510 ha        1 G27      0.131000
     21 H13         2.1780    0.0170   -0.8090 ha        1 G27      0.130500
     22 H14         3.2070    0.2030    1.4570 ha        1 G27      0.131000
     23 H15         1.7500    0.2510    3.4830 ha        1 G27      0.130500
     24 H16        -0.7270    0.1120    3.2440 ha        1 G27      0.131000
     25 H101       -2.4510    0.1750   -0.1050 hc        1 G27      0.048700
     26 H102       -2.6250    0.6660    1.6270 hc        1 G27      0.048700
     27 H91        -2.3200   -1.7590    2.3110 hc        1 G27      0.052200
     28 H92        -2.2490   -2.2230    0.5630 hc        1 G27      0.052200
     29 H81        -4.5860   -0.8240    2.0610 h1        1 G27      0.033700
     30 H82        -4.5160   -1.0090    0.2520 h1        1 G27      0.033700
     31 H71        -6.7610   -2.1110    1.7650 h1        1 G27      0.044700
     32 H72        -6.3750   -2.2860   -0.0090 h1        1 G27      0.044700
     33 H21        -3.3530   -3.6430    2.5430 h1        1 G27      0.038700
     34 H22        -4.8090   -2.9830    3.4160 h1        1 G27      0.038700
     35 H3         -4.6250   -5.5980    1.7350 h1        1 G27      0.062700
     36 HO3        -3.9670   -5.5870    3.9530 ho        1 G27      0.408000
     37 H4         -7.0960   -4.3370    3.1580 h1        1 G27      0.046700
     38 HO4        -6.8650   -6.6600    2.9670 ho        1 G27      0.418000
     39 H5         -6.4760   -4.7370    0.1260 hc        1 G27      0.089700
     40 H61        -8.8360   -3.3070    1.5600 h1        1 G27      0.035200
     41 H62        -8.8800   -4.9950    0.8510 h1        1 G27      0.035200
     42 HO6        -9.5360   -3.5350   -0.7090 ho        1 G27      0.401000
@<TRIPOS>BOND
     1    1    2 ar  
     2    1    6 ar  
     3    1   20 1   
     4    2    3 ar  
     5    2   21 1   
     6    3    4 ar  
     7    3   22 1   
     8    4    5 ar  
     9    4   23 1   
    10    5    6 ar  
    11    5   24 1   
    12    6    7 1   
    13    7    8 1   
    14    7   25 1   
    15    7   26 1   
    16    8    9 1   
    17    8   27 1   
    18    8   28 1   
    19    9   10 1   
    20    9   29 1   
    21    9   30 1   
    22   10   11 1   
    23   10   12 1   
    24   11   17 1   
    25   11   31 1   
    26   11   32 1   
    27   12   13 1   
    28   12   33 1   
    29   12   34 1   
    30   13   14 1   
    31   13   15 1   
    32   13   35 1   
    33   14   36 1   
    34   15   16 1   
    35   15   17 1   
    36   15   37 1   
    37   16   38 1   
    38   17   18 1   
    39   17   39 1   
    40   18   19 1   
    41   18   40 1   
    42   18   41 1   
    43   19   42 1   
@<TRIPOS>SUBSTRUCTURE
     1 G27         1 TEMP              0 ****  ****    0 ROOT
