@<TRIPOS>MOLECULE
G27
   42    43     1     0     0
SMALL
bcc


@<TRIPOS>ATOM
      1 C12         0.1570   -0.0590   -0.0470 ca        1 G27     -0.127000
      2 C13         1.5420    0.0200    0.0930 ca        1 G27     -0.128000
      3 C14         2.1130    0.1420    1.3590 ca        1 G27     -0.132000
      4 C15         1.2940    0.1850    2.4880 ca        1 G27     -0.128000
      5 C16        -0.0900    0.1070    2.3500 ca        1 G27     -0.127000
      6 C11        -0.6700   -0.0160    1.0810 ca        1 G27     -0.078300
      7 C10        -2.1490   -0.0910    0.9390 c3        1 G27     -0.037100
      8 C9         -2.6710   -1.4750    1.2830 c3        1 G27     -0.079400
      9 C8         -4.1970   -1.4800    1.2210 c3        1 G27      0.171800
     10 N1         -4.7920   -2.8100    1.2660 n3        1 G27     -0.725600
     11 C7         -6.2260   -2.7560    1.0020 c3        1 G27      0.168800
     12 C2         -4.4740   -3.5320    2.4870 c3        1 G27      0.135800
     13 C3         -5.0950   -4.9380    2.5190 c3        1 G27      0.102100
     14 O3         -4.9180   -5.5220    3.8030 oh        1 G27     -0.610800
     15 C4         -6.6140   -4.8700    2.2920 c3        1 G27      0.150100
     16 O4         -7.1610   -6.1750    2.1870 oh        1 G27     -0.603800
     17 C5         -6.8910   -4.1350    0.9800 c3        1 G27     -0.064700
     18 C6         -8.3960   -3.9860    0.7800 c3        1 G27      0.133400
     19 O6         -8.6020   -3.4200   -0.5060 oh        1 G27     -0.605800
     20 H12        -0.2890   -0.1550   -1.0480 ha        1 G27      0.131000
     21 H13         2.1850   -0.0150   -0.7990 ha        1 G27      0.130500
     22 H14         3.2050    0.2040    1.4680 ha        1 G27      0.131000
     23 H15         1.7410    0.2830    3.4880 ha        1 G27      0.130500
     24 H16        -0.7350    0.1430    3.2410 ha        1 G27      0.131000
     25 H101       -2.4470    0.1680   -0.1130 hc        1 G27      0.048700
     26 H102       -2.6280    0.6670    1.6150 hc        1 G27      0.048700
     27 H91        -2.3240   -1.7540    2.3120 hc        1 G27      0.052200
     28 H92        -2.2480   -2.2260    0.5670 hc        1 G27      0.052200
     29 H81        -4.5140   -1.0120    0.2440 h1        1 G27      0.033700
     30 H82        -4.5890   -0.8220    2.0530 h1        1 G27      0.033700
     31 H71        -6.3760   -2.2880   -0.0130 h1        1 G27      0.044700
     32 H72        -6.7620   -2.1110    1.7610 h1        1 G27      0.044700
     33 H21        -3.3540   -3.6420    2.5410 h1        1 G27      0.038700
     34 H22        -4.8090   -2.9800    3.4140 h1        1 G27      0.038700
     35 H3         -4.6260   -5.5970    1.7370 h1        1 G27      0.062700
     36 HO3        -3.9680   -5.5830    3.9550 ho        1 G27      0.408000
     37 H4         -7.0970   -4.3340    3.1580 h1        1 G27      0.046700
     38 HO4        -6.8670   -6.6580    2.9700 ho        1 G27      0.418000
     39 H5         -6.4770   -4.7400    0.1270 hc        1 G27      0.089700
     40 H61        -8.8360   -3.3070    1.5590 h1        1 G27      0.035200
     41 H62        -8.8810   -4.9960    0.8520 h1        1 G27      0.035200
     42 HO6        -9.5370   -3.5380   -0.7100 ho        1 G27      0.401000
@<TRIPOS>BOND
     1    1    2 ar  
     2    1    6 ar  
     3    1   20 1   
     4    2    3 ar  
     5    2   21 1   
     6    3    4 ar  
     7    3   22 1   
     8    4    5 ar  
     9    4   23 1   
    10    5    6 ar  
    11    5   24 1   
    12    6    7 1   
    13    7    8 1   
    14    7   25 1   
    15    7   26 1   
    16    8    9 1   
    17    8   27 1   
    18    8   28 1   
    19    9   10 1   
    20    9   29 1   
    21    9   30 1   
    22   10   11 1   
    23   10   12 1   
    24   11   17 1   
    25   11   31 1   
    26   11   32 1   
    27   12   13 1   
    28   12   33 1   
    29   12   34 1   
    30   13   14 1   
    31   13   15 1   
    32   13   35 1   
    33   14   36 1   
    34   15   16 1   
    35   15   17 1   
    36   15   37 1   
    37   16   38 1   
    38   17   18 1   
    39   17   39 1   
    40   18   19 1   
    41   18   40 1   
    42   18   41 1   
    43   19   42 1   
@<TRIPOS>SUBSTRUCTURE
     1 G27         1 TEMP              0 ****  ****    0 ROOT
