@<TRIPOS>MOLECULE
G27
   42    43     1     0     0
SMALL
bcc


@<TRIPOS>ATOM
      1 C12         0.1560   -0.0550   -0.0520 ca        1 G27     -0.127000
      2 C13         1.5420    0.0190    0.0820 ca        1 G27     -0.128000
      3 C14         2.1190    0.1280    1.3460 ca        1 G27     -0.132000
      4 C15         1.3060    0.1620    2.4790 ca        1 G27     -0.128000
      5 C16        -0.0790    0.0880    2.3480 ca        1 G27     -0.127000
      6 C11        -0.6650   -0.0210    1.0810 ca        1 G27     -0.078300
      7 C10        -2.1450   -0.0920    0.9450 c3        1 G27     -0.037100
      8 C9         -2.6680   -1.4760    1.2830 c3        1 G27     -0.079400
      9 C8         -4.1950   -1.4770    1.2280 c3        1 G27      0.171800
     10 N1         -4.7940   -2.8060    1.2690 n3        1 G27     -0.725600
     11 C7         -6.2280   -2.7470    1.0110 c3        1 G27      0.168800
     12 C2         -4.4720   -3.5360    2.4840 c3        1 G27      0.135800
     13 C3         -5.0970   -4.9410    2.5110 c3        1 G27      0.102100
     14 O3         -4.9160   -5.5320    3.7910 oh        1 G27     -0.610800
     15 C4         -6.6160   -4.8670    2.2910 c3        1 G27      0.150100
     16 O4         -7.1670   -6.1700    2.1800 oh        1 G27     -0.603800
     17 C5         -6.8970   -4.1250    0.9840 c3        1 G27     -0.064700
     18 C6         -8.4020   -3.9700    0.7910 c3        1 G27      0.133400
     19 O6         -8.6120   -3.3970   -0.4910 oh        1 G27     -0.605800
     20 H12        -0.2950   -0.1400   -1.0520 ha        1 G27      0.131000
     21 H13         2.1800   -0.0080   -0.8140 ha        1 G27      0.130500
     22 H14         3.2120    0.1870    1.4500 ha        1 G27      0.131000
     23 H15         1.7580    0.2490    3.4780 ha        1 G27      0.130500
     24 H16        -0.7190    0.1170    3.2420 ha        1 G27      0.131000
     25 H101       -2.4470    0.1740   -0.1040 hc        1 G27      0.048700
     26 H102       -2.6190    0.6630    1.6290 hc        1 G27      0.048700
     27 H91        -2.3180   -1.7630    2.3090 hc        1 G27      0.052200
     28 H92        -2.2510   -2.2250    0.5610 hc        1 G27      0.052200
     29 H81        -4.5820   -0.8230    2.0660 h1        1 G27      0.033700
     30 H82        -4.5150   -1.0030    0.2560 h1        1 G27      0.033700
     31 H71        -6.7590   -2.1050    1.7760 h1        1 G27      0.044700
     32 H72        -6.3810   -2.2740   -0.0010 h1        1 G27      0.044700
     33 H21        -3.3520   -3.6490    2.5330 h1        1 G27      0.038700
     34 H22        -4.8020   -2.9880    3.4160 h1        1 G27      0.038700
     35 H3         -4.6320   -5.5960    1.7230 h1        1 G27      0.062700
     36 HO3        -3.9650   -5.5960    3.9380 ho        1 G27      0.408000
     37 H4         -7.0940   -4.3350    3.1610 h1        1 G27      0.046700
     38 HO4        -6.8700   -6.6580    2.9600 ho        1 G27      0.418000
     39 H5         -6.4880   -4.7250    0.1260 hc        1 G27      0.089700
     40 H61        -8.8380   -3.2940    1.5750 h1        1 G27      0.035200
     41 H62        -8.8900   -4.9800    0.8600 h1        1 G27      0.035200
     42 HO6        -9.5480   -3.5110   -0.6920 ho        1 G27      0.401000
@<TRIPOS>BOND
     1    1    2 ar  
     2    1    6 ar  
     3    1   20 1   
     4    2    3 ar  
     5    2   21 1   
     6    3    4 ar  
     7    3   22 1   
     8    4    5 ar  
     9    4   23 1   
    10    5    6 ar  
    11    5   24 1   
    12    6    7 1   
    13    7    8 1   
    14    7   25 1   
    15    7   26 1   
    16    8    9 1   
    17    8   27 1   
    18    8   28 1   
    19    9   10 1   
    20    9   29 1   
    21    9   30 1   
    22   10   11 1   
    23   10   12 1   
    24   11   17 1   
    25   11   31 1   
    26   11   32 1   
    27   12   13 1   
    28   12   33 1   
    29   12   34 1   
    30   13   14 1   
    31   13   15 1   
    32   13   35 1   
    33   14   36 1   
    34   15   16 1   
    35   15   17 1   
    36   15   37 1   
    37   16   38 1   
    38   17   18 1   
    39   17   39 1   
    40   18   19 1   
    41   18   40 1   
    42   18   41 1   
    43   19   42 1   
@<TRIPOS>SUBSTRUCTURE
     1 G27         1 TEMP              0 ****  ****    0 ROOT
