@<TRIPOS>MOLECULE
G27
   42    43     1     0     0
SMALL
bcc


@<TRIPOS>ATOM
      1 C12        -4.6410    1.1220    0.8110 ca        1 G27     -0.127000
      2 C13        -5.8660    0.5780    1.1950 ca        1 G27     -0.128000
      3 C14        -6.3830   -0.5300    0.5240 ca        1 G27     -0.132000
      4 C15        -5.6700   -1.0930   -0.5350 ca        1 G27     -0.128000
      5 C16        -4.4460   -0.5500   -0.9210 ca        1 G27     -0.127000
      6 C11        -3.9220    0.5610   -0.2510 ca        1 G27     -0.078300
      7 C10        -2.6180    1.1420   -0.6710 c3        1 G27     -0.037100
      8 C9         -1.4510    0.3160   -0.1610 c3        1 G27     -0.079400
      9 C8         -0.1410    0.8880   -0.6970 c3        1 G27      0.171800
     10 N1          1.0530    0.3460   -0.0600 n3        1 G27     -0.725600
     11 C7          2.2480    1.0740   -0.4730 c3        1 G27      0.168800
     12 C2          1.1850   -1.0910   -0.2320 c3        1 G27      0.135800
     13 C3          2.4400   -1.6550    0.4540 c3        1 G27      0.102100
     14 O3          2.6230   -3.0180    0.0940 oh        1 G27     -0.610800
     15 C4          3.7020   -0.9180   -0.0240 c3        1 G27      0.150100
     16 O4          4.8380   -1.3470    0.7100 oh        1 G27     -0.603800
     17 C5          3.5260    0.5820    0.2140 c3        1 G27     -0.064700
     18 C6          4.7340    1.3370   -0.3300 c3        1 G27      0.133400
     19 O6          4.5850    2.7010    0.0320 oh        1 G27     -0.605800
     20 H12        -4.2380    1.9960    1.3430 ha        1 G27      0.131000
     21 H13        -6.4250    1.0250    2.0300 ha        1 G27      0.130500
     22 H14        -7.3490   -0.9580    0.8270 ha        1 G27      0.131000
     23 H15        -6.0760   -1.9660   -1.0680 ha        1 G27      0.130500
     24 H16        -3.8860   -0.9950   -1.7570 ha        1 G27      0.131000
     25 H101       -2.5250    2.1940   -0.2880 hc        1 G27      0.048700
     26 H102       -2.5770    1.1930   -1.7930 hc        1 G27      0.048700
     27 H91        -1.5770   -0.7470   -0.4970 hc        1 G27      0.052200
     28 H92        -1.4490    0.3180    0.9600 hc        1 G27      0.052200
     29 H81        -0.1360    2.0010   -0.5090 h1        1 G27      0.033700
     30 H82        -0.1180    0.7360   -1.8180 h1        1 G27      0.033700
     31 H71         2.1080    2.1580   -0.1960 h1        1 G27      0.044700
     32 H72         2.3990    1.0210   -1.5920 h1        1 G27      0.044700
     33 H21         0.2820   -1.5790    0.2320 h1        1 G27      0.038700
     34 H22         1.2160   -1.3930   -1.3210 h1        1 G27      0.038700
     35 H3          2.3530   -1.5680    1.5730 h1        1 G27      0.062700
     36 HO3         1.8440   -3.4960    0.4000 ho        1 G27      0.408000
     37 H4          3.8660   -1.1310   -1.1180 h1        1 G27      0.046700
     38 HO4         4.8540   -2.3120    0.6470 ho        1 G27      0.418000
     39 H5          3.4560    0.7720    1.3200 hc        1 G27      0.089700
     40 H61         4.7860    1.2530   -1.4490 h1        1 G27      0.035200
     41 H62         5.6710    0.9070    0.1170 h1        1 G27      0.035200
     42 HO6         5.4410    3.1180   -0.1150 ho        1 G27      0.401000
@<TRIPOS>BOND
     1    1    2 ar  
     2    1    6 ar  
     3    1   20 1   
     4    2    3 ar  
     5    2   21 1   
     6    3    4 ar  
     7    3   22 1   
     8    4    5 ar  
     9    4   23 1   
    10    5    6 ar  
    11    5   24 1   
    12    6    7 1   
    13    7    8 1   
    14    7   25 1   
    15    7   26 1   
    16    8    9 1   
    17    8   27 1   
    18    8   28 1   
    19    9   10 1   
    20    9   29 1   
    21    9   30 1   
    22   10   11 1   
    23   10   12 1   
    24   11   17 1   
    25   11   31 1   
    26   11   32 1   
    27   12   13 1   
    28   12   33 1   
    29   12   34 1   
    30   13   14 1   
    31   13   15 1   
    32   13   35 1   
    33   14   36 1   
    34   15   16 1   
    35   15   17 1   
    36   15   37 1   
    37   16   38 1   
    38   17   18 1   
    39   17   39 1   
    40   18   19 1   
    41   18   40 1   
    42   18   41 1   
    43   19   42 1   
@<TRIPOS>SUBSTRUCTURE
     1 G27         1 TEMP              0 ****  ****    0 ROOT
