@<TRIPOS>MOLECULE
G28
   43    42     1     0     0
SMALL
bcc


@<TRIPOS>ATOM
      1 C1         -3.7870    1.1480    0.8440 c1        1 G28      0.354000
      2 O1A        -4.4720    0.0670    0.8540 os        1 G28     -0.550000
      3 O1B        -4.3720    2.2640    0.7980 o         1 G28     -0.561000
      4 C2         -2.2760    1.0840    0.8290 c3        1 G28     -0.074000
      5 C3         -1.7130    1.0350    2.2180 c3        1 G28     -0.176000
      6 C4         -0.2520    0.8610    2.2570 c3        1 G28     -0.042000
      7 C5          0.2170   -0.2960    1.4630 c3        1 G28     -0.027000
      8 N5         -0.2410   -1.5260    2.1170 n         1 G28     -0.362000
      9 C10         0.6590   -2.2710    2.9460 c2        1 G28      0.298000
     10 O10         1.8130   -1.8780    3.1080 o         1 G28     -0.395000
     11 C11         0.1800   -3.5350    3.6520 c3        1 G28     -0.243000
     12 C6         -0.2820   -0.3000    0.0350 c3        1 G28     -0.001000
     13 O6         -1.7740   -0.1300    0.0260 os        1 G28     -0.244000
     14 C7          0.4270    0.7350   -0.8290 c2        1 G28      0.285000
     15 O7          0.7320    1.8090   -0.3590 o         1 G28     -0.425000
     16 N8          0.8590    0.3810   -2.1760 n         1 G28     -0.313000
     17 C81        -0.1000    0.3550   -3.2600 c3        1 G28     -0.038500
     18 C82         0.0620   -0.9250   -4.0360 c3        1 G28     -0.226000
     19 C9          2.2890    0.1690   -2.4580 c3        1 G28     -0.038500
     20 C91         2.8620    1.4170   -3.1600 c3        1 G28     -0.226000
     21 N4          0.3840    2.0840    1.7260 n3        1 G28     -0.329000
     22 H2         -2.0540    1.9260    0.3820 h1        1 G28      0.067000
     23 H31        -2.1230    0.2990    2.6930 hc        1 G28      0.105500
     24 H32        -1.9390    1.8630    2.6740 hc        1 G28      0.105500
     25 H4          0.0270    0.7380    3.1850 h1        1 G28      0.092000
     26 H5          1.2020   -0.2910    1.4520 h1        1 G28      0.141000
     27 HN5        -1.0750   -1.8660    1.9230 hn        1 G28      0.240000
     28 H111       -0.1230   -4.1840    2.9880 hc        1 G28      0.098333
     29 H112       -0.5650   -3.3110    4.2590 hc        1 G28      0.098333
     30 H113        0.9250   -3.9220    4.1740 hc        1 G28      0.098333
     31 H6         -0.0310   -1.1100   -0.4080 h1        1 G28      0.119000
     32 H811        0.0560    1.1200   -3.8530 h1        1 G28      0.108000
     33 H812       -1.0060    0.4030   -2.8980 h1        1 G28      0.108000
     34 H821        0.7800   -0.8230   -4.6920 hc        1 G28      0.074167
     35 H822        0.2870   -1.6590   -3.4150 hc        1 G28      0.074167
     36 H823       -0.7840   -1.1360   -4.5040 hc        1 G28      0.074167
     37 H91         2.7850    0.0130   -1.5930 h1        1 G28      0.108000
     38 H92         2.3980   -0.6310   -3.0560 h1        1 G28      0.108000
     39 H911        2.6710    1.3690   -4.1260 hc        1 G28      0.074167
     40 H912        3.8130    1.4550   -3.0230 hc        1 G28      0.074167
     41 H913        2.4480    2.2180   -2.7870 hc        1 G28      0.074167
     42 HN41       -0.1200    2.8110    1.9500 hn        1 G28      0.146000
     43 HN42        1.2130    2.1710    2.0810 hn        1 G28      0.146000
@<TRIPOS>BOND
     1    1    3 1   
     2    1    4 1   
     3    4    5 1   
     4    4   13 1   
     5    4   22 1   
     6    5    6 1   
     7    5   23 1   
     8    5   24 1   
     9    6    7 1   
    10    6   21 1   
    11    6   25 1   
    12    7    8 1   
    13    7   12 1   
    14    7   26 1   
    15    8    9 1   
    16    8   27 1   
    17    9   10 1   
    18    9   11 1   
    19   11   28 1   
    20   11   29 1   
    21   11   30 1   
    22   12   13 1   
    23   12   14 1   
    24   12   31 1   
    25   14   15 1   
    26   14   16 1   
    27   16   17 1   
    28   16   19 1   
    29   17   18 1   
    30   17   32 1   
    31   17   33 1   
    32   18   34 1   
    33   18   35 1   
    34   18   36 1   
    35   19   20 1   
    36   19   37 1   
    37   19   38 1   
    38   20   39 1   
    39   20   40 1   
    40   20   41 1   
    41   21   42 1   
    42   21   43 1   
@<TRIPOS>SUBSTRUCTURE
     1 G28         1 TEMP              0 ****  ****    0 ROOT
