@<TRIPOS>MOLECULE
G28
   43    43     1     0     0
SMALL
bcc


@<TRIPOS>ATOM
      1 C1          3.4960   -0.6180   -0.9590 c         1 G28      0.932600
      2 O1A         4.5280   -0.7030   -0.2470 o         1 G28     -0.823800
      3 O1B         3.3590   -1.0800   -2.1240 o         1 G28     -0.823800
      4 C2          2.2930    0.1990   -0.3620 c3        1 G28     -0.007900
      5 C3          1.9470    1.3080   -1.3400 c3        1 G28     -0.142400
      6 C4          0.5760    1.9420   -1.0980 c3        1 G28      0.159500
      7 C5         -0.4900    0.8060   -0.9810 c3        1 G28      0.080700
      8 N5         -0.6920    0.1940   -2.2810 n         1 G28     -0.537900
      9 C10        -1.8900   -0.3950   -2.6270 c         1 G28      0.650100
     10 O10        -2.9320   -0.2360   -1.9520 o         1 G28     -0.646100
     11 C11        -1.9150   -1.1970   -3.9090 c3        1 G28     -0.175100
     12 C6         -0.0500   -0.2610    0.0570 c3        1 G28      0.059100
     13 O6          1.2440   -0.7560   -0.1860 os        1 G28     -0.370600
     14 C7         -0.2340    0.2350    1.4940 c         1 G28      0.643100
     15 O7          0.7170    0.6860    2.1650 o         1 G28     -0.606100
     16 N8         -1.5080    0.2050    2.0700 n         1 G28     -0.474800
     17 C81        -1.6450    0.6120    3.4510 c3        1 G28      0.089000
     18 C82        -1.1670   -0.3900    4.4920 c3        1 G28     -0.121600
     19 C9         -2.6160   -0.4870    1.4610 c3        1 G28      0.089000
     20 C91        -2.6830   -1.9900    1.7000 c3        1 G28     -0.121600
     21 N4          0.4970    2.8650    0.0200 n3        1 G28     -0.913800
     22 H2          2.5580    0.6170    0.6460 h1        1 G28      0.058700
     23 H31         2.7500    2.0890   -1.2760 hc        1 G28      0.059200
     24 H32         1.9870    0.8880   -2.3810 hc        1 G28      0.059200
     25 H4          0.3150    2.5580   -2.0140 h1        1 G28      0.048700
     26 H5         -1.4760    1.2500   -0.6510 h1        1 G28      0.091700
     27 HN5         0.1410   -0.1550   -2.7100 hn        1 G28      0.332500
     28 H111       -2.9520   -1.5710   -4.0800 hc        1 G28      0.062033
     29 H112       -1.6080   -0.5610   -4.7730 hc        1 G28      0.062033
     30 H113       -1.2180   -2.0670   -3.8330 hc        1 G28      0.062033
     31 H6         -0.6850   -1.1940   -0.0690 h1        1 G28      0.075700
     32 H811       -2.7300    0.8490    3.6430 h1        1 G28      0.053700
     33 H812       -1.0510    1.5630    3.5830 h1        1 G28      0.053700
     34 H821       -1.3000    0.0520    5.5080 hc        1 G28      0.038200
     35 H822       -1.7450   -1.3430    4.4390 hc        1 G28      0.038200
     36 H823       -0.0840   -0.6190    4.3390 hc        1 G28      0.038200
     37 H91        -3.5690   -0.0260    1.8530 h1        1 G28      0.053700
     38 H92        -2.6000   -0.2980    0.3450 h1        1 G28      0.053700
     39 H911       -3.5450   -2.4050    1.1250 hc        1 G28      0.038200
     40 H912       -1.7500   -2.4980    1.3580 hc        1 G28      0.038200
     41 H913       -2.8310   -2.2200    2.7820 hc        1 G28      0.038200
     42 HN41        0.7400    2.4080    0.8790 hn        1 G28      0.353300
     43 HN42        1.1550    3.6060   -0.1300 hn        1 G28      0.353300
@<TRIPOS>BOND
     1    1    2 1   
     2    1    3 1   
     3    1    4 1   
     4    4    5 1   
     5    4   13 1   
     6    4   22 1   
     7    5    6 1   
     8    5   23 1   
     9    5   24 1   
    10    6    7 1   
    11    6   21 1   
    12    6   25 1   
    13    7    8 1   
    14    7   12 1   
    15    7   26 1   
    16    8    9 1   
    17    8   27 1   
    18    9   10 2   
    19    9   11 1   
    20   11   28 1   
    21   11   29 1   
    22   11   30 1   
    23   12   13 1   
    24   12   14 1   
    25   12   31 1   
    26   14   15 2   
    27   14   16 1   
    28   16   17 1   
    29   16   19 1   
    30   17   18 1   
    31   17   32 1   
    32   17   33 1   
    33   18   34 1   
    34   18   35 1   
    35   18   36 1   
    36   19   20 1   
    37   19   37 1   
    38   19   38 1   
    39   20   39 1   
    40   20   40 1   
    41   20   41 1   
    42   21   42 1   
    43   21   43 1   
@<TRIPOS>SUBSTRUCTURE
     1 G28         1 TEMP              0 ****  ****    0 ROOT
