@<TRIPOS>MOLECULE
G28
   46    44     1     0     0
SMALL
bcc


@<TRIPOS>ATOM
      1 C1         -0.7150    3.1790    1.6190 c1        1 G28      0.922000
      2 O1A         0.1790    2.4010    1.4130 o         1 G28     -0.458500
      3 O1B        -1.5950    3.9360    1.8170 o         1 G28     -0.458500
      4 C2          0.6770   -1.2680    0.5120 c         1 G28      0.584900
      5 C3          1.3840   -0.7130    1.7230 c3        1 G28     -0.260400
      6 C4          2.7860   -0.1570    1.4900 c3        1 G28      0.118500
      7 C5          3.7570   -1.0340    0.6140 c3        1 G28      0.243700
      8 N5          3.6960   -2.4770    1.0340 n4        1 G28     -0.693800
      9 C10         4.9320   -3.2830    0.6300 c         1 G28      0.568100
     10 O10         5.9550   -2.6540    0.4240 o         1 G28     -0.400100
     11 C11         4.7070   -4.7540    0.5550 c3        1 G28     -0.192100
     12 C6          3.5300   -0.8770   -0.8350 c2        1 G28     -0.648200
     13 O6          1.0320   -2.3240   -0.0130 o         1 G28     -0.530100
     14 C7          4.2920    0.0790   -1.5070 c2        1 G28      0.566300
     15 O7          4.8400    1.0910   -1.0090 o         1 G28     -0.680300
     16 N8          4.4450   -0.0660   -3.0130 n4        1 G28     -0.570200
     17 C81         3.7890    1.0860   -3.7140 c3        1 G28      0.118300
     18 C82         3.5150    0.8350   -5.1810 c3        1 G28     -0.132100
     19 C9          5.9020   -0.1550   -3.3660 c3        1 G28      0.118300
     20 C91         6.5250   -1.4840   -2.9970 c3        1 G28     -0.132100
     21 N4          2.7410    1.2150    0.8890 n4        1 G28     -0.831600
     22 H2         -0.2070   -0.6960    0.1550 h4        1 G28      0.061200
     23 H31         0.7310    0.0880    2.1790 hc        1 G28      0.113700
     24 H32         1.4540   -1.5280    2.4970 hc        1 G28      0.113700
     25 H4          3.2700   -0.0290    2.5100 hx        1 G28      0.111700
     26 H5          4.8090   -0.6710    0.8710 hx        1 G28      0.124700
     27 HN5         3.5960   -2.5370    2.0510 hn        1 G28      0.466800
     28 H111        5.6930   -5.2530    0.3460 hc        1 G28      0.123033
     29 H112        3.9970   -5.0040   -0.2740 hc        1 G28      0.123033
     30 H113        4.3030   -5.1570    1.5190 hc        1 G28      0.123033
     31 H6          2.8560   -1.5630   -1.3550 ha        1 G28      0.168000
     32 H811        4.4550    1.9870   -3.5810 hx        1 G28      0.103700
     33 H812        2.8160    1.2830   -3.1800 hx        1 G28      0.103700
     34 H821        2.8770   -0.0680   -5.3380 hc        1 G28      0.075700
     35 H822        2.9670    1.7240   -5.5870 hc        1 G28      0.075700
     36 H823        4.4570    0.7180   -5.7710 hc        1 G28      0.075700
     37 H91         5.9940    0.0120   -4.4780 hx        1 G28      0.103700
     38 H92         6.4300    0.6870   -2.8290 hx        1 G28      0.103700
     39 H911        7.6080   -1.4480   -3.2840 hc        1 G28      0.075700
     40 H912        6.0480   -2.3320   -3.5460 hc        1 G28      0.075700
     41 H913        6.4630   -1.6780   -1.8980 hc        1 G28      0.075700
     42 HN41        2.2640    1.8650    1.5270 hn        1 G28      0.480800
     43 HN42        2.2310    1.1810   -0.0010 hn        1 G28      0.480800
     44 H52         2.8690   -2.9200    0.5950 hn        1 G28      0.466800
     45 H81         3.9860   -0.9350   -3.3060 hn        1 G28      0.440800
     46 H43         3.7030    1.5450    0.6910 hn        1 G28      0.480800
@<TRIPOS>BOND
     1    1    2 2   
     2    1    3 2   
     3    4    5 1   
     4    4   13 2   
     5    4   22 1   
     6    5    6 1   
     7    5   23 1   
     8    5   24 1   
     9    6    7 1   
    10    6   21 1   
    11    6   25 1   
    12    7    8 1   
    13    7   12 1   
    14    7   26 1   
    15    8    9 1   
    16    8   27 1   
    17    8   44 1   
    18    9   10 2   
    19    9   11 1   
    20   11   28 1   
    21   11   29 1   
    22   11   30 1   
    23   12   14 2   
    24   12   31 1   
    25   14   15 1   
    26   14   16 1   
    27   16   17 1   
    28   16   19 1   
    29   16   45 1   
    30   17   18 1   
    31   17   32 1   
    32   17   33 1   
    33   18   34 1   
    34   18   35 1   
    35   18   36 1   
    36   19   20 1   
    37   19   37 1   
    38   19   38 1   
    39   20   39 1   
    40   20   40 1   
    41   20   41 1   
    42   21   42 1   
    43   21   43 1   
    44   21   46 1   
@<TRIPOS>SUBSTRUCTURE
     1 G28         1 TEMP              0 ****  ****    0 ROOT
