@<TRIPOS>MOLECULE
G28
   46    44     1     0     0
SMALL
bcc


@<TRIPOS>ATOM
      1 C1         -2.0980    1.4530    1.1600 c1        1 G28      0.925000
      2 O1A        -0.9350    1.1780    1.0200 o         1 G28     -0.461000
      3 O1B        -3.2360    1.7210    1.2980 o         1 G28     -0.461000
      4 C2          1.7820   -0.7980    3.1580 c         1 G28      0.595900
      5 C3          2.7940    0.1840    2.6490 c3        1 G28     -0.265400
      6 C4          2.9860    0.2760    1.1320 c3        1 G28      0.109500
      7 C5          3.8950   -0.8580    0.5500 c3        1 G28      0.236700
      8 N5          3.1730   -2.1710    0.3540 ny        1 G28     -0.719800
      9 C10         4.0960   -3.3810    0.4960 c         1 G28      0.568100
     10 O10         4.9450   -3.3060    1.3660 o         1 G28     -0.402100
     11 C11         3.8060   -4.5060   -0.4350 c3        1 G28     -0.189100
     12 C6          4.5750   -0.4230   -0.6880 c2        1 G28     -0.549200
     13 O6          1.1550   -1.5420    2.3930 o         1 G28     -0.585100
     14 C7          3.8980   -0.3470   -1.8870 c2        1 G28      0.520300
     15 O7          2.6680   -0.6000   -2.0770 o         1 G28     -0.762300
     16 N8          4.6270    0.0650   -3.1460 nx        1 G28     -0.561200
     17 C81         5.2720    1.4080   -2.9830 c3        1 G28      0.119800
     18 C82         5.5240    2.1210   -4.2960 c3        1 G28     -0.131100
     19 C9          5.6240   -0.9750   -3.5610 c3        1 G28      0.119800
     20 C91         4.9820   -2.2220   -4.1310 c3        1 G28     -0.131100
     21 N4          1.6930    0.4600    0.4080 nz        1 G28     -0.856600
     22 H2          1.6270   -0.8090    4.2610 h4        1 G28      0.087200
     23 H31         3.7910   -0.0570    3.1190 hc        1 G28      0.132700
     24 H32         2.5060    1.2010    3.0460 hc        1 G28      0.132700
     25 H4          3.5950    1.2210    0.9400 hx        1 G28      0.139700
     26 H5          4.6890   -1.0380    1.3470 hx        1 G28      0.143700
     27 HN5         2.7530   -2.1830   -0.5870 hn        1 G28      0.470300
     28 H111        3.8910   -4.1790   -1.5020 hc        1 G28      0.120367
     29 H112        4.5530   -5.3250   -0.2460 hc        1 G28      0.120367
     30 H113        2.7780   -4.9170   -0.2560 hc        1 G28      0.120367
     31 H6          5.6430   -0.1960   -0.5930 ha        1 G28      0.180000
     32 H811        6.2410    1.2610   -2.4250 hx        1 G28      0.097200
     33 H812        4.5840    2.0330   -2.3440 hx        1 G28      0.097200
     34 H821        4.5780    2.2770   -4.8710 hc        1 G28      0.077700
     35 H822        5.9600    3.1270   -4.0650 hc        1 G28      0.077700
     36 H823        6.2520    1.5710   -4.9400 hc        1 G28      0.077700
     37 H91         6.2970   -0.5100   -4.3400 hx        1 G28      0.097200
     38 H92         6.2490   -1.2280   -2.6580 hx        1 G28      0.097200
     39 H911        4.2950   -2.7030   -3.3930 hc        1 G28      0.077700
     40 H912        4.4060   -2.0010   -5.0640 hc        1 G28      0.077700
     41 H913        5.7960   -2.9470   -4.3900 hc        1 G28      0.077700
     42 HN41        1.2840    1.3720    0.6530 hn        1 G28      0.481800
     43 HN42        1.8360    0.4190   -0.6170 hn        1 G28      0.481800
     44 H52         2.4230   -2.2820    1.0490 hn        1 G28      0.470300
     45 H81         3.9110    0.1330   -3.8890 hn        1 G28      0.461800
     46 H43         1.0040   -0.2580    0.6780 hn        1 G28      0.481800
@<TRIPOS>BOND
     1    1    2 2   
     2    1    3 2   
     3    4    5 1   
     4    4   13 2   
     5    4   22 1   
     6    5    6 1   
     7    5   23 1   
     8    5   24 1   
     9    6    7 1   
    10    6   21 1   
    11    6   25 1   
    12    7    8 1   
    13    7   12 1   
    14    7   26 1   
    15    8    9 1   
    16    8   27 1   
    17    8   44 1   
    18    9   10 2   
    19    9   11 1   
    20   11   28 1   
    21   11   29 1   
    22   11   30 1   
    23   12   14 2   
    24   12   31 1   
    25   14   15 1   
    26   14   16 1   
    27   16   17 1   
    28   16   19 1   
    29   16   45 1   
    30   17   18 1   
    31   17   32 1   
    32   17   33 1   
    33   18   34 1   
    34   18   35 1   
    35   18   36 1   
    36   19   20 1   
    37   19   37 1   
    38   19   38 1   
    39   20   39 1   
    40   20   40 1   
    41   20   41 1   
    42   21   42 1   
    43   21   43 1   
    44   21   46 1   
@<TRIPOS>SUBSTRUCTURE
     1 G28         1 TEMP              0 ****  ****    0 ROOT
