@<TRIPOS>MOLECULE
G29
   54    57     1     0     0
SMALL
bcc


@<TRIPOS>ATOM
      1 O1         -0.0380    0.1390   -0.1760 o         1 G29     -0.529100
      2 C3          1.1970    0.0740   -0.1250 c         1 G29      0.560500
      3 C2          1.9410    0.0840    1.1430 ce        1 G29     -0.246200
      4 C1          3.2720   -0.0400    1.1830 c2        1 G29     -0.098200
      5 C10         4.1530   -0.2170   -0.0200 c3        1 G29      0.011400
      6 C19         4.7660   -1.6160    0.0900 c3        1 G29     -0.087100
      7 C9          5.2250    0.9010   -0.0330 c3        1 G29     -0.041700
      8 C11         6.0640    0.9160    1.2420 c3        1 G29     -0.076400
      9 C12         7.2160    1.9100    1.2280 c3        1 G29     -0.056400
     10 C4          2.0270   -0.0120   -1.3370 ce        1 G29     -0.240200
     11 C5          3.3650   -0.1290   -1.3040 c2        1 G29     -0.074400
     12 C6          4.1390   -0.1100   -2.5990 c3        1 G29      0.173300
     13 O           4.7910   -1.3500   -2.8800 os        1 G29     -0.408600
     14 C23         3.8670   -2.3860   -3.2450 c3        1 G29      0.213500
     15 C24         4.6140   -3.5800   -3.5270 c1        1 G29     -0.153100
     16 C25         5.2190   -4.5840   -3.7680 c1        1 G29     -0.102100
     17 C26         5.9280   -5.7870   -4.0580 c3        1 G29     -0.022000
     18 C7          5.2350    0.9510   -2.5480 c3        1 G29     -0.070400
     19 C8          6.0900    0.8150   -1.3020 c3        1 G29     -0.047700
     20 C14         7.1140    1.9280   -1.2350 c3        1 G29     -0.063700
     21 C13         8.0540    1.7380   -0.0230 c3        1 G29     -0.153000
     22 C18         8.7810    0.4000   -0.0060 c3        1 G29     -0.083100
     23 C15         8.0540    2.1740   -2.4110 c3        1 G29     -0.073400
     24 C16         9.2090    2.9770   -1.8040 c3        1 G29     -0.188400
     25 C17         9.1200    2.7930   -0.3020 c         1 G29      0.577100
     26 O2          9.7990    3.3860    0.5320 o         1 G29     -0.518100
     27 H1          1.3350    0.1920    2.0570 ha        1 G29      0.152000
     28 H2          3.8010   -0.0600    2.1510 ha        1 G29      0.135000
     29 H3          5.2800   -1.7410    1.0720 hc        1 G29      0.051033
     30 H4          5.4980   -1.7910   -0.7350 hc        1 G29      0.051033
     31 H5          3.9600   -2.3860    0.0110 hc        1 G29      0.051033
     32 H6          4.6650    1.8800   -0.0760 hc        1 G29      0.053700
     33 H7          6.4710   -0.1110    1.4350 hc        1 G29      0.044700
     34 H8          5.4020    1.1820    2.1090 hc        1 G29      0.044700
     35 H9          6.8180    2.9570    1.2710 hc        1 G29      0.053200
     36 H10         7.8520    1.7540    2.1380 hc        1 G29      0.053200
     37 H11         1.4730    0.0420   -2.2890 ha        1 G29      0.148000
     38 H12         3.4360    0.1280   -3.4520 h1        1 G29      0.047700
     39 H13         3.1530   -2.5580   -2.3900 h1        1 G29      0.050200
     40 H14         3.2870   -2.0620   -4.1550 h1        1 G29      0.050200
     41 H15         7.0330   -5.6180   -3.9730 hc        1 G29      0.057700
     42 H16         5.7020   -6.1360   -5.0990 hc        1 G29      0.057700
     43 H17         5.6370   -6.5980   -3.3410 hc        1 G29      0.057700
     44 H18         4.7470    1.9600   -2.5770 hc        1 G29      0.059200
     45 H19         5.8850    0.8480   -3.4560 hc        1 G29      0.059200
     46 H20         6.6090   -0.1820   -1.3420 hc        1 G29      0.076700
     47 H21         6.5450    2.8920   -1.0730 hc        1 G29      0.051700
     48 H22         9.5250    0.3920    0.8270 hc        1 G29      0.045033
     49 H23         8.0690   -0.4450    0.1480 hc        1 G29      0.045033
     50 H24         9.3180    0.2350   -0.9710 hc        1 G29      0.045033
     51 H25         8.4180    1.2090   -2.8420 hc        1 G29      0.051700
     52 H26         7.5450    2.7440   -3.2250 hc        1 G29      0.051700
     53 H27         9.1250    4.0630   -2.0570 hc        1 G29      0.076200
     54 H28        10.2000    2.6110   -2.1710 hc        1 G29      0.076200
@<TRIPOS>BOND
     1    1    2 2   
     2    2    3 1   
     3    2   10 1   
     4    3    4 2   
     5    3   27 1   
     6    4    5 1   
     7    4   28 1   
     8    5    6 1   
     9    5    7 1   
    10    5   11 1   
    11    6   29 1   
    12    6   30 1   
    13    6   31 1   
    14    7    8 1   
    15    7   19 1   
    16    7   32 1   
    17    8    9 1   
    18    8   33 1   
    19    8   34 1   
    20    9   21 1   
    21    9   35 1   
    22    9   36 1   
    23   10   11 2   
    24   10   37 1   
    25   11   12 1   
    26   12   13 1   
    27   12   18 1   
    28   12   38 1   
    29   13   14 1   
    30   14   15 1   
    31   14   39 1   
    32   14   40 1   
    33   15   16 3   
    34   16   17 1   
    35   17   41 1   
    36   17   42 1   
    37   17   43 1   
    38   18   19 1   
    39   18   44 1   
    40   18   45 1   
    41   19   20 1   
    42   19   46 1   
    43   20   21 1   
    44   20   23 1   
    45   20   47 1   
    46   21   22 1   
    47   21   25 1   
    48   22   48 1   
    49   22   49 1   
    50   22   50 1   
    51   23   24 1   
    52   23   51 1   
    53   23   52 1   
    54   24   25 1   
    55   24   53 1   
    56   24   54 1   
    57   25   26 2   
@<TRIPOS>SUBSTRUCTURE
     1 G29         1 TEMP              0 ****  ****    0 ROOT
