@<TRIPOS>MOLECULE
G29
   54    57     1     0     0
SMALL
bcc


@<TRIPOS>ATOM
      1 O1         -0.0530    0.1750   -0.1760 o         1 G29     -0.529100
      2 C3          1.1810    0.0910   -0.1350 c         1 G29      0.560500
      3 C2          1.9330    0.0470    1.1270 ce        1 G29     -0.246200
      4 C1          3.2620   -0.0980    1.1530 c2        1 G29     -0.098200
      5 C10         4.1330   -0.2460   -0.0620 c3        1 G29      0.011400
      6 C19         4.7260   -1.6560   -0.0050 c3        1 G29     -0.087100
      7 C9          5.2210    0.8570   -0.0440 c3        1 G29     -0.041700
      8 C11         6.0680    0.8160    1.2240 c3        1 G29     -0.076400
      9 C12         7.2350    1.7920    1.2370 c3        1 G29     -0.056400
     10 C4          2.0020    0.0350   -1.3560 ce        1 G29     -0.240200
     11 C5          3.3380   -0.1020   -1.3370 c2        1 G29     -0.074400
     12 C6          4.1030   -0.0490   -2.6350 c3        1 G29      0.173300
     13 O           4.7350   -1.2880   -2.9640 os        1 G29     -0.408600
     14 C23         3.7940   -2.2970   -3.3580 c3        1 G29      0.213500
     15 C24         4.5220   -3.4910   -3.6880 c1        1 G29     -0.153100
     16 C25         5.1090   -4.4950   -3.9680 c1        1 G29     -0.102100
     17 C26         5.7980   -5.6970   -4.3040 c3        1 G29     -0.022000
     18 C7          5.2150    0.9940   -2.5560 c3        1 G29     -0.070400
     19 C8          6.0760    0.8030   -1.3220 c3        1 G29     -0.047700
     20 C14         7.1170    1.8980   -1.2230 c3        1 G29     -0.063700
     21 C13         8.0620    1.6520   -0.0250 c3        1 G29     -0.153000
     22 C18         8.7700    0.3040   -0.0600 c3        1 G29     -0.083100
     23 C15         8.0530    2.1710   -2.3970 c3        1 G29     -0.073400
     24 C16         9.2230    2.9350   -1.7710 c3        1 G29     -0.188400
     25 C17         9.1410    2.7010   -0.2750 c         1 G29      0.577100
     26 O2          9.8340    3.2550    0.5740 o         1 G29     -0.518100
     27 H1          1.3350    0.1320    2.0480 ha        1 G29      0.152000
     28 H2          3.7980   -0.1590    2.1160 ha        1 G29      0.135000
     29 H3          3.9090   -2.4110   -0.1040 hc        1 G29      0.051033
     30 H4          5.2450   -1.8220    0.9680 hc        1 G29      0.051033
     31 H5          5.4510   -1.8130   -0.8400 hc        1 G29      0.051033
     32 H6          4.6750    1.8450   -0.0490 hc        1 G29      0.053700
     33 H7          5.4160    1.0610    2.1050 hc        1 G29      0.044700
     34 H8          6.4620   -0.2230    1.3800 hc        1 G29      0.044700
     35 H9          7.8740    1.5960    2.1370 hc        1 G29      0.053200
     36 H10         6.8520    2.8430    1.3190 hc        1 G29      0.053200
     37 H11         1.4420    0.1300   -2.3020 ha        1 G29      0.148000
     38 H12         3.3980    0.2280   -3.4740 h1        1 G29      0.047700
     39 H13         3.2120   -1.9330   -4.2530 h1        1 G29      0.050200
     40 H14         3.0830   -2.4880   -2.5040 h1        1 G29      0.050200
     41 H15         5.4670   -6.5400   -3.6440 hc        1 G29      0.057700
     42 H16         5.5960   -5.9810   -5.3700 hc        1 G29      0.057700
     43 H17         6.9040   -5.5610   -4.1780 hc        1 G29      0.057700
     44 H18         4.7420    2.0100   -2.5470 hc        1 G29      0.059200
     45 H19         5.8580    0.9130   -3.4710 hc        1 G29      0.059200
     46 H20         6.5810   -0.2000   -1.4000 hc        1 G29      0.076700
     47 H21         6.5630    2.8640   -1.0230 hc        1 G29      0.051700
     48 H22         9.5190    0.2570    0.7680 hc        1 G29      0.045033
     49 H23         9.2980    0.1650   -1.0340 hc        1 G29      0.045033
     50 H24         8.0470   -0.5350    0.0710 hc        1 G29      0.045033
     51 H25         7.5460    2.7760   -3.1870 hc        1 G29      0.051700
     52 H26         8.4000    1.2160   -2.8630 hc        1 G29      0.051700
     53 H27         9.1540    4.0310   -1.9850 hc        1 G29      0.076200
     54 H28        10.2060    2.5690   -2.1570 hc        1 G29      0.076200
@<TRIPOS>BOND
     1    1    2 2   
     2    2    3 1   
     3    2   10 1   
     4    3    4 2   
     5    3   27 1   
     6    4    5 1   
     7    4   28 1   
     8    5    6 1   
     9    5    7 1   
    10    5   11 1   
    11    6   29 1   
    12    6   30 1   
    13    6   31 1   
    14    7    8 1   
    15    7   19 1   
    16    7   32 1   
    17    8    9 1   
    18    8   33 1   
    19    8   34 1   
    20    9   21 1   
    21    9   35 1   
    22    9   36 1   
    23   10   11 2   
    24   10   37 1   
    25   11   12 1   
    26   12   13 1   
    27   12   18 1   
    28   12   38 1   
    29   13   14 1   
    30   14   15 1   
    31   14   39 1   
    32   14   40 1   
    33   15   16 3   
    34   16   17 1   
    35   17   41 1   
    36   17   42 1   
    37   17   43 1   
    38   18   19 1   
    39   18   44 1   
    40   18   45 1   
    41   19   20 1   
    42   19   46 1   
    43   20   21 1   
    44   20   23 1   
    45   20   47 1   
    46   21   22 1   
    47   21   25 1   
    48   22   48 1   
    49   22   49 1   
    50   22   50 1   
    51   23   24 1   
    52   23   51 1   
    53   23   52 1   
    54   24   25 1   
    55   24   53 1   
    56   24   54 1   
    57   25   26 2   
@<TRIPOS>SUBSTRUCTURE
     1 G29         1 TEMP              0 ****  ****    0 ROOT
