@<TRIPOS>MOLECULE
G29
   54    57     1     0     0
SMALL
bcc


@<TRIPOS>ATOM
      1 O1         -3.9830   -3.7030    0.7940 o         1 G29     -0.529100
      2 C3         -3.0500   -2.9900    0.4010 c         1 G29      0.560500
      3 C2         -2.1960   -3.3570   -0.7380 ce        1 G29     -0.246200
      4 C1         -1.2270   -2.5500   -1.1830 c2        1 G29     -0.098200
      5 C10        -0.9020   -1.2000   -0.6080 c3        1 G29      0.011400
      6 C19        -1.2300   -0.1730   -1.6940 c3        1 G29     -0.087100
      7 C9          0.5900   -1.1710   -0.1940 c3        1 G29     -0.041700
      8 C11         1.5220   -1.4890   -1.3590 c3        1 G29     -0.076400
      9 C12         3.0030   -1.3470   -1.0410 c3        1 G29     -0.056400
     10 C4         -2.7140   -1.7130    1.0500 ce        1 G29     -0.240200
     11 C5         -1.7360   -0.9020    0.6140 c2        1 G29     -0.074400
     12 C6         -1.3990    0.3380    1.4040 c3        1 G29      0.173300
     13 O          -1.6860    1.5470    0.6980 os        1 G29     -0.408600
     14 C23        -3.0950    1.7940    0.5810 c3        1 G29      0.213500
     15 C24        -3.2800    3.0330   -0.1200 c1        1 G29     -0.153100
     16 C25        -3.4560    4.0640   -0.7010 c1        1 G29     -0.102100
     17 C26        -3.6790    5.2910   -1.3930 c3        1 G29     -0.022000
     18 C7          0.0920    0.3720    1.7300 c3        1 G29     -0.070400
     19 C8          0.9420    0.1610    0.4900 c3        1 G29     -0.047700
     20 C14         2.4110    0.1170    0.8530 c3        1 G29     -0.063700
     21 C13         3.2870    0.0050   -0.4150 c3        1 G29     -0.153000
     22 C18         3.0640    1.1240   -1.4240 c3        1 G29     -0.083100
     23 C15         3.0370    1.2580    1.6490 c3        1 G29     -0.073400
     24 C16         4.5390    1.1180    1.3830 c3        1 G29     -0.188400
     25 C17         4.6810    0.2300    0.1630 c         1 G29      0.577100
     26 O2          5.7370   -0.2140   -0.2790 o         1 G29     -0.518100
     27 H1         -2.4090   -4.3310   -1.2070 ha        1 G29      0.152000
     28 H2         -0.6210   -2.8370   -2.0590 ha        1 G29      0.135000
     29 H3         -2.3290   -0.1780   -1.8960 hc        1 G29      0.051033
     30 H4         -0.9400    0.8540   -1.3660 hc        1 G29      0.051033
     31 H5         -0.6950   -0.4210   -2.6410 hc        1 G29      0.051033
     32 H6          0.7250   -1.9870    0.5750 hc        1 G29      0.053700
     33 H7          1.3500   -2.5510   -1.6830 hc        1 G29      0.044700
     34 H8          1.2720   -0.8300   -2.2310 hc        1 G29      0.044700
     35 H9          3.3230   -2.1590   -0.3370 hc        1 G29      0.053200
     36 H10         3.5990   -1.4640   -1.9830 hc        1 G29      0.053200
     37 H11        -3.3160   -1.4680    1.9420 ha        1 G29      0.148000
     38 H12        -1.9870    0.3380    2.3700 h1        1 G29      0.047700
     39 H13        -3.5700    0.9420    0.0150 h1        1 G29      0.050200
     40 H14        -3.5480    1.8540    1.6110 h1        1 G29      0.050200
     41 H15        -4.2660    6.0020   -0.7550 hc        1 G29      0.057700
     42 H16        -2.7010    5.7750   -1.6530 hc        1 G29      0.057700
     43 H17        -4.2490    5.1120   -2.3410 hc        1 G29      0.057700
     44 H18         0.3430    1.3660    2.1850 hc        1 G29      0.059200
     45 H19         0.3040   -0.4270    2.4870 hc        1 G29      0.059200
     46 H20         0.7470    1.0150   -0.2160 hc        1 G29      0.076700
     47 H21         2.5730   -0.8240    1.4600 hc        1 G29      0.051700
     48 H22         2.0430    1.0670   -1.8710 hc        1 G29      0.045033
     49 H23         3.1790    2.1200   -0.9330 hc        1 G29      0.045033
     50 H24         3.8160    1.0370   -2.2460 hc        1 G29      0.045033
     51 H25         2.6570    2.2480    1.2960 hc        1 G29      0.051700
     52 H26         2.8050    1.1680    2.7370 hc        1 G29      0.051700
     53 H27         5.0150    2.1100    1.1860 hc        1 G29      0.076200
     54 H28         5.0630    0.6490    2.2530 hc        1 G29      0.076200
@<TRIPOS>BOND
     1    1    2 2   
     2    2    3 1   
     3    2   10 1   
     4    3    4 2   
     5    3   27 1   
     6    4    5 1   
     7    4   28 1   
     8    5    6 1   
     9    5    7 1   
    10    5   11 1   
    11    6   29 1   
    12    6   30 1   
    13    6   31 1   
    14    7    8 1   
    15    7   19 1   
    16    7   32 1   
    17    8    9 1   
    18    8   33 1   
    19    8   34 1   
    20    9   21 1   
    21    9   35 1   
    22    9   36 1   
    23   10   11 2   
    24   10   37 1   
    25   11   12 1   
    26   12   13 1   
    27   12   18 1   
    28   12   38 1   
    29   13   14 1   
    30   14   15 1   
    31   14   39 1   
    32   14   40 1   
    33   15   16 3   
    34   16   17 1   
    35   17   41 1   
    36   17   42 1   
    37   17   43 1   
    38   18   19 1   
    39   18   44 1   
    40   18   45 1   
    41   19   20 1   
    42   19   46 1   
    43   20   21 1   
    44   20   23 1   
    45   20   47 1   
    46   21   22 1   
    47   21   25 1   
    48   22   48 1   
    49   22   49 1   
    50   22   50 1   
    51   23   24 1   
    52   23   51 1   
    53   23   52 1   
    54   24   25 1   
    55   24   53 1   
    56   24   54 1   
    57   25   26 2   
@<TRIPOS>SUBSTRUCTURE
     1 G29         1 TEMP              0 ****  ****    0 ROOT
