@<TRIPOS>MOLECULE
G2A
   73    72     1     0     0
SMALL
bcc


@<TRIPOS>ATOM
      1 C01         0.2580   -0.4360   -0.0430 c         1 G2A      0.644100
      2 O01         1.3800   -0.8790   -0.2900 o         1 G2A     -0.541000
      3 C02        -0.4950   -0.4240    1.2500 c3        1 G2A     -0.126400
      4 C03         0.4440   -0.2450    2.4250 c3        1 G2A     -0.079400
      5 O03        -0.4570    0.1350   -1.0650 os        1 G2A     -0.449900
      6 C04        -0.3050   -0.3750    3.7340 c3        1 G2A     -0.079400
      7 C05         0.6240   -0.1790    4.9130 c3        1 G2A     -0.079400
      8 C06        -0.1200   -0.3130    6.2240 c3        1 G2A     -0.079400
      9 C07         0.8070   -0.1160    7.4040 c3        1 G2A     -0.079400
     10 C08         0.0640   -0.2510    8.7160 c3        1 G2A     -0.079400
     11 C09         0.9920   -0.0540    9.8950 c3        1 G2A     -0.079400
     12 C10         0.2490   -0.1890   11.2070 c3        1 G2A     -0.079400
     13 C11         1.1770    0.0070   12.3870 c3        1 G2A     -0.079400
     14 C12         0.4340   -0.1280   13.6990 c3        1 G2A     -0.079400
     15 C13         1.3620    0.0680   14.8780 c3        1 G2A     -0.079400
     16 C14         0.6190   -0.0680   16.1900 c3        1 G2A     -0.079400
     17 C15         1.5470    0.1280   17.3700 c3        1 G2A     -0.079400
     18 C16         0.8050   -0.0080   18.6820 c3        1 G2A     -0.079400
     19 C17         1.7320    0.1880   19.8610 c3        1 G2A     -0.079400
     20 C18         0.9900    0.0520   21.1730 c3        1 G2A     -0.079400
     21 C19         1.9170    0.2480   22.3540 c3        1 G2A     -0.080400
     22 C20         1.1820    0.1130   23.6630 c3        1 G2A     -0.092100
     23 C23        -0.0600   -1.2710   -3.0150 c3        1 G2A      0.122400
     24 CAS        -0.6010    1.2200   -3.1500 c3        1 G2A      0.122400
     25 CBA         0.1210    0.1090   -2.3820 c3        1 G2A      0.067100
     26 O27        -1.3870   -1.7400   -2.9640 oh        1 G2A     -0.601300
     27 O26        -1.9980    1.0180   -3.1980 oh        1 G2A     -0.601300
     28 H021       -1.0360   -1.4050    1.3270 hc        1 G2A      0.080700
     29 H022       -1.2650    0.3910    1.2320 hc        1 G2A      0.080700
     30 H031        0.9330    0.7630    2.3660 hc        1 G2A      0.057700
     31 H032        1.2610   -1.0130    2.3710 hc        1 G2A      0.057700
     32 H041       -1.1300    0.3840    3.7740 hc        1 G2A      0.041700
     33 H042       -0.7830   -1.3880    3.7960 hc        1 G2A      0.041700
     34 HBA         1.2200    0.3410   -2.3140 h1        1 G2A      0.081700
     35 H051        1.1000    0.8360    4.8530 hc        1 G2A      0.042700
     36 H052        1.4510   -0.9350    4.8700 hc        1 G2A      0.042700
     37 H061       -0.9480    0.4430    6.2670 hc        1 G2A      0.040200
     38 H062       -0.5960   -1.3270    6.2850 hc        1 G2A      0.040200
     39 H071        1.2830    0.8980    7.3430 hc        1 G2A      0.040200
     40 H072        1.6350   -0.8720    7.3610 hc        1 G2A      0.040200
     41 H081       -0.4110   -1.2650    8.7760 hc        1 G2A      0.039700
     42 H082       -0.7640    0.5050    8.7580 hc        1 G2A      0.039700
     43 H091        1.4680    0.9600    9.8350 hc        1 G2A      0.039700
     44 H092        1.8200   -0.8100    9.8520 hc        1 G2A      0.039700
     45 H101       -0.2270   -1.2040   11.2670 hc        1 G2A      0.039700
     46 H102       -0.5790    0.5670   11.2500 hc        1 G2A      0.039700
     47 H111        1.6530    1.0210   12.3260 hc        1 G2A      0.039700
     48 H112        2.0050   -0.7490   12.3440 hc        1 G2A      0.039700
     49 H121       -0.3940    0.6280   13.7420 hc        1 G2A      0.039700
     50 H122       -0.0420   -1.1430   13.7590 hc        1 G2A      0.039700
     51 H131        2.1900   -0.6880   14.8350 hc        1 G2A      0.039700
     52 H132        1.8370    1.0820   14.8180 hc        1 G2A      0.039700
     53 H141       -0.2090    0.6880   16.2330 hc        1 G2A      0.039700
     54 H142        0.1440   -1.0820   16.2500 hc        1 G2A      0.039700
     55 H151        2.3750   -0.6280   17.3260 hc        1 G2A      0.039700
     56 H152        2.0220    1.1430   17.3100 hc        1 G2A      0.039700
     57 H161       -0.0240    0.7480   18.7250 hc        1 G2A      0.039700
     58 H162        0.3290   -1.0220   18.7410 hc        1 G2A      0.039700
     59 H171        2.2080    1.2030   19.8020 hc        1 G2A      0.039700
     60 H172        2.5610   -0.5680   19.8180 hc        1 G2A      0.039700
     61 H181        0.5150   -0.9620   21.2330 hc        1 G2A      0.039700
     62 H182        0.1620    0.8080   21.2170 hc        1 G2A      0.039700
     63 H191        2.3930    1.2620   22.2920 hc        1 G2A      0.038700
     64 H192        2.7450   -0.5080   22.3080 hc        1 G2A      0.038700
     65 H201        0.7220   -0.9000   23.7540 hc        1 G2A      0.032700
     66 H202        1.8830    0.2610   24.5190 hc        1 G2A      0.032700
     67 H203        0.3680    0.8750   23.7380 hc        1 G2A      0.032700
     68 H231        0.3040   -1.2290   -4.0770 h1        1 G2A      0.058200
     69 H232        0.5340   -2.0300   -2.4360 h1        1 G2A      0.058200
     70 H27        -1.9400   -1.1090   -3.4450 ho        1 G2A      0.418000
     71 H26        -2.3100    0.9610   -2.2850 ho        1 G2A      0.418000
     72 HAS1       -0.2670    1.2150   -4.2210 h1        1 G2A      0.058200
     73 HAS2       -0.3710    2.2130   -2.6790 h1        1 G2A      0.058200
@<TRIPOS>BOND
     1    1    2 2   
     2    1    3 1   
     3    1    5 1   
     4    3    4 1   
     5    3   28 1   
     6    3   29 1   
     7    4    6 1   
     8    4   30 1   
     9    4   31 1   
    10    5   25 1   
    11    6    7 1   
    12    6   32 1   
    13    6   33 1   
    14    7    8 1   
    15    7   35 1   
    16    7   36 1   
    17    8    9 1   
    18    8   37 1   
    19    8   38 1   
    20    9   10 1   
    21    9   39 1   
    22    9   40 1   
    23   10   11 1   
    24   10   41 1   
    25   10   42 1   
    26   11   12 1   
    27   11   43 1   
    28   11   44 1   
    29   12   13 1   
    30   12   45 1   
    31   12   46 1   
    32   13   14 1   
    33   13   47 1   
    34   13   48 1   
    35   14   15 1   
    36   14   49 1   
    37   14   50 1   
    38   15   16 1   
    39   15   51 1   
    40   15   52 1   
    41   16   17 1   
    42   16   53 1   
    43   16   54 1   
    44   17   18 1   
    45   17   55 1   
    46   17   56 1   
    47   18   19 1   
    48   18   57 1   
    49   18   58 1   
    50   19   20 1   
    51   19   59 1   
    52   19   60 1   
    53   20   21 1   
    54   20   61 1   
    55   20   62 1   
    56   21   22 1   
    57   21   63 1   
    58   21   64 1   
    59   22   65 1   
    60   22   66 1   
    61   22   67 1   
    62   23   25 1   
    63   23   26 1   
    64   23   68 1   
    65   23   69 1   
    66   24   25 1   
    67   24   27 1   
    68   24   72 1   
    69   24   73 1   
    70   25   34 1   
    71   26   70 1   
    72   27   71 1   
@<TRIPOS>SUBSTRUCTURE
     1 G2A         1 TEMP              0 ****  ****    0 ROOT
