@<TRIPOS>MOLECULE
G2A
   73    72     1     0     0
SMALL
bcc


@<TRIPOS>ATOM
      1 C01        -8.0230   -0.5550    0.0790 c         1 G2A      0.644100
      2 O01        -8.1850   -1.7640    0.2560 o         1 G2A     -0.541000
      3 C02        -6.7950    0.2760    0.2760 c3        1 G2A     -0.126400
      4 C03        -5.5450   -0.5070   -0.0680 c3        1 G2A     -0.079400
      5 O03        -9.0900    0.1890   -0.3540 os        1 G2A     -0.449900
      6 C04        -4.3040    0.2910    0.2670 c3        1 G2A     -0.079400
      7 C05        -3.0500   -0.4790   -0.0910 c3        1 G2A     -0.079400
      8 C06        -1.8060    0.3140    0.2470 c3        1 G2A     -0.079400
      9 C07        -0.5520   -0.4550   -0.1120 c3        1 G2A     -0.079400
     10 C08         0.6930    0.3370    0.2270 c3        1 G2A     -0.079400
     11 C09         1.9470   -0.4310   -0.1320 c3        1 G2A     -0.079400
     12 C10         3.1920    0.3610    0.2060 c3        1 G2A     -0.079400
     13 C11         4.4460   -0.4080   -0.1520 c3        1 G2A     -0.079400
     14 C12         5.6910    0.3840    0.1860 c3        1 G2A     -0.079400
     15 C13         6.9450   -0.3850   -0.1720 c3        1 G2A     -0.079400
     16 C14         8.1900    0.4070    0.1660 c3        1 G2A     -0.079400
     17 C15         9.4440   -0.3610   -0.1920 c3        1 G2A     -0.079400
     18 C16        10.6890    0.4300    0.1470 c3        1 G2A     -0.079400
     19 C17        11.9430   -0.3380   -0.2120 c3        1 G2A     -0.079400
     20 C18        13.1880    0.4530    0.1270 c3        1 G2A     -0.079400
     21 C19        14.4430   -0.3140   -0.2310 c3        1 G2A     -0.080400
     22 C20        15.6850    0.4700    0.1040 c3        1 G2A     -0.092100
     23 C23       -11.0240   -0.6560    0.8640 c3        1 G2A      0.122400
     24 CAS       -11.1620    0.4110   -1.4510 c3        1 G2A      0.122400
     25 CBA       -10.3560   -0.4780   -0.5010 c3        1 G2A      0.067100
     26 O27       -11.0880    0.5340    1.6140 oh        1 G2A     -0.601300
     27 O26       -11.3270    1.7210   -0.9490 oh        1 G2A     -0.601300
     28 H021       -6.8630    1.2060   -0.3490 hc        1 G2A      0.080700
     29 H022       -6.7770    0.5900    1.3550 hc        1 G2A      0.080700
     30 H031       -5.5450   -1.4760    0.4980 hc        1 G2A      0.057700
     31 H032       -5.5500   -0.7620   -1.1600 hc        1 G2A      0.057700
     32 H041       -4.3190    1.2650   -0.2880 hc        1 G2A      0.041700
     33 H042       -4.2950    0.5340    1.3630 hc        1 G2A      0.041700
     34 HBA       -10.1960   -1.4900   -0.9660 h1        1 G2A      0.081700
     35 H051       -3.0370   -1.4550    0.4630 hc        1 G2A      0.042700
     36 H052       -3.0570   -0.7200   -1.1870 hc        1 G2A      0.042700
     37 H061       -1.8190    1.2900   -0.3050 hc        1 G2A      0.040200
     38 H062       -1.7990    0.5540    1.3430 hc        1 G2A      0.040200
     39 H071       -0.5380   -1.4310    0.4410 hc        1 G2A      0.040200
     40 H072       -0.5590   -0.6950   -1.2070 hc        1 G2A      0.040200
     41 H081        0.6790    1.3140   -0.3260 hc        1 G2A      0.039700
     42 H082        0.7000    0.5780    1.3230 hc        1 G2A      0.039700
     43 H091        1.9600   -1.4080    0.4200 hc        1 G2A      0.039700
     44 H092        1.9400   -0.6710   -1.2280 hc        1 G2A      0.039700
     45 H101        3.1780    1.3370   -0.3460 hc        1 G2A      0.039700
     46 H102        3.1990    0.6010    1.3020 hc        1 G2A      0.039700
     47 H111        4.4590   -1.3840    0.4000 hc        1 G2A      0.039700
     48 H112        4.4390   -0.6480   -1.2480 hc        1 G2A      0.039700
     49 H121        5.6770    1.3600   -0.3660 hc        1 G2A      0.039700
     50 H122        5.6970    0.6240    1.2820 hc        1 G2A      0.039700
     51 H131        6.9580   -1.3610    0.3800 hc        1 G2A      0.039700
     52 H132        6.9380   -0.6250   -1.2680 hc        1 G2A      0.039700
     53 H141        8.1760    1.3830   -0.3860 hc        1 G2A      0.039700
     54 H142        8.1960    0.6470    1.2620 hc        1 G2A      0.039700
     55 H151        9.4570   -1.3380    0.3600 hc        1 G2A      0.039700
     56 H152        9.4370   -0.6020   -1.2880 hc        1 G2A      0.039700
     57 H161       10.6750    1.4070   -0.4060 hc        1 G2A      0.039700
     58 H162       10.6950    0.6700    1.2420 hc        1 G2A      0.039700
     59 H171       11.9560   -1.3150    0.3400 hc        1 G2A      0.039700
     60 H172       11.9360   -0.5790   -1.3080 hc        1 G2A      0.039700
     61 H181       13.1750    1.4300   -0.4250 hc        1 G2A      0.039700
     62 H182       13.1950    0.6940    1.2230 hc        1 G2A      0.039700
     63 H191       14.4530   -1.2910    0.3210 hc        1 G2A      0.038700
     64 H192       14.4340   -0.5550   -1.3270 hc        1 G2A      0.038700
     65 H201       15.7050    1.4360   -0.4550 hc        1 G2A      0.032700
     66 H202       15.7250    0.6980    1.1970 hc        1 G2A      0.032700
     67 H203       16.5980   -0.1130   -0.1670 hc        1 G2A      0.032700
     68 H231      -12.0520   -1.0810    0.7070 h1        1 G2A      0.058200
     69 H232      -10.4100   -1.3580    1.4930 h1        1 G2A      0.058200
     70 H27       -11.6020    1.1750    1.1040 ho        1 G2A      0.418000
     71 H26       -10.4430    2.0810   -0.7930 ho        1 G2A      0.418000
     72 HAS1      -10.6590    0.4440   -2.4540 h1        1 G2A      0.058200
     73 HAS2      -12.2030    0.0050   -1.5550 h1        1 G2A      0.058200
@<TRIPOS>BOND
     1    1    2 2   
     2    1    3 1   
     3    1    5 1   
     4    3    4 1   
     5    3   28 1   
     6    3   29 1   
     7    4    6 1   
     8    4   30 1   
     9    4   31 1   
    10    5   25 1   
    11    6    7 1   
    12    6   32 1   
    13    6   33 1   
    14    7    8 1   
    15    7   35 1   
    16    7   36 1   
    17    8    9 1   
    18    8   37 1   
    19    8   38 1   
    20    9   10 1   
    21    9   39 1   
    22    9   40 1   
    23   10   11 1   
    24   10   41 1   
    25   10   42 1   
    26   11   12 1   
    27   11   43 1   
    28   11   44 1   
    29   12   13 1   
    30   12   45 1   
    31   12   46 1   
    32   13   14 1   
    33   13   47 1   
    34   13   48 1   
    35   14   15 1   
    36   14   49 1   
    37   14   50 1   
    38   15   16 1   
    39   15   51 1   
    40   15   52 1   
    41   16   17 1   
    42   16   53 1   
    43   16   54 1   
    44   17   18 1   
    45   17   55 1   
    46   17   56 1   
    47   18   19 1   
    48   18   57 1   
    49   18   58 1   
    50   19   20 1   
    51   19   59 1   
    52   19   60 1   
    53   20   21 1   
    54   20   61 1   
    55   20   62 1   
    56   21   22 1   
    57   21   63 1   
    58   21   64 1   
    59   22   65 1   
    60   22   66 1   
    61   22   67 1   
    62   23   25 1   
    63   23   26 1   
    64   23   68 1   
    65   23   69 1   
    66   24   25 1   
    67   24   27 1   
    68   24   72 1   
    69   24   73 1   
    70   25   34 1   
    71   26   70 1   
    72   27   71 1   
@<TRIPOS>SUBSTRUCTURE
     1 G2A         1 TEMP              0 ****  ****    0 ROOT
