@<TRIPOS>MOLECULE
G2A
   73    71     1     0     0
SMALL
bcc


@<TRIPOS>ATOM
      1 C01        -0.3520    1.6600   -9.2560 c1        1 G2A      0.307000
      2 O01         0.8620    1.6130   -9.2390 o         1 G2A     -0.353000
      3 C02        -1.1310    1.5450   -7.9640 c2        1 G2A     -0.155000
      4 C03        -0.1990    1.1220   -6.8490 c3        1 G2A     -0.158000
      5 O03        -1.0310    1.8320  -10.4730 os        1 G2A     -0.275000
      6 C04        -0.9650    1.0690   -5.5450 c3        1 G2A     -0.157000
      7 C05        -0.0310    0.6570   -4.4290 c3        1 G2A     -0.158000
      8 C06        -0.7930    0.6220   -3.1220 c3        1 G2A     -0.158000
      9 C07         0.1450    0.2280   -2.0020 c3        1 G2A     -0.158000
     10 C08        -0.6010    0.2530   -0.6860 c3        1 G2A     -0.158000
     11 C09         0.3260   -0.1800    0.4290 c3        1 G2A     -0.158000
     12 C10        -0.4130   -0.1310    1.7480 c3        1 G2A     -0.158000
     13 C11         0.4880   -0.6430    2.8510 c3        1 G2A     -0.158000
     14 C12        -0.2420   -0.5690    4.1740 c3        1 G2A     -0.158000
     15 C13         0.6640   -1.0660    5.2790 c3        1 G2A     -0.158000
     16 C14        -0.0930   -1.0720    6.5880 c3        1 G2A     -0.158000
     17 C15         0.8300   -1.5150    7.7030 c3        1 G2A     -0.158000
     18 C16         0.0780   -1.5010    9.0160 c3        1 G2A     -0.158000
     19 C17         0.9700   -2.0370   10.1130 c3        1 G2A     -0.158000
     20 C18         0.2350   -1.9800   11.4340 c3        1 G2A     -0.158000
     21 C19         1.1490   -2.4580   12.5420 c3        1 G2A     -0.159000
     22 C20         0.4180   -2.3860   13.8640 c3        1 G2A     -0.210000
     23 C23        -0.4310    1.0350  -12.6390 c3        1 G2A     -0.030000
     24 CAS        -0.4670    3.4530  -12.1290 c3        1 G2A     -0.030000
     25 CBA        -0.1840    2.0760  -11.5690 c3        1 G2A     -0.043000
     26 O27         0.6800    0.9790  -13.5060 oh        1 G2A     -0.328000
     27 O26         0.5920    3.8440  -12.9740 oh        1 G2A     -0.328000
     28 H021       -1.5290    2.4120   -7.7450 ha        1 G2A      0.119000
     29 H022       -1.8380    0.8780   -8.0680 ha        1 G2A      0.119000
     30 H031        0.5310    1.7680   -6.7720 hc        1 G2A      0.097500
     31 H032        0.1670    0.2380   -7.0480 hc        1 G2A      0.097500
     32 H041       -1.6910    0.4180   -5.6200 hc        1 G2A      0.081000
     33 H042       -1.3380    1.9520   -5.3500 hc        1 G2A      0.081000
     34 HBA         0.7480    2.0290  -11.2770 h1        1 G2A      0.121000
     35 H051        0.7010    1.3020   -4.3620 hc        1 G2A      0.082500
     36 H052        0.3320   -0.2310   -4.6180 hc        1 G2A      0.082500
     37 H061       -1.1660    1.5080   -2.9380 hc        1 G2A      0.079000
     38 H062       -1.5180   -0.0310   -3.1840 hc        1 G2A      0.079000
     39 H071        0.8920    0.8580   -1.9650 hc        1 G2A      0.080000
     40 H072        0.4870   -0.6740   -2.1650 hc        1 G2A      0.080000
     41 H081       -1.3630   -0.3580   -0.7320 hc        1 G2A      0.079000
     42 H082       -0.9210    1.1600   -0.5100 hc        1 G2A      0.079000
     43 H091        0.6340   -1.0930    0.2610 hc        1 G2A      0.079000
     44 H092        1.0970    0.4220    0.4640 hc        1 G2A      0.079000
     45 H101       -1.2140   -0.6910    1.6940 hc        1 G2A      0.079000
     46 H102       -0.6730    0.7920    1.9420 hc        1 G2A      0.079000
     47 H111        0.7340   -1.5720    2.6660 hc        1 G2A      0.079000
     48 H112        1.2960   -0.0940    2.8930 hc        1 G2A      0.079000
     49 H121       -0.4980    0.3570    4.3540 hc        1 G2A      0.079000
     50 H122       -1.0450   -1.1280    4.1350 hc        1 G2A      0.079000
     51 H131        0.9640   -1.9740    5.0710 hc        1 G2A      0.079000
     52 H132        1.4400   -0.4750    5.3540 hc        1 G2A      0.079000
     53 H141       -0.8480   -1.6910    6.5250 hc        1 G2A      0.079000
     54 H142       -0.4240   -0.1720    6.7780 hc        1 G2A      0.079000
     55 H151        1.1490   -2.4220    7.5200 hc        1 G2A      0.079000
     56 H152        1.5920   -0.9050    7.7570 hc        1 G2A      0.079000
     57 H161       -0.7200   -2.0610    8.9410 hc        1 G2A      0.079000
     58 H162       -0.1860   -0.5830    9.2300 hc        1 G2A      0.079000
     59 H171        1.7820   -1.4950   10.1680 hc        1 G2A      0.079000
     60 H172        1.2110   -2.9640    9.9140 hc        1 G2A      0.079000
     61 H181       -0.5550   -2.5550   11.3930 hc        1 G2A      0.079000
     62 H182       -0.0410   -1.0590   11.6140 hc        1 G2A      0.079000
     63 H191        1.4170   -3.3820   12.3670 hc        1 G2A      0.078000
     64 H192        1.9430   -1.8880   12.5770 hc        1 G2A      0.078000
     65 H201        0.1240   -1.4660   14.0260 hc        1 G2A      0.072000
     66 H202        1.0190   -2.6680   14.5850 hc        1 G2A      0.072000
     67 H203       -0.3620   -2.9790   13.8390 hc        1 G2A      0.072000
     68 H231       -1.2320    1.2760  -13.1490 h1        1 G2A      0.098500
     69 H232       -0.5620    0.1600  -12.2190 h1        1 G2A      0.098500
     70 H27         0.4590    0.5340  -14.2430 ho        1 G2A      0.213500
     71 H26         0.3550    4.5700  -13.4300 ho        1 G2A      0.213500
     72 HAS1       -0.5520    4.0940  -11.3930 h1        1 G2A      0.098500
     73 HAS2       -1.3020    3.4310  -12.6410 h1        1 G2A      0.098500
@<TRIPOS>BOND
     1    1    2 1   
     2    1    5 1   
     3    3    4 1   
     4    3   28 1   
     5    3   29 1   
     6    4    6 1   
     7    4   30 1   
     8    4   31 1   
     9    5   25 1   
    10    6    7 1   
    11    6   32 1   
    12    6   33 1   
    13    7    8 1   
    14    7   35 1   
    15    7   36 1   
    16    8    9 1   
    17    8   37 1   
    18    8   38 1   
    19    9   10 1   
    20    9   39 1   
    21    9   40 1   
    22   10   11 1   
    23   10   41 1   
    24   10   42 1   
    25   11   12 1   
    26   11   43 1   
    27   11   44 1   
    28   12   13 1   
    29   12   45 1   
    30   12   46 1   
    31   13   14 1   
    32   13   47 1   
    33   13   48 1   
    34   14   15 1   
    35   14   49 1   
    36   14   50 1   
    37   15   16 1   
    38   15   51 1   
    39   15   52 1   
    40   16   17 1   
    41   16   53 1   
    42   16   54 1   
    43   17   18 1   
    44   17   55 1   
    45   17   56 1   
    46   18   19 1   
    47   18   57 1   
    48   18   58 1   
    49   19   20 1   
    50   19   59 1   
    51   19   60 1   
    52   20   21 1   
    53   20   61 1   
    54   20   62 1   
    55   21   22 1   
    56   21   63 1   
    57   21   64 1   
    58   22   65 1   
    59   22   66 1   
    60   22   67 1   
    61   23   25 1   
    62   23   26 1   
    63   23   68 1   
    64   23   69 1   
    65   24   25 1   
    66   24   27 1   
    67   24   72 1   
    68   24   73 1   
    69   25   34 1   
    70   26   70 1   
    71   27   71 1   
@<TRIPOS>SUBSTRUCTURE
     1 G2A         1 TEMP              0 ****  ****    0 ROOT
