@<TRIPOS>MOLECULE
G2A
   73    72     1     0     0
SMALL
bcc


@<TRIPOS>ATOM
      1 C01         0.2590   -0.4370   -0.0430 c         1 G2A      0.644100
      2 O01         1.3820   -0.8790   -0.2890 o         1 G2A     -0.541000
      3 C02        -0.4940   -0.4220    1.2500 c3        1 G2A     -0.126400
      4 C03         0.4450   -0.2420    2.4250 c3        1 G2A     -0.079400
      5 O03        -0.4560    0.1290   -1.0670 os        1 G2A     -0.449900
      6 C04        -0.3050   -0.3700    3.7340 c3        1 G2A     -0.079400
      7 C05         0.6240   -0.1740    4.9130 c3        1 G2A     -0.079400
      8 C06        -0.1200   -0.3050    6.2240 c3        1 G2A     -0.079400
      9 C07         0.8080   -0.1100    7.4040 c3        1 G2A     -0.079400
     10 C08         0.0640   -0.2420    8.7160 c3        1 G2A     -0.079400
     11 C09         0.9920   -0.0480    9.8950 c3        1 G2A     -0.079400
     12 C10         0.2480   -0.1810   11.2070 c3        1 G2A     -0.079400
     13 C11         1.1770    0.0120   12.3870 c3        1 G2A     -0.079400
     14 C12         0.4330   -0.1210   13.6990 c3        1 G2A     -0.079400
     15 C13         1.3620    0.0700   14.8790 c3        1 G2A     -0.079400
     16 C14         0.6180   -0.0630   16.1900 c3        1 G2A     -0.079400
     17 C15         1.5470    0.1270   17.3700 c3        1 G2A     -0.079400
     18 C16         0.8030   -0.0060   18.6820 c3        1 G2A     -0.079400
     19 C17         1.7320    0.1840   19.8620 c3        1 G2A     -0.079400
     20 C18         0.9890    0.0500   21.1740 c3        1 G2A     -0.079400
     21 C19         1.9170    0.2400   22.3550 c3        1 G2A     -0.080400
     22 C20         1.1810    0.1080   23.6630 c3        1 G2A     -0.092100
     23 C23        -0.0570   -1.2820   -3.0120 c3        1 G2A      0.122400
     24 CAS        -0.6010    1.2070   -3.1550 c3        1 G2A      0.122400
     25 CBA         0.1220    0.1000   -2.3830 c3        1 G2A      0.067100
     26 O27        -1.3830   -1.7530   -2.9590 oh        1 G2A     -0.601300
     27 O26        -1.9980    1.0030   -3.2030 oh        1 G2A     -0.601300
     28 H021       -1.0370   -1.4030    1.3290 hc        1 G2A      0.080700
     29 H022       -1.2630    0.3940    1.2310 hc        1 G2A      0.080700
     30 H031        0.9350    0.7640    2.3650 hc        1 G2A      0.057700
     31 H032        1.2610   -1.0120    2.3720 hc        1 G2A      0.057700
     32 H041       -1.1290    0.3910    3.7730 hc        1 G2A      0.041700
     33 H042       -0.7840   -1.3820    3.7970 hc        1 G2A      0.041700
     34 HBA         1.2210    0.3340   -2.3160 h1        1 G2A      0.081700
     35 H051        1.1020    0.8390    4.8520 hc        1 G2A      0.042700
     36 H052        1.4500   -0.9320    4.8710 hc        1 G2A      0.042700
     37 H061       -0.9460    0.4530    6.2660 hc        1 G2A      0.040200
     38 H062       -0.5990   -1.3190    6.2860 hc        1 G2A      0.040200
     39 H071        1.2860    0.9030    7.3430 hc        1 G2A      0.040200
     40 H072        1.6340   -0.8680    7.3620 hc        1 G2A      0.040200
     41 H081       -0.4150   -1.2550    8.7760 hc        1 G2A      0.039700
     42 H082       -0.7620    0.5160    8.7580 hc        1 G2A      0.039700
     43 H091        1.4700    0.9650    9.8350 hc        1 G2A      0.039700
     44 H092        1.8180   -0.8060    9.8530 hc        1 G2A      0.039700
     45 H101       -0.2310   -1.1930   11.2670 hc        1 G2A      0.039700
     46 H102       -0.5770    0.5780   11.2500 hc        1 G2A      0.039700
     47 H111        1.6560    1.0240   12.3270 hc        1 G2A      0.039700
     48 H112        2.0020   -0.7470   12.3440 hc        1 G2A      0.039700
     49 H121       -0.3920    0.6380   13.7420 hc        1 G2A      0.039700
     50 H122       -0.0470   -1.1340   13.7580 hc        1 G2A      0.039700
     51 H131        2.1870   -0.6890   14.8350 hc        1 G2A      0.039700
     52 H132        1.8410    1.0820   14.8190 hc        1 G2A      0.039700
     53 H141       -0.2060    0.6960   16.2340 hc        1 G2A      0.039700
     54 H142        0.1380   -1.0760   16.2490 hc        1 G2A      0.039700
     55 H151        2.3720   -0.6320   17.3260 hc        1 G2A      0.039700
     56 H152        2.0270    1.1400   17.3110 hc        1 G2A      0.039700
     57 H161       -0.0210    0.7530   18.7260 hc        1 G2A      0.039700
     58 H162        0.3240   -1.0190   18.7410 hc        1 G2A      0.039700
     59 H171        2.2120    1.1970   19.8030 hc        1 G2A      0.039700
     60 H172        2.5570   -0.5750   19.8180 hc        1 G2A      0.039700
     61 H181        0.5090   -0.9620   21.2330 hc        1 G2A      0.039700
     62 H182        0.1640    0.8090   21.2180 hc        1 G2A      0.039700
     63 H191        2.3970    1.2530   22.2930 hc        1 G2A      0.038700
     64 H192        2.7420   -0.5190   22.3080 hc        1 G2A      0.038700
     65 H201        0.7170   -0.9040   23.7540 hc        1 G2A      0.032700
     66 H202        1.8830    0.2520   24.5200 hc        1 G2A      0.032700
     67 H203        0.3700    0.8720   23.7390 hc        1 G2A      0.032700
     68 H231        0.3070   -1.2430   -4.0740 h1        1 G2A      0.058200
     69 H232        0.5380   -2.0390   -2.4300 h1        1 G2A      0.058200
     70 H27        -1.9380   -1.1240   -3.4420 ho        1 G2A      0.418000
     71 H26        -2.3100    0.9490   -2.2900 ho        1 G2A      0.418000
     72 HAS1       -0.2670    1.2000   -4.2270 h1        1 G2A      0.058200
     73 HAS2       -0.3730    2.2020   -2.6880 h1        1 G2A      0.058200
@<TRIPOS>BOND
     1    1    2 2   
     2    1    3 1   
     3    1    5 1   
     4    3    4 1   
     5    3   28 1   
     6    3   29 1   
     7    4    6 1   
     8    4   30 1   
     9    4   31 1   
    10    5   25 1   
    11    6    7 1   
    12    6   32 1   
    13    6   33 1   
    14    7    8 1   
    15    7   35 1   
    16    7   36 1   
    17    8    9 1   
    18    8   37 1   
    19    8   38 1   
    20    9   10 1   
    21    9   39 1   
    22    9   40 1   
    23   10   11 1   
    24   10   41 1   
    25   10   42 1   
    26   11   12 1   
    27   11   43 1   
    28   11   44 1   
    29   12   13 1   
    30   12   45 1   
    31   12   46 1   
    32   13   14 1   
    33   13   47 1   
    34   13   48 1   
    35   14   15 1   
    36   14   49 1   
    37   14   50 1   
    38   15   16 1   
    39   15   51 1   
    40   15   52 1   
    41   16   17 1   
    42   16   53 1   
    43   16   54 1   
    44   17   18 1   
    45   17   55 1   
    46   17   56 1   
    47   18   19 1   
    48   18   57 1   
    49   18   58 1   
    50   19   20 1   
    51   19   59 1   
    52   19   60 1   
    53   20   21 1   
    54   20   61 1   
    55   20   62 1   
    56   21   22 1   
    57   21   63 1   
    58   21   64 1   
    59   22   65 1   
    60   22   66 1   
    61   22   67 1   
    62   23   25 1   
    63   23   26 1   
    64   23   68 1   
    65   23   69 1   
    66   24   25 1   
    67   24   27 1   
    68   24   72 1   
    69   24   73 1   
    70   25   34 1   
    71   26   70 1   
    72   27   71 1   
@<TRIPOS>SUBSTRUCTURE
     1 G2A         1 TEMP              0 ****  ****    0 ROOT
