@<TRIPOS>MOLECULE
G2F
   23    23     1     0     0
SMALL
bcc


@<TRIPOS>ATOM
      1 C1         -0.5460   -0.8880   -1.6160 c3        1 G2F      0.316900
      2 C2          0.8470   -1.2560   -1.3150 c3        1 G2F      0.080600
      3 C3          1.4030   -0.4150   -0.3040 c3        1 G2F      0.077100
      4 C4          0.6970    0.0550    0.8390 c3        1 G2F      0.129100
      5 C5         -0.7160    0.4230    0.5000 c3        1 G2F      0.103100
      6 C6         -1.0800    1.6160    1.2390 c3        1 G2F      0.114400
      7 O1         -1.3380   -1.7350   -1.0410 oh        1 G2F     -0.569800
      8 O3          1.9420    0.9040   -1.0740 oh        1 G2F     -0.602800
      9 O4          0.6840   -1.0160    1.8710 oh        1 G2F     -0.588800
     10 O5         -0.9570    0.6940   -1.0980 os        1 G2F     -0.450600
     11 O6         -2.3960    2.0070    0.8830 oh        1 G2F     -0.590800
     12 F2          0.8800   -2.5960   -0.8670 f         1 G2F     -0.232300
     13 H1         -0.6790   -0.9440   -2.5800 h2        1 G2F      0.087700
     14 H2          1.3930   -1.1750   -2.1450 h1        1 G2F      0.081700
     15 H3          2.1800   -0.8790    0.0340 h1        1 G2F      0.077700
     16 H4          1.1680    0.8650    1.2090 h1        1 G2F      0.053700
     17 H5         -1.3310   -0.3430    0.7950 h1        1 G2F      0.111700
     18 H61        -0.4320    2.3600    1.0180 h1        1 G2F      0.054200
     19 H62        -1.0460    1.4220    2.2380 h1        1 G2F      0.054200
     20 HO1        -2.0710   -1.8670   -1.5630 ho        1 G2F      0.431000
     21 HO3         2.8290    0.9120   -1.0620 ho        1 G2F      0.421000
     22 HO4         1.2560   -0.7710    2.5890 ho        1 G2F      0.427000
     23 HO6        -2.6840    2.6270    1.4480 ho        1 G2F      0.414000
@<TRIPOS>BOND
     1    1    2 1   
     2    1    7 1   
     3    1   10 1   
     4    1   13 1   
     5    2    3 1   
     6    2   12 1   
     7    2   14 1   
     8    3    4 1   
     9    3    8 1   
    10    3   15 1   
    11    4    5 1   
    12    4    9 1   
    13    4   16 1   
    14    5    6 1   
    15    5   10 1   
    16    5   17 1   
    17    6   11 1   
    18    6   18 1   
    19    6   19 1   
    20    7   20 1   
    21    8   21 1   
    22    9   22 1   
    23   11   23 1   
@<TRIPOS>SUBSTRUCTURE
     1 G2F         1 TEMP              0 ****  ****    0 ROOT
