@<TRIPOS>MOLECULE
G2F
   23    23     1     0     0
SMALL
bcc


@<TRIPOS>ATOM
      1 C1         -0.5530    1.5520   -0.2900 c3        1 G2F      0.310900
      2 C2         -1.5980    0.4310   -0.5160 c3        1 G2F      0.124600
      3 C3         -1.1550   -0.8380    0.2430 c3        1 G2F      0.076100
      4 C4          0.2740   -1.2120   -0.1860 c3        1 G2F      0.126100
      5 C5          1.2080   -0.0260    0.1050 c3        1 G2F      0.140100
      6 C6          2.6260   -0.3070   -0.3940 c3        1 G2F      0.135400
      7 O1         -0.5510    1.9030    1.0690 oh        1 G2F     -0.614800
      8 O3         -1.9780   -1.9400   -0.0950 oh        1 G2F     -0.604800
      9 O4          0.7460   -2.3180    0.5610 oh        1 G2F     -0.592800
     10 O5          0.7560    1.1290   -0.6120 os        1 G2F     -0.440600
     11 O6          3.5000    0.5000    0.3790 oh        1 G2F     -0.598800
     12 F2         -2.8620    0.8280   -0.1230 f         1 G2F     -0.225300
     13 H1         -0.7490    2.4360   -0.9610 h2        1 G2F      0.084700
     14 H2         -1.6240    0.2080   -1.6230 h1        1 G2F      0.076700
     15 H3         -1.1940   -0.6460    1.3510 h1        1 G2F      0.082700
     16 H4          0.2840   -1.4640   -1.2830 h1        1 G2F      0.056700
     17 H5          1.2180    0.1980    1.2080 h1        1 G2F      0.089700
     18 H61         2.8610   -1.3940   -0.2300 h1        1 G2F      0.047200
     19 H62         2.7160   -0.0510   -1.4830 h1        1 G2F      0.047200
     20 HO1         0.1500    2.5570    1.1980 ho        1 G2F      0.428000
     21 HO3        -2.8750   -1.7120    0.1820 ho        1 G2F      0.422000
     22 HO4         0.0740   -3.0090    0.4810 ho        1 G2F      0.425000
     23 HO6         4.3830    0.3730    0.0130 ho        1 G2F      0.404000
@<TRIPOS>BOND
     1    1    2 1   
     2    1    7 1   
     3    1   10 1   
     4    1   13 1   
     5    2    3 1   
     6    2   12 1   
     7    2   14 1   
     8    3    4 1   
     9    3    8 1   
    10    3   15 1   
    11    4    5 1   
    12    4    9 1   
    13    4   16 1   
    14    5    6 1   
    15    5   10 1   
    16    5   17 1   
    17    6   11 1   
    18    6   18 1   
    19    6   19 1   
    20    7   20 1   
    21    8   21 1   
    22    9   22 1   
    23   11   23 1   
@<TRIPOS>SUBSTRUCTURE
     1 G2F         1 TEMP              0 ****  ****    0 ROOT
