@<TRIPOS>MOLECULE
G2G
   82    87     1     0     0
SMALL
bcc


@<TRIPOS>ATOM
      1 C3          0.3010    0.0100    0.0870 ca        1 G2G     -0.076000
      2 C2         -9.1530    1.1240   -0.9560 cc        1 G2G      0.363400
      3 N1         -8.3310    0.7510    0.0620 n         1 G2G     -0.454500
      4 C7          1.6890    0.0060    0.2070 ca        1 G2G     -0.243300
      5 C8         -3.9540    1.2250    0.4350 ca        1 G2G     -0.100000
      6 C10        -8.8350    1.7110   -2.2390 cc        1 G2G     -0.318600
      7 C25        -4.7590    0.2790    1.0540 ca        1 G2G      0.018600
      8 C26        -4.9320   -1.8910    2.3130 ca        1 G2G     -0.149000
      9 C27        -4.3270   -2.9510    2.9440 ca        1 G2G     -0.100000
     10 C9          5.4980    1.4980    2.5090 c3        1 G2G      0.135800
     11 C12       -10.0610    1.9250   -2.8940 cd        1 G2G      0.184800
     12 C13       -11.2980    0.8840    0.3140 ca        1 G2G     -0.127200
     13 C14       -10.3020    2.4750   -4.2680 c3        1 G2G     -0.014800
     14 C15       -11.1210    1.4770   -5.0810 c3        1 G2G     -0.099100
     15 C16       -11.0590    3.7960   -4.1590 c3        1 G2G     -0.099100
     16 C17        -8.9640    2.7130   -4.9570 c3        1 G2G     -0.099100
     17 C18       -11.6590   -0.3690    0.8470 ca        1 G2G     -0.094000
     18 C19       -11.6650    2.0680    0.9800 ca        1 G2G     -0.094000
     19 C20       -12.3710    1.9910    2.1760 ca        1 G2G     -0.129000
     20 C21       -12.3610   -0.4220    2.0470 ca        1 G2G     -0.129000
     21 N7        -10.5710    0.9050   -0.9310 na        1 G2G      0.043900
     22 N8        -11.1040    1.5860   -2.0180 na        1 G2G     -0.550300
     23 C24        -6.8860    0.8040   -0.0450 c         1 G2G      0.787100
     24 O1         -6.3840    1.2190   -1.1060 o         1 G2G     -0.570100
     25 N4         -6.1690    0.4420    1.0850 n         1 G2G     -0.437100
     26 C4         -4.1630   -0.8510    1.7210 ca        1 G2G     -0.035000
     27 C5         -2.7460   -0.9320    1.7840 ca        1 G2G     -0.018000
     28 C6         -1.9420    0.0800    1.1720 cp        1 G2G      0.005000
     29 C28        -2.9170   -3.0300    3.0120 ca        1 G2G     -0.123000
     30 C29        -2.1490   -2.0460    2.4410 ca        1 G2G     -0.102000
     31 C30        -2.5510    1.1160    0.4940 ca        1 G2G     -0.116000
     32 C37         0.1860    0.0690    2.4920 ca        1 G2G      0.413200
     33 C1         -0.4840    0.0380    1.2480 cp        1 G2G     -0.185300
     34 C36         2.2680    0.0370    1.4940 ca        1 G2G      0.427600
     35 N2          1.5220    0.0690    2.6250 nb        1 G2G     -0.646000
     36 C23         3.7830    0.0320    1.6170 c3        1 G2G      0.122500
     37 N3          4.3140    1.3840    1.6690 n3        1 G2G     -0.730600
     38 C31         4.5140    1.9670    0.3500 c3        1 G2G      0.135800
     39 C32         5.0990    3.3830    0.4210 c3        1 G2G      0.126400
     40 C33         6.0640    2.9230    2.5250 c3        1 G2G      0.126400
     41 O2          6.2820    3.4190    1.2090 os        1 G2G     -0.411600
     42 C34       -12.7260    0.7500    2.7220 ca        1 G2G     -0.016300
     43 H3         -0.1750   -0.0110   -0.9050 ha        1 G2G      0.143000
     44 HN1        -8.7510    0.4320    0.9120 hn        1 G2G      0.347500
     45 H7          2.3300   -0.0190   -0.6860 ha        1 G2G      0.149000
     46 H8         -4.3930    2.0740   -0.1150 ha        1 G2G      0.158000
     47 H10        -7.8290    1.9360   -2.6030 ha        1 G2G      0.239000
     48 H26        -6.0290   -1.8770    2.2600 ha        1 G2G      0.110000
     49 H27        -4.9310   -3.7520    3.3980 ha        1 G2G      0.141000
     50 H91         6.3140    0.7930    2.1740 h1        1 G2G      0.041450
     51 H92         5.2040    1.2200    3.5600 h1        1 G2G      0.041450
     52 H151      -10.6170    0.4820   -5.1070 hc        1 G2G      0.057811
     53 H152      -12.1470    1.3590   -4.6580 hc        1 G2G      0.057811
     54 H153      -11.2190    1.8510   -6.1300 hc        1 G2G      0.057811
     55 H161      -11.1930    4.2270   -5.1810 hc        1 G2G      0.057811
     56 H162      -10.4870    4.5260   -3.5380 hc        1 G2G      0.057811
     57 H163      -12.0670    3.6430   -3.7050 hc        1 G2G      0.057811
     58 H171       -9.1430    3.1120   -5.9860 hc        1 G2G      0.057811
     59 H172       -8.3880    1.7600   -5.0390 hc        1 G2G      0.057811
     60 H173       -8.3560    3.4580   -4.3890 hc        1 G2G      0.057811
     61 H18       -11.3990   -1.3050    0.3260 ha        1 G2G      0.156500
     62 H19       -11.4070    3.0550    0.5640 ha        1 G2G      0.156500
     63 H20       -12.6580    2.9190    2.6970 ha        1 G2G      0.162500
     64 H21       -12.6420   -1.4030    2.4660 ha        1 G2G      0.162500
     65 H221      -14.5910    0.7220    3.7620 hc        1 G2G      0.067033
     66 H222      -13.2840   -0.2720    4.5330 hc        1 G2G      0.067033
     67 H223      -13.2420    1.5390    4.6560 hc        1 G2G      0.067033
     68 HN8       -11.9860    1.2280   -2.3450 hn        1 G2G      0.489800
     69 HN4        -6.6350    0.0390    1.8670 hn        1 G2G      0.332500
     70 H28        -2.4480   -3.8870    3.5200 ha        1 G2G      0.149000
     71 H29        -1.0490   -2.1080    2.4780 ha        1 G2G      0.155000
     72 H30        -1.9410    1.8890   -0.0020 ha        1 G2G      0.153000
     73 H37        -0.3870    0.1030    3.4370 h4        1 G2G      0.029100
     74 H231        4.1930   -0.5540    0.7420 h1        1 G2G      0.054200
     75 H232        4.0740   -0.5190    2.5580 h1        1 G2G      0.054200
     76 H311        3.5110    2.0140   -0.1600 h1        1 G2G      0.041450
     77 H312        5.1990    1.3320   -0.2870 h1        1 G2G      0.041450
     78 H321        4.3460    4.1020    0.8380 h1        1 G2G      0.056700
     79 H322        5.4300    3.7160   -0.5970 h1        1 G2G      0.056700
     80 H331        5.3770    3.6150    3.0790 h1        1 G2G      0.056700
     81 H332        7.0820    2.9270    2.9970 h1        1 G2G      0.056700
     82 C22       -13.4930    0.6800    3.9850 c3        1 G2G     -0.075800
@<TRIPOS>BOND
     1    1    4 ar  
     2    1   33 ar  
     3    1   43 1   
     4    2    3 2   
     5    2    6 1   
     6    2   21 1   
     7    3   23 1   
     8    3   44 1   
     9    4   34 ar  
    10    4   45 1   
    11    5    7 ar  
    12    5   31 ar  
    13    5   46 1   
    14    6   11 2   
    15    6   47 1   
    16    7   25 1   
    17    7   26 ar  
    18    8    9 ar  
    19    8   26 ar  
    20    8   48 1   
    21    9   29 ar  
    22    9   49 1   
    23   10   37 1   
    24   10   40 1   
    25   10   50 1   
    26   10   51 1   
    27   11   13 1   
    28   11   22 1   
    29   12   17 ar  
    30   12   18 ar  
    31   12   21 1   
    32   13   14 1   
    33   13   15 1   
    34   13   16 1   
    35   14   52 1   
    36   14   53 1   
    37   14   54 1   
    38   15   55 1   
    39   15   56 1   
    40   15   57 1   
    41   16   58 1   
    42   16   59 1   
    43   16   60 1   
    44   17   20 ar  
    45   17   61 1   
    46   18   19 ar  
    47   18   62 1   
    48   19   42 ar  
    49   19   63 1   
    50   20   42 ar  
    51   20   64 1   
    52   21   22 1   
    53   22   68 1   
    54   23   24 2   
    55   23   25 1   
    56   25   69 1   
    57   26   27 ar  
    58   27   28 ar  
    59   27   30 ar  
    60   28   31 ar  
    61   28   33 1   
    62   29   30 ar  
    63   29   70 1   
    64   30   71 1   
    65   31   72 1   
    66   32   33 ar  
    67   32   35 ar  
    68   32   73 1   
    69   34   35 ar  
    70   34   36 1   
    71   36   37 1   
    72   36   74 1   
    73   36   75 1   
    74   37   38 1   
    75   38   39 1   
    76   38   76 1   
    77   38   77 1   
    78   39   41 1   
    79   39   78 1   
    80   39   79 1   
    81   40   41 1   
    82   40   80 1   
    83   40   81 1   
    84   42   82 1   
    85   65   82 1   
    86   66   82 1   
    87   67   82 1   
@<TRIPOS>SUBSTRUCTURE
     1 G2G         1 TEMP              0 ****  ****    0 ROOT
