@<TRIPOS>MOLECULE
G2G
   82    87     1     0     0
SMALL
bcc


@<TRIPOS>ATOM
      1 C3          4.8290    0.3870   -1.1690 ca        1 G2G     -0.076000
      2 C2         -4.6900    0.9210   -0.2640 cc        1 G2G      0.363400
      3 N1         -3.7530   -0.0440   -0.0600 n         1 G2G     -0.454500
      4 C7          6.2220    0.4240   -1.1870 ca        1 G2G     -0.243300
      5 C8          0.6350    0.3480    0.2830 ca        1 G2G     -0.100000
      6 C10        -4.5260    2.3380   -0.5070 cc        1 G2G     -0.318600
      7 C25        -0.0870   -0.7680   -0.1170 ca        1 G2G      0.018600
      8 C26        -0.0990   -3.0290   -1.2190 ca        1 G2G     -0.149000
      9 C27         0.5810   -4.0770   -1.7890 ca        1 G2G     -0.100000
     10 C9         10.2610   -0.2740    1.0990 c3        1 G2G      0.135800
     11 C12        -5.8210    2.8750   -0.6190 cd        1 G2G      0.184800
     12 C13        -6.6710   -0.4730    0.3680 ca        1 G2G     -0.127200
     13 C14        -6.2240    4.2910   -0.9080 c3        1 G2G     -0.014800
     14 C15        -7.1250    4.3230   -2.1380 c3        1 G2G     -0.099100
     15 C16        -6.9700    4.8610    0.2940 c3        1 G2G     -0.099100
     16 C17        -4.9750    5.1250   -1.1720 c3        1 G2G     -0.099100
     17 C18        -6.9620   -1.6460   -0.3560 ca        1 G2G     -0.094000
     18 C19        -6.9650   -0.3990    1.7420 ca        1 G2G     -0.094000
     19 C20        -7.5260   -1.4980    2.3830 ca        1 G2G     -0.129000
     20 C21        -7.5190   -2.7350    0.3070 ca        1 G2G     -0.129000
     21 N7         -6.0940    0.6380   -0.3480 na        1 G2G      0.043900
     22 N8         -6.7540    1.8600   -0.3520 na        1 G2G     -0.550300
     23 C24        -2.3310    0.2190   -0.1610 c         1 G2G      0.787100
     24 O1         -1.9580    1.3750   -0.4310 o         1 G2G     -0.570100
     25 N4         -1.4860   -0.8440    0.1190 n         1 G2G     -0.437100
     26 C4          0.5890   -1.8860   -0.7240 ca        1 G2G     -0.035000
     27 C5          2.0050   -1.8430   -0.8400 ca        1 G2G     -0.018000
     28 C6          2.7250   -0.6950   -0.3830 cp        1 G2G      0.005000
     29 C28         1.9900   -4.0360   -1.9000 ca        1 G2G     -0.123000
     30 C29         2.6800   -2.9430   -1.4400 ca        1 G2G     -0.102000
     31 C30         2.0350    0.3790    0.1420 ca        1 G2G     -0.116000
     32 C37         4.9920   -1.5810    0.2110 ca        1 G2G      0.413200
     33 C1          4.1830   -0.6350   -0.4610 cp        1 G2G     -0.184300
     34 C36         6.9450   -0.5650   -0.4870 ca        1 G2G      0.427600
     35 N2          6.3340   -1.5570    0.2060 nb        1 G2G     -0.646000
     36 C23         8.4640   -0.5190   -0.5120 c3        1 G2G      0.122500
     37 N3          8.9880    0.2400    0.6120 n3        1 G2G     -0.730600
     38 C31         9.0300    1.6730    0.3610 c3        1 G2G      0.135800
     39 C32         9.6090    2.4550    1.5460 c3        1 G2G      0.126400
     40 C33        10.8160    0.5580    2.2620 c3        1 G2G      0.126400
     41 O2         10.8760    1.9430    1.9400 os        1 G2G     -0.411600
     42 C34        -7.8090   -2.6750    1.6770 ca        1 G2G     -0.016300
     43 H3          4.2420    1.1480   -1.7050 ha        1 G2G      0.143000
     44 HN1        -4.0700   -0.9650    0.1710 hn        1 G2G      0.347500
     45 H7          6.7550    1.2120   -1.7370 ha        1 G2G      0.149000
     46 H8          0.1290    1.2290    0.7110 ha        1 G2G      0.158000
     47 H10        -3.5700    2.8640   -0.5820 ha        1 G2G      0.239000
     48 H26        -1.1960   -3.0870   -1.1710 ha        1 G2G      0.110000
     49 H27         0.0390   -4.9560   -2.1700 ha        1 G2G      0.141000
     50 H91        10.0940   -1.3260    1.4630 h1        1 G2G      0.041450
     51 H92        11.0370   -0.3040    0.2800 h1        1 G2G      0.041450
     52 H151       -8.0940    3.8060   -1.9410 hc        1 G2G      0.057811
     53 H152       -7.3460    5.3860   -2.4040 hc        1 G2G      0.057811
     54 H153       -6.6210    3.8410   -3.0100 hc        1 G2G      0.057811
     55 H161       -6.3350    4.8130    1.2100 hc        1 G2G      0.057811
     56 H162       -7.2250    5.9300    0.0940 hc        1 G2G      0.057811
     57 H163       -7.9180    4.3010    0.4780 hc        1 G2G      0.057811
     58 H171       -4.4070    4.7190   -2.0430 hc        1 G2G      0.057811
     59 H172       -5.2750    6.1770   -1.4000 hc        1 G2G      0.057811
     60 H173       -4.3110    5.1320   -0.2750 hc        1 G2G      0.057811
     61 H18        -6.7600   -1.7120   -1.4370 ha        1 G2G      0.156500
     62 H19        -6.7620    0.5200    2.3160 ha        1 G2G      0.156500
     63 H20        -7.7550   -1.4390    3.4600 ha        1 G2G      0.162500
     64 H21        -7.7440   -3.6540   -0.2590 ha        1 G2G      0.162500
     65 H221       -9.5400   -3.7330    2.3430 hc        1 G2G      0.067033
     66 H222       -8.1490   -4.7930    1.8630 hc        1 G2G      0.067033
     67 H223       -8.1000   -3.8820    3.4340 hc        1 G2G      0.067033
     68 HN8        -7.6660    1.8430   -0.7780 hn        1 G2G      0.489800
     69 HN4        -1.8550   -1.7610    0.2420 hn        1 G2G      0.332500
     70 H28         2.5200   -4.8840   -2.3610 ha        1 G2G      0.149000
     71 H29         3.7780   -2.8980   -1.5360 ha        1 G2G      0.155000
     72 H30         2.5790    1.2770    0.4760 ha        1 G2G      0.153000
     73 H37         4.5310   -2.4000    0.7940 h4        1 G2G      0.029100
     74 H231        8.8650   -1.5730   -0.4700 h1        1 G2G      0.054200
     75 H232        8.7740   -0.0770   -1.5050 h1        1 G2G      0.054200
     76 H311        9.6390    1.9180   -0.5580 h1        1 G2G      0.041450
     77 H312        7.9740    2.0190    0.1790 h1        1 G2G      0.041450
     78 H321        9.8170    3.5150    1.2440 h1        1 G2G      0.056700
     79 H322        8.9050    2.4320    2.4190 h1        1 G2G      0.056700
     80 H331       10.1940    0.4130    3.1840 h1        1 G2G      0.056700
     81 H332       11.8820    0.2730    2.4650 h1        1 G2G      0.056700
     82 C22        -8.4240   -3.8320    2.3650 c3        1 G2G     -0.075800
@<TRIPOS>BOND
     1    1    4 ar  
     2    1   33 ar  
     3    1   43 1   
     4    2    3 2   
     5    2    6 1   
     6    2   21 1   
     7    3   23 1   
     8    3   44 1   
     9    4   34 ar  
    10    4   45 1   
    11    5    7 ar  
    12    5   31 ar  
    13    5   46 1   
    14    6   11 2   
    15    6   47 1   
    16    7   25 1   
    17    7   26 ar  
    18    8    9 ar  
    19    8   26 ar  
    20    8   48 1   
    21    9   29 ar  
    22    9   49 1   
    23   10   37 1   
    24   10   40 1   
    25   10   50 1   
    26   10   51 1   
    27   11   13 1   
    28   11   22 1   
    29   12   17 ar  
    30   12   18 ar  
    31   12   21 1   
    32   13   14 1   
    33   13   15 1   
    34   13   16 1   
    35   14   52 1   
    36   14   53 1   
    37   14   54 1   
    38   15   55 1   
    39   15   56 1   
    40   15   57 1   
    41   16   58 1   
    42   16   59 1   
    43   16   60 1   
    44   17   20 ar  
    45   17   61 1   
    46   18   19 ar  
    47   18   62 1   
    48   19   42 ar  
    49   19   63 1   
    50   20   42 ar  
    51   20   64 1   
    52   21   22 1   
    53   22   68 1   
    54   23   24 2   
    55   23   25 1   
    56   25   69 1   
    57   26   27 ar  
    58   27   28 ar  
    59   27   30 ar  
    60   28   31 ar  
    61   28   33 1   
    62   29   30 ar  
    63   29   70 1   
    64   30   71 1   
    65   31   72 1   
    66   32   33 ar  
    67   32   35 ar  
    68   32   73 1   
    69   34   35 ar  
    70   34   36 1   
    71   36   37 1   
    72   36   74 1   
    73   36   75 1   
    74   37   38 1   
    75   38   39 1   
    76   38   76 1   
    77   38   77 1   
    78   39   41 1   
    79   39   78 1   
    80   39   79 1   
    81   40   41 1   
    82   40   80 1   
    83   40   81 1   
    84   42   82 1   
    85   65   82 1   
    86   66   82 1   
    87   67   82 1   
@<TRIPOS>SUBSTRUCTURE
     1 G2G         1 TEMP              0 ****  ****    0 ROOT
