@<TRIPOS>MOLECULE
G2G
   82    70     1     0     0
SMALL
bcc


@<TRIPOS>ATOM
      1 C3          4.5760   -2.7390   -0.4270 c1        1 G2G     -0.113375
      2 C2         -3.4070    1.8470    1.0690 c1        1 G2G      0.174500
      3 N1         -2.4900    1.6300   -0.0270 n2        1 G2G     -0.301000
      4 C7          5.9410   -2.9340   -0.5780 c1        1 G2G     -0.113375
      5 C8          1.2690   -0.3670   -1.2840 c1        1 G2G     -0.113375
      6 C10        -3.0570    2.0110    2.3860 c1        1 G2G     -0.237000
      7 C25         0.0180   -0.9900   -1.1900 c1        1 G2G      0.028000
      8 C26        -1.3460   -3.0370   -1.1040 c1        1 G2G     -0.149000
      9 C27        -1.4320   -4.4330   -1.1130 c1        1 G2G     -0.113375
     10 C9          8.9570   -1.5790   -1.0270 c3        1 G2G     -0.102500
     11 C12        -4.1770    2.3870    3.0780 c1        1 G2G      0.174500
     12 C13        -5.4710    2.1550   -0.2380 c1        1 G2G     -0.099000
     13 C14        -4.2370    2.7530    4.5880 c2        1 G2G     -0.019000
     14 C15        -3.1760    3.7980    4.8990 c3        1 G2G     -0.218333
     15 C16        -5.6270    3.3160    4.9270 c3        1 G2G     -0.218333
     16 C17        -3.9820    1.5120    5.4160 c3        1 G2G     -0.218333
     17 C18        -6.4500    1.1540   -0.1820 c1        1 G2G     -0.113375
     18 C19        -5.8370    3.4790   -0.5130 c1        1 G2G     -0.076500
     19 C20        -7.1800    3.8030   -0.7330 c1        1 G2G     -0.127000
     20 C21        -7.7910    1.4770   -0.4020 c1        1 G2G     -0.113375
     21 C22        -9.5620    3.3240   -0.7960 c3        1 G2G     -0.202000
     22 N7         -4.7420    2.1230    0.9520 n2        1 G2G     -0.111500
     23 N8         -5.2160    2.4570    2.1930 n2        1 G2G     -0.111500
     24 C24        -1.7660    0.3890   -0.1210 c2        1 G2G      0.414000
     25 O1         -1.9240   -0.4650    0.7130 o         1 G2G     -0.332000
     26 N4         -0.7770    0.2090   -1.1550 n         1 G2G     -0.292000
     27 C4         -0.0740   -2.4030   -1.1980 c1        1 G2G     -0.036000
     28 C5          1.0750   -3.1700   -1.2980 c1        1 G2G     -0.017000
     29 C6          2.3480   -2.5350   -1.3930 c1        1 G2G      0.002000
     30 C28        -0.2680   -5.2070   -1.2150 c1        1 G2G     -0.113375
     31 C29         0.9840   -4.5830   -1.3070 c1        1 G2G     -0.103000
     32 C30         2.4340   -1.1410   -1.3850 c1        1 G2G     -0.113375
     33 C37         4.3160   -2.7380   -2.8030 c1        1 G2G     -0.076500
     34 C1          3.7660   -2.6420   -1.5430 c1        1 G2G     -0.099000
     35 C36         6.4840   -3.0290   -1.8330 c1        1 G2G     -0.042000
     36 N2          5.6660   -2.9310   -2.9500 n1        1 G2G     -0.129000
     37 C23         7.9440   -3.4740   -1.9990 c3        1 G2G     -0.018000
     38 N3          8.7740   -2.3180   -2.2500 n3        1 G2G     -0.251000
     39 C31         8.2020   -1.5370   -3.2740 c3        1 G2G     -0.102500
     40 C32         8.9500   -0.2340   -3.4870 c3        1 G2G     -0.024500
     41 C33         9.7000   -0.2800   -1.2430 c3        1 G2G     -0.024500
     42 O2          9.1320    0.5000   -2.2630 os        1 G2G     -0.271000
     43 C34        -8.1570    2.8040   -0.6780 c1        1 G2G     -0.008000
     44 H3          4.1920   -2.6710    0.4560 ha        1 G2G      0.152000
     45 HN1        -2.2790    2.3230   -0.5830 hn        1 G2G      0.261000
     46 H7          6.5040   -3.0020    0.1930 ha        1 G2G      0.152000
     47 H8          1.3290    0.5990   -1.2780 ha        1 G2G      0.152000
     48 H10        -2.1620    1.8850    2.7640 DU        1 G2G      0.263000
     49 H26        -2.1560   -2.4970   -1.0320 ha        1 G2G      0.111000
     50 H27        -2.3030   -4.8690   -1.0500 ha        1 G2G      0.152000
     51 H91         9.4630   -2.1300   -0.3950 h1        1 G2G      0.082750
     52 H92         8.0930   -1.3830   -0.6480 h1        1 G2G      0.082750
     53 H151       -3.3040    4.5650    4.3270 hc        1 G2G      0.097778
     54 H152       -3.2520    4.0750    5.8420 hc        1 G2G      0.097778
     55 H153       -2.2850    3.4160    4.7400 hc        1 G2G      0.097778
     56 H161       -6.2940    2.6170    4.8200 hc        1 G2G      0.097778
     57 H162       -5.8370    4.0660    4.3200 hc        1 G2G      0.097778
     58 H163       -5.6340    3.6330    5.8480 hc        1 G2G      0.097778
     59 H171       -4.7250    0.8540    5.2680 hc        1 G2G      0.097778
     60 H172       -3.9450    1.7540    6.3610 hc        1 G2G      0.097778
     61 H173       -3.1190    1.1030    5.1430 hc        1 G2G      0.097778
     62 H18        -6.1880    0.2080    0.0150 ha        1 G2G      0.152000
     63 H19        -5.1310    4.2000   -0.5530 ha        1 G2G      0.160500
     64 H20        -7.4320    4.7180   -0.9240 ha        1 G2G      0.163000
     65 H21        -8.4900    0.7620   -0.3620 ha        1 G2G      0.152000
     66 H221       -9.6000    4.0050   -1.5020 hc        1 G2G      0.106667
     67 H222       -9.8420    3.7280    0.0730 hc        1 G2G      0.106667
     68 H223      -10.1590    2.5940   -1.0190 hc        1 G2G      0.106667
     69 HN8        -6.0640    2.6820    2.3910 DU        1 G2G      0.263000
     70 HN4        -0.6660    0.8570   -1.8090 hn        1 G2G      0.246000
     71 H28        -0.3290   -6.1960   -1.2230 ha        1 G2G      0.152000
     72 H29         1.8310   -5.1490   -1.3810 ha        1 G2G      0.155000
     73 H30         3.3300   -0.6910   -1.4540 ha        1 G2G      0.152000
     74 H37         3.7230   -2.6670   -3.6220 ha        1 G2G      0.160500
     75 H231        8.2410   -3.9170   -1.1920 h1        1 G2G      0.112000
     76 H232        8.0110   -4.0840   -2.7420 h1        1 G2G      0.112000
     77 H311        8.2130   -2.0550   -4.1150 h1        1 G2G      0.082750
     78 H312        7.2530   -1.3320   -3.0330 h1        1 G2G      0.082750
     79 H321        8.4590    0.3100   -4.1050 h1        1 G2G      0.096000
     80 H322        9.8470   -0.4380   -3.8790 h1        1 G2G      0.096000
     81 H331       10.6270   -0.4820   -1.4790 h1        1 G2G      0.096000
     82 H332        9.6900    0.2470   -0.3870 h1        1 G2G      0.096000
@<TRIPOS>BOND
     1    1    4 1   
     2    1   44 1   
     3    2    6 1   
     4    2   22 1   
     5    3   24 1   
     6    3   45 1   
     7    4   46 1   
     8    5   32 1   
     9    5   47 1   
    10    6   11 1   
    11    7   26 1   
    12    7   27 1   
    13    8   27 1   
    14    8   49 1   
    15    9   30 1   
    16    9   50 1   
    17   10   38 1   
    18   10   41 1   
    19   10   51 1   
    20   10   52 1   
    21   11   23 1   
    22   12   18 1   
    23   13   14 1   
    24   13   15 1   
    25   13   16 1   
    26   14   53 1   
    27   14   54 1   
    28   14   55 1   
    29   15   56 1   
    30   15   57 1   
    31   15   58 1   
    32   16   59 1   
    33   16   60 1   
    34   16   61 1   
    35   17   20 1   
    36   17   62 1   
    37   18   63 1   
    38   19   43 1   
    39   19   64 1   
    40   20   65 1   
    41   21   43 1   
    42   21   66 1   
    43   21   67 1   
    44   21   68 1   
    45   22   23 1   
    46   24   25 1   
    47   24   26 1   
    48   26   70 1   
    49   28   29 1   
    50   28   31 1   
    51   30   71 1   
    52   31   72 1   
    53   32   73 1   
    54   33   34 1   
    55   33   74 1   
    56   35   36 1   
    57   35   37 1   
    58   37   38 1   
    59   37   75 1   
    60   37   76 1   
    61   38   39 1   
    62   39   40 1   
    63   39   77 1   
    64   39   78 1   
    65   40   42 1   
    66   40   79 1   
    67   40   80 1   
    68   41   42 1   
    69   41   81 1   
    70   41   82 1   
@<TRIPOS>SUBSTRUCTURE
     1 G2G         1 TEMP              0 ****  ****    0 ROOT
