@<TRIPOS>MOLECULE
G2H
   17    16     1     0     0
SMALL
bcc


@<TRIPOS>ATOM
      1 C1          1.3180   -0.1720    1.9860 c3        1 G2H      0.127900
      2 C2          0.0420   -0.4960    1.1830 c3        1 G2H      0.152100
      3 C3         -1.1000   -0.8190    2.1670 c3        1 G2H      0.127900
      4 P          -0.1780    0.2970   -1.3070 p5        1 G2H      1.318900
      5 O11         2.4580   -0.0160    1.1790 oh        1 G2H     -0.683800
      6 O31        -1.7320    0.3460    2.6680 oh        1 G2H     -0.683800
      7 O1P        -0.3280    0.5800    0.4090 os        1 G2H     -0.568200
      8 O2P        -0.8500   -1.0390   -1.4520 o         1 G2H     -0.921167
      9 O3P        -0.8730    1.4880   -1.8950 o         1 G2H     -0.921167
     10 O4P         1.3300    0.2630   -1.4030 o         1 G2H     -0.921167
     11 H11A        1.5480   -1.0080    2.7040 h1        1 G2H     -0.008050
     12 H12         1.1590    0.7710    2.5770 h1        1 G2H     -0.008050
     13 H2          0.2330   -1.4040    0.5360 h1        1 G2H      0.063700
     14 H31A       -0.7250   -1.3710    3.0700 h1        1 G2H     -0.008050
     15 H32        -1.8750   -1.4420    1.6460 h1        1 G2H     -0.008050
     16 H11         2.1460    0.1780    0.2540 ho        1 G2H      0.470000
     17 H31        -1.6350    1.0230    1.9770 ho        1 G2H      0.470000
@<TRIPOS>BOND
     1    1    2 1   
     2    1    5 1   
     3    1   11 1   
     4    1   12 1   
     5    2    3 1   
     6    2    7 1   
     7    2   13 1   
     8    3    6 1   
     9    3   14 1   
    10    3   15 1   
    11    4    7 1   
    12    4    8 1   
    13    4    9 1   
    14    4   10 1   
    15    5   16 1   
    16    6   17 1   
@<TRIPOS>SUBSTRUCTURE
     1 G2H         1 TEMP              0 ****  ****    0 ROOT
