@<TRIPOS>MOLECULE
G2H
   17    16     1     0     0
SMALL
bcc


@<TRIPOS>ATOM
      1 C1         -0.0660    0.1400    0.1160 c3        1 G2H      0.127900
      2 C2          1.4750    0.1020    0.1060 c3        1 G2H      0.152100
      3 C3          1.9880    0.2170    1.5560 c3        1 G2H      0.127900
      4 P           2.7480   -0.8920   -1.9600 p5        1 G2H      1.318900
      5 O11        -0.6300    0.1990   -1.1700 oh        1 G2H     -0.683800
      6 O31         1.9780   -1.0260    2.2360 oh        1 G2H     -0.683800
      7 O1P         1.9250   -1.0820   -0.4330 os        1 G2H     -0.568200
      8 O2P         3.6920    0.2380   -1.6550 o         1 G2H     -0.921167
      9 O3P         3.3440   -2.2490   -2.1800 o         1 G2H     -0.921167
     10 O4P         1.5620   -0.5130   -2.8160 o         1 G2H     -0.921167
     11 H11A       -0.4610   -0.7700    0.6440 h1        1 G2H     -0.008050
     12 H12        -0.4280    1.0550    0.6640 h1        1 G2H     -0.008050
     13 H2          1.8630    0.9820   -0.4880 h1        1 G2H      0.063700
     14 H31A        1.3440    0.9020    2.1690 h1        1 G2H     -0.008050
     15 H32         3.0410    0.6040    1.5470 h1        1 G2H     -0.008050
     16 H11         0.0570   -0.1260   -1.8130 ho        1 G2H      0.470000
     17 H31         2.0940   -1.7080    1.5530 ho        1 G2H      0.470000
@<TRIPOS>BOND
     1    1    2 1   
     2    1    5 1   
     3    1   11 1   
     4    1   12 1   
     5    2    3 1   
     6    2    7 1   
     7    2   13 1   
     8    3    6 1   
     9    3   14 1   
    10    3   15 1   
    11    4    7 1   
    12    4    8 1   
    13    4    9 1   
    14    4   10 1   
    15    5   16 1   
    16    6   17 1   
@<TRIPOS>SUBSTRUCTURE
     1 G2H         1 TEMP              0 ****  ****    0 ROOT
