@<TRIPOS>MOLECULE
G2L
   46    48     1     0     0
SMALL
bcc


@<TRIPOS>ATOM
      1 OP3         3.9270    0.9190   -0.8460 o         1 G2L     -0.926167
      2 P           4.8010    1.4470    0.2730 p5        1 G2L      1.354900
      3 OP1         6.0560    2.1610   -0.0950 o         1 G2L     -0.926167
      4 OP2         4.7930    0.5140    1.4610 o         1 G2L     -0.926167
      5 O5'         3.7690    2.6600    0.9630 os        1 G2L     -0.570200
      6 C5'         2.5870    2.9290    0.3370 c3        1 G2L      0.219400
      7 C4'         1.3740    2.2330    1.0080 c3        1 G2L      0.095100
      8 O4'         0.2430    2.2830    0.1040 os        1 G2L     -0.438600
      9 C3'         1.6290    0.7530    1.3210 c3        1 G2L      0.051100
     10 O3'         0.9680    0.4090    2.5390 os        1 G2L     -0.449600
     11 C2'         1.0050   -0.0170    0.1390 c3        1 G2L      0.094100
     12 O2'         0.2310   -1.1340    0.5060 oh        1 G2L     -0.610800
     13 C1'         0.0850    1.0350   -0.5690 c3        1 G2L      0.218800
     14 N9          0.3280    1.1680   -1.9960 na        1 G2L     -0.182900
     15 C8          1.5570    1.1810   -2.6970 cc        1 G2L      0.460400
     16 N7          1.3940    1.3350   -4.0320 nd        1 G2L     -0.656000
     17 C5          0.0190    1.4400   -4.2280 cd        1 G2L      0.208800
     18 C6         -0.7520    1.6230   -5.4370 c         1 G2L      0.640000
     19 O6         -0.3570    1.7260   -6.6140 o         1 G2L     -0.656500
     20 N1         -2.1540    1.6800   -5.2310 n         1 G2L     -0.492400
     21 C2         -2.7330    1.5900   -3.9490 cd        1 G2L      0.567800
     22 N2         -4.1730    1.7310   -3.9070 nh        1 G2L     -0.863800
     23 N3         -2.0480    1.4060   -2.8130 nc        1 G2L     -0.609100
     24 C4         -0.6700    1.3480   -2.9610 cc        1 G2L      0.035800
     25 CA'         1.6900   -0.5350    3.3250 c3        1 G2L      0.111400
     26 CB'         2.8830    0.1050    4.0280 c3        1 G2L      0.078400
     27 OC'         3.6360   -0.9000    4.7010 os        1 G2L     -0.461600
     28 CD'         4.5990   -1.5320    3.8660 c3        1 G2L      0.083700
     29 H5'         2.3790    4.0390    0.3960 h1        1 G2L      0.003200
     30 H5''        2.6110    2.6240   -0.7470 h1        1 G2L      0.003200
     31 H4'         1.0340    2.7900    1.9180 h1        1 G2L      0.057700
     32 H3'         2.7540    0.5500    1.3730 h1        1 G2L      0.195700
     33 H2'         1.8300   -0.3950   -0.5330 h1        1 G2L      0.152700
     34 HO2'       -0.1820   -0.9330    1.3580 ho        1 G2L      0.402000
     35 H1'        -1.0040    0.7550   -0.4420 h2        1 G2L      0.072700
     36 H8          2.5510    1.0690   -2.1550 h5        1 G2L      0.206100
     37 H1         -2.7320    1.8710   -6.0170 hn        1 G2L      0.319500
     38 H21        -4.4690    2.0150   -2.9910 hn        1 G2L      0.373300
     39 H22        -4.5980    0.8530   -4.1380 hn        1 G2L      0.373300
     40 HA'1        0.9320   -0.9040    4.0660 h1        1 G2L      0.032700
     41 HA'2        2.0380   -1.3890    2.6850 h1        1 G2L      0.032700
     42 HB'1        2.5350    0.7910    4.8440 h1        1 G2L      0.089200
     43 HB'2        3.5280    0.6670    3.2880 h1        1 G2L      0.089200
     44 HD'1        4.9200   -0.8750    3.0070 h1        1 G2L      0.048367
     45 HD'2        4.1550   -2.4850    3.4800 h1        1 G2L      0.048367
     46 HD'3        5.4600   -1.7670    4.5400 h1        1 G2L      0.048367
@<TRIPOS>BOND
     1    1    2 1   
     2    2    3 1   
     3    2    4 1   
     4    2    5 1   
     5    5    6 1   
     6    6    7 1   
     7    6   29 1   
     8    6   30 1   
     9    7    8 1   
    10    7    9 1   
    11    7   31 1   
    12    8   13 1   
    13    9   10 1   
    14    9   11 1   
    15    9   32 1   
    16   10   25 1   
    17   11   12 1   
    18   11   13 1   
    19   11   33 1   
    20   12   34 1   
    21   13   14 1   
    22   13   35 1   
    23   14   15 1   
    24   14   24 1   
    25   15   16 2   
    26   15   36 1   
    27   16   17 1   
    28   17   18 1   
    29   17   24 2   
    30   18   19 2   
    31   18   20 1   
    32   20   21 1   
    33   20   37 1   
    34   21   22 1   
    35   21   23 2   
    36   22   38 1   
    37   22   39 1   
    38   23   24 1   
    39   25   26 1   
    40   25   40 1   
    41   25   41 1   
    42   26   27 1   
    43   26   42 1   
    44   26   43 1   
    45   27   28 1   
    46   28   44 1   
    47   28   45 1   
    48   28   46 1   
@<TRIPOS>SUBSTRUCTURE
     1 G2L         1 TEMP              0 ****  ****    0 ROOT
