@<TRIPOS>MOLECULE
G2L
   46    45     1     0     0
SMALL
bcc


@<TRIPOS>ATOM
      1 OP3        -5.4980   -3.1840   -0.5110 o         1 G2L     -0.923500
      2 P          -4.0590   -3.4270   -0.1240 p5        1 G2L      1.582500
      3 OP1        -3.9980   -3.9210    1.3020 o         1 G2L     -0.923500
      4 OP2        -3.4590   -4.4660   -1.0410 o         1 G2L     -0.923500
      5 O5'        -3.2440   -2.0790   -0.2500 os        1 G2L     -0.734000
      6 C5'        -1.8500   -2.1160   -0.0490 c3        1 G2L      0.067000
      7 C4'        -1.3560   -0.7460    0.2530 c3        1 G2L     -0.016000
      8 O4'        -0.7110   -0.7430    1.3780 os        1 G2L     -0.295000
      9 C3'        -0.2780   -0.2630   -0.9040 c3        1 G2L     -0.057000
     10 O3'        -1.0000    0.2880   -2.0730 os        1 G2L     -0.302000
     11 C2'         0.4120    0.6140   -0.3820 c3        1 G2L     -0.018000
     12 O2'        -0.1810    1.9620   -0.6400 oh        1 G2L     -0.337000
     13 C1'         0.3800    0.2830    1.1960 c3        1 G2L      0.127000
     14 N9          1.5120   -0.1970    1.5750 n3        1 G2L     -0.139000
     15 C8          2.4940   -1.0710    1.2390 c1        1 G2L     -0.028000
     16 N7          3.4170   -1.0690    2.2350 n2        1 G2L     -0.130000
     17 C5          3.0070   -0.1970    3.1840 c1        1 G2L     -0.210000
     18 C6          3.6020    0.2090    4.5080 c1        1 G2L      0.388000
     19 O6          4.6270   -0.3130    4.8990 o         1 G2L     -0.381000
     20 N1          2.9460    1.1510    5.3090 n3        1 G2L     -0.334000
     21 C2          1.7200    1.7240    4.8730 c2        1 G2L      0.124000
     22 N2          1.0610    2.6890    5.6790 n3        1 G2L     -0.302000
     23 N3          1.1510    1.3350    3.6060 n1        1 G2L     -0.183000
     24 C4          1.8250    0.3440    2.7760 c1        1 G2L     -0.013000
     25 CA'        -0.4610   -0.1050   -3.3140 c3        1 G2L     -0.038000
     26 CB'        -1.0370    0.7630   -4.4110 c3        1 G2L     -0.091000
     27 OC'        -0.2740    0.6040   -5.5840 os        1 G2L     -0.314000
     28 CD'        -0.5130    1.5940   -6.5590 c3        1 G2L     -0.084000
     29 H5'        -1.4120   -2.4500   -0.8590 h1        1 G2L      0.042500
     30 H5''       -1.6440   -2.7100    0.7020 h1        1 G2L      0.042500
     31 H4'        -2.1060   -0.1200    0.2940 h1        1 G2L      0.097000
     32 H3'         0.2840   -1.0170   -1.1770 h1        1 G2L      0.232000
     33 H2'         1.3300    0.5730   -0.7200 h1        1 G2L      0.194000
     34 HO2'        0.4670    2.5680   -0.6800 ho        1 G2L      0.199000
     35 H1'         0.1700    1.0910    1.7050 h2        1 G2L      0.111000
     36 H8          2.5310   -1.6070    0.4240 DU        1 G2L      0.344000
     37 H1          3.2910    1.3760    6.1230 hn        1 G2L      0.232000
     38 H21         0.2980    3.0920    5.3780 hn        1 G2L      0.169000
     39 H22         1.4070    2.9150    6.4940 hn        1 G2L      0.169000
     40 HA'1        0.5140   -0.0020   -3.2930 h1        1 G2L      0.067000
     41 HA'2       -0.6860   -1.0420   -3.4860 h1        1 G2L      0.067000
     42 HB'1       -1.0140    1.7010   -4.1310 h1        1 G2L      0.139500
     43 HB'2       -1.9630    0.4960   -4.5850 h1        1 G2L      0.139500
     44 HD'1       -1.4450    1.5380   -6.8610 h1        1 G2L      0.080333
     45 HD'2       -0.3460    2.4810   -6.1730 h1        1 G2L      0.080333
     46 HD'3        0.0870    1.4530   -7.3230 h1        1 G2L      0.080333
@<TRIPOS>BOND
     1    1    2 1   
     2    2    3 1   
     3    2    4 1   
     4    2    5 1   
     5    5    6 1   
     6    6    7 1   
     7    6   29 1   
     8    6   30 1   
     9    7    8 1   
    10    7    9 1   
    11    7   31 1   
    12    8   13 1   
    13    9   10 1   
    14    9   11 1   
    15    9   32 1   
    16   10   25 1   
    17   11   12 1   
    18   11   13 1   
    19   11   33 1   
    20   12   34 1   
    21   13   14 1   
    22   13   35 1   
    23   14   15 1   
    24   14   24 1   
    25   15   16 1   
    26   16   17 1   
    27   17   24 1   
    28   18   19 1   
    29   18   20 1   
    30   20   21 1   
    31   20   37 1   
    32   21   22 1   
    33   21   23 1   
    34   22   38 1   
    35   22   39 1   
    36   25   26 1   
    37   25   40 1   
    38   25   41 1   
    39   26   27 1   
    40   26   42 1   
    41   26   43 1   
    42   27   28 1   
    43   28   44 1   
    44   28   45 1   
    45   28   46 1   
@<TRIPOS>SUBSTRUCTURE
     1 G2L         1 TEMP              0 ****  ****    0 ROOT
