@<TRIPOS>MOLECULE
G2N
   43    41     1     0     0
SMALL
bcc


@<TRIPOS>ATOM
      1 CAA         3.4090   -1.0270   -0.6520 c3        1 G2N     -0.314000
      2 CAB        10.1860    1.0870    6.1290 c3        1 G2N     -0.198000
      3 OAD         2.1580    0.3250    2.0420 o         1 G2N     -0.420000
      4 CAE        12.9830   -0.9130    8.7030 c1        1 G2N     -0.227000
      5 CAF        13.0630   -0.5900    7.5540 c1        1 G2N     -0.227000
      6 CAG        11.9110   -1.5510    0.3040 c1        1 G2N     -0.227000
      7 CAH        11.9850    0.1240    4.4780 c1        1 G2N      0.210000
      8 CAI        10.7540   -1.2480    0.3460 c1        1 G2N     -0.227000
      9 CAJ         5.6000    0.9180    4.4740 c1        1 G2N     -0.538000
     10 CAK         4.2200   -2.1070   -0.1910 c1        1 G2N     -0.104000
     11 NAL         8.6640   -0.2880    2.9080 n2        1 G2N     -0.148000
     12 NAM         5.1010    0.0270    2.2560 n2        1 G2N     -0.175000
     13 NAN         3.6730    1.7170    3.2830 ns        1 G2N     -0.216000
     14 NAO         7.7810    0.8910    5.4130 ny        1 G2N      0.028000
     15 OAP         1.3830    1.9740    3.3070 oh        1 G2N     -0.339000
     16 CAQ         2.4540    1.2310    2.8430 c2        1 G2N      0.386000
     17 CAR         9.5660    0.0780    3.9270 c2        1 G2N      0.131000
     18 CAS         6.3060   -0.4870    2.1410 c2        1 G2N      0.094000
     19 CAT        10.9780   -0.1400    3.6670 c2        1 G2N     -0.429000
     20 CAU         4.8200    0.8680    3.3710 c2        1 G2N      0.015000
     21 CAV         6.8010    0.1070    4.5380 c3        1 G2N      0.002000
     22 CAW         7.3930   -0.2330    3.1780 c2        1 G2N      0.007000
     23 CAX         9.1850    0.6480    5.1260 c2        1 G2N     -0.247000
     24 HAA         2.4170   -1.2880   -1.0970 hc        1 G2N      0.136333
     25 HAAA        3.2140   -0.4230    0.3010 hc        1 G2N      0.136333
     26 H3          3.9660   -0.3510   -1.3490 hc        1 G2N      0.136333
     27 HAB         9.7270    1.5700    7.0270 hc        1 G2N      0.113000
     28 HABA       10.7870    0.2050    6.4880 hc        1 G2N      0.113000
     29 HABB       10.8930    1.8310    5.6670 hc        1 G2N      0.113000
     30 HNAC        7.3420   -1.9350    1.2020 hn        1 G2N      0.221000
     31 HNAA        5.9310   -1.4920    0.3870 hn        1 G2N      0.221000
     32 HAF        13.1440   -0.3070    6.5300 ha        1 G2N      0.228000
     33 HAG        12.9340   -1.8250    0.2470 ha        1 G2N      0.228000
     34 HAH        11.2330   -0.5730    2.6620 ha        1 G2N      0.241000
     35 HAI         9.7250   -0.9750    0.3910 ha        1 G2N      0.228000
     36 HAJ         6.5990   -0.8740    5.0720 hx        1 G2N      0.144000
     37 HAK         0.5860    1.6590    2.8520 ho        1 G2N      0.247000
     38 H16         3.7170   -3.0520    0.0600 ha        1 G2N      0.045000
     39 HNAN        3.6190    2.3500    4.0590 hn        1 G2N      0.243000
     40 H18         7.5550    1.8950    5.2900 hn        1 G2N      0.240000
     41 H19         7.5850    0.6540    6.3890 hn        1 G2N      0.240000
     42 NAC         6.6970   -1.2040    1.0030 n8        1 G2N     -0.338000
     43 HAE        12.9150   -1.2000    9.7220 ha        1 G2N      0.228000
@<TRIPOS>BOND
     1    1   10 1   
     2    1   24 1   
     3    1   25 1   
     4    1   26 1   
     5    2   23 1   
     6    2   27 1   
     7    2   28 1   
     8    2   29 1   
     9    3   16 1   
    10    4    5 1   
    11    4   43 1   
    12    5   32 1   
    13    6    8 1   
    14    6   33 1   
    15    7   19 1   
    16    8   35 1   
    17    9   20 1   
    18    9   21 1   
    19   10   38 1   
    20   11   17 1   
    21   11   22 1   
    22   12   18 1   
    23   12   20 1   
    24   13   16 1   
    25   13   20 1   
    26   13   39 1   
    27   14   21 1   
    28   14   23 1   
    29   14   40 1   
    30   14   41 1   
    31   15   16 1   
    32   15   37 1   
    33   17   19 1   
    34   17   23 1   
    35   18   22 1   
    36   18   42 1   
    37   19   34 1   
    38   21   22 1   
    39   21   36 1   
    40   30   42 1   
    41   31   42 1   
@<TRIPOS>SUBSTRUCTURE
     1 G2N         1 TEMP              0 ****  ****    0 ROOT
