@<TRIPOS>MOLECULE
G2N
   43    41     1     0     0
SMALL
bcc


@<TRIPOS>ATOM
      1 CAA         1.9650    1.1020   -0.0410 c3        1 G2N     -0.304000
      2 CAB         9.6270    1.5290    5.9900 c3        1 G2N     -0.197000
      3 OAD         3.1570   -2.9900    2.3750 o         1 G2N     -0.346000
      4 CAE        12.3910    0.7760    9.1680 c1        1 G2N     -0.227250
      5 CAF        12.5800    1.0020    8.0090 c1        1 G2N     -0.227250
      6 CAG        13.0540   -0.9770    0.8580 c1        1 G2N     -0.227250
      7 CAH        11.8850    1.0320    4.7480 c1        1 G2N      0.214000
      8 CAI        11.8650   -1.0460    0.7430 c1        1 G2N     -0.227250
      9 CAJ         5.6440   -0.4050    3.9000 c1        1 G2N     -0.503000
     10 CAK         1.7950    1.1800    1.3810 c1        1 G2N     -0.094000
     11 NAL         9.1650   -0.6110    2.8600 n2        1 G2N     -0.151000
     12 NAM         5.8250   -1.6240    1.7940 n2        1 G2N     -0.112000
     13 NAN         3.7050   -0.6680    2.4670 n         1 G2N     -0.276000
     14 NAO         7.5540    0.4810    5.0180 n4        1 G2N      0.033000
     15 OAP         1.5060   -1.5610    2.2580 oh        1 G2N     -0.324000
     16 CAQ         2.8490   -1.7910    2.3910 c2        1 G2N      0.371000
     17 CAR         9.7250    0.1390    3.9130 c2        1 G2N      0.134000
     18 CAS         7.1350   -1.6420    1.8630 c2        1 G2N      0.035000
     19 CAT        11.1590    0.3680    3.8680 c2        1 G2N     -0.430000
     20 CAU         5.0860   -0.8940    2.7670 c2        1 G2N     -0.007000
     21 CAV         7.0410   -0.6880    4.1830 c3        1 G2N     -0.013000
     22 CAW         7.9090   -0.9430    2.9600 c2        1 G2N      0.021000
     23 CAX         8.9930    0.6810    4.9510 c2        1 G2N     -0.252000
     24 HAA         2.8140    0.3680   -0.1950 hc        1 G2N      0.124667
     25 HAAA        2.2140    2.0510   -0.5790 hc        1 G2N      0.124667
     26 H3          1.0560    0.6410   -0.5140 hc        1 G2N      0.124667
     27 HAB         8.8980    1.9300    6.7370 hc        1 G2N      0.113333
     28 HABA       10.3990    0.9340    6.5560 hc        1 G2N      0.113333
     29 HABB       10.1400    2.4070    5.5110 hc        1 G2N      0.113333
     30 HNAC        8.6410   -2.8040    1.2060 hn        1 G2N      0.184000
     31 HNAA        7.3820   -2.6920    0.1390 hn        1 G2N      0.184000
     32 HAF        12.7590    1.2030    6.9780 ha        1 G2N      0.227750
     33 HAG        14.1100   -0.9220    0.9430 ha        1 G2N      0.227750
     34 HAH        11.7010   -0.0640    2.9840 ha        1 G2N      0.241000
     35 HAI        10.8060   -1.1050    0.6470 ha        1 G2N      0.227750
     36 HAJ         7.1170   -1.6160    4.8350 hx        1 G2N      0.154000
     37 HAK         1.3120   -0.6080    2.0980 ho        1 G2N      0.269000
     38 H16         2.1310    2.0920    1.8920 ha        1 G2N      0.051000
     39 HNAN        3.3350    0.0760    3.0300 hn        1 G2N      0.218000
     40 H18         7.0570    1.3290    4.6980 hn        1 G2N      0.240500
     41 H19         7.2730    0.3150    5.9900 hn        1 G2N      0.240500
     42 NAC         7.9240   -2.2160    0.8340 n3        1 G2N     -0.296000
     43 HAE        12.2270    0.5750   10.1970 ha        1 G2N      0.227750
@<TRIPOS>BOND
     1    1   10 1   
     2    1   24 1   
     3    1   25 1   
     4    1   26 1   
     5    2   23 1   
     6    2   27 1   
     7    2   28 1   
     8    2   29 1   
     9    3   16 1   
    10    4    5 1   
    11    4   43 1   
    12    5   32 1   
    13    6    8 1   
    14    6   33 1   
    15    7   19 1   
    16    8   35 1   
    17    9   20 1   
    18    9   21 1   
    19   10   38 1   
    20   11   17 1   
    21   11   22 1   
    22   12   18 1   
    23   12   20 1   
    24   13   16 1   
    25   13   20 1   
    26   13   39 1   
    27   14   21 1   
    28   14   23 1   
    29   14   40 1   
    30   14   41 1   
    31   15   16 1   
    32   15   37 1   
    33   17   19 1   
    34   17   23 1   
    35   18   22 1   
    36   18   42 1   
    37   19   34 1   
    38   21   22 1   
    39   21   36 1   
    40   30   42 1   
    41   31   42 1   
@<TRIPOS>SUBSTRUCTURE
     1 G2N         1 TEMP              0 ****  ****    0 ROOT
