@<TRIPOS>MOLECULE
G2N
   43    41     1     0     0
SMALL
bcc


@<TRIPOS>ATOM
      1 CAA         0.6450    1.9020   -0.5270 c2        1 G2N     -0.230500
      2 CAB        10.1510    1.6200    5.8570 c3        1 G2N     -0.198000
      3 OAD         3.5880   -0.2500    1.0850 o         1 G2N     -0.402000
      4 CAE        13.2300    1.0960    7.6840 c1        1 G2N     -0.227500
      5 CAF        13.1360    1.0850    8.8760 c1        1 G2N     -0.227500
      6 CAG        12.7440   -2.1100    1.0080 c1        1 G2N     -0.227500
      7 CAH        12.2130    0.6630    4.5400 c1        1 G2N      0.215000
      8 CAI        11.5500   -2.0420    0.9840 c1        1 G2N     -0.227500
      9 CAJ         5.8150   -0.2110    4.5280 c1        1 G2N     -0.506000
     10 CAK         1.2460    0.8300   -1.0260 c2        1 G2N     -0.230500
     11 NAL         9.1660   -0.9680    3.2250 n2        1 G2N     -0.145000
     12 NAM         5.6510   -1.7980    2.6820 n2        1 G2N     -0.116000
     13 NAN         3.6890   -0.5950    3.4540 n         1 G2N     -0.219000
     14 NAO         7.9000    0.6550    5.2730 n4        1 G2N      0.034000
     15 OAP         1.9320    0.4590    2.3890 oh        1 G2N     -0.341000
     16 CAQ         3.1700   -0.1410    2.2500 c2        1 G2N      0.378000
     17 CAR         9.9030   -0.1140    4.0700 c2        1 G2N      0.133000
     18 CAS         6.9550   -1.9300    2.6200 c2        1 G2N      0.045000
     19 CAT        11.3390   -0.0570    3.8610 c2        1 G2N     -0.430000
     20 CAU         5.0940   -0.8340    3.5690 c2        1 G2N      0.001000
     21 CAV         7.2040   -0.5890    4.7340 c3        1 G2N     -0.010000
     22 CAW         7.9040   -1.1410    3.4980 c2        1 G2N      0.019000
     23 CAX         9.3370    0.6790    5.0500 c2        1 G2N     -0.251000
     24 HAA         0.8010    0.2230   -1.8270 ha        1 G2N      0.116250
     25 HAAA        1.0900    2.5130    0.2710 ha        1 G2N      0.116250
     26 H3         -0.3330    2.2550   -0.8780 ha        1 G2N      0.116250
     27 HAB         9.5440    2.2240    6.5760 hc        1 G2N      0.113667
     28 HABA       10.9180    1.0510    6.4560 hc        1 G2N      0.113667
     29 HABB       10.6930    2.3370    5.1820 hc        1 G2N      0.113667
     30 HNAC        8.2500   -3.3570    2.0320 hn        1 G2N      0.186500
     31 HNAA        6.9240   -3.2200    1.0460 hn        1 G2N      0.186500
     32 HAF        13.0570    1.0750    9.9340 ha        1 G2N      0.228250
     33 HAG        13.8030   -2.1790    1.0120 ha        1 G2N      0.228250
     34 HAH        11.7410   -0.6890    3.0240 ha        1 G2N      0.241000
     35 HAI        10.4870   -1.9770    0.9690 ha        1 G2N      0.228250
     36 HAJ         7.2830   -1.3870    5.5380 hx        1 G2N      0.147000
     37 HAK         1.5740    0.6100    1.4970 ho        1 G2N      0.253000
     38 H16         2.2280    0.4740   -0.6730 ha        1 G2N      0.116250
     39 HNAN        3.3090   -0.1610    4.2720 hn        1 G2N      0.241000
     40 H18         7.4530    1.4740    4.8270 hn        1 G2N      0.243000
     41 H19         7.7020    0.7110    6.2770 hn        1 G2N      0.243000
     42 NAC         7.5740   -2.7390    1.6360 n3        1 G2N     -0.298000
     43 HAE        13.3250    1.1040    6.6220 ha        1 G2N      0.228250
@<TRIPOS>BOND
     1    1   10 1   
     2    1   25 1   
     3    1   26 1   
     4    2   23 1   
     5    2   27 1   
     6    2   28 1   
     7    2   29 1   
     8    3   16 1   
     9    4    5 1   
    10    4   43 1   
    11    5   32 1   
    12    6    8 1   
    13    6   33 1   
    14    7   19 1   
    15    8   35 1   
    16    9   20 1   
    17    9   21 1   
    18   10   24 1   
    19   10   38 1   
    20   11   17 1   
    21   11   22 1   
    22   12   18 1   
    23   12   20 1   
    24   13   16 1   
    25   13   20 1   
    26   13   39 1   
    27   14   21 1   
    28   14   23 1   
    29   14   40 1   
    30   14   41 1   
    31   15   16 1   
    32   15   37 1   
    33   17   19 1   
    34   17   23 1   
    35   18   22 1   
    36   18   42 1   
    37   19   34 1   
    38   21   22 1   
    39   21   36 1   
    40   30   42 1   
    41   31   42 1   
@<TRIPOS>SUBSTRUCTURE
     1 G2N         1 TEMP              0 ****  ****    0 ROOT
