@<TRIPOS>MOLECULE
G2N
   43    38     1     0     0
SMALL
bcc


@<TRIPOS>ATOM
      1 CAA        -7.4740   -0.4200   -3.7080 c3        1 G2N     -0.248000
      2 CAB         1.8630    1.2950    3.4310 c3        1 G2N     -0.245000
      3 NAC         0.4240    0.6970   -2.8140 n3        1 G2N     -0.344000
      4 OAD        -3.6330   -0.2110   -2.9610 o         1 G2N     -0.340000
      5 CAE         6.5720   -0.7540    1.9850 c1        1 G2N     -0.123000
      6 CAF         6.2150    0.5550    2.2760 c1        1 G2N     -0.123000
      7 CAG         5.6860   -1.5860    1.2930 c1        1 G2N     -0.123000
      8 CAH         4.9620    1.0440    1.8770 c1        1 G2N     -0.123000
      9 CAI         4.4310   -1.0980    0.8930 c1        1 G2N     -0.115000
     10 CAJ        -1.7390    0.1340    0.6860 c1        1 G2N     -0.351000
     11 CAK        -6.1560   -0.9450   -3.1630 c3        1 G2N      0.002000
     12 NAL         1.8480    0.7100   -0.1050 n1        1 G2N     -0.085000
     13 NAM        -1.5350    0.3880   -1.6840 n1        1 G2N     -0.261000
     14 NAN        -3.7520   -0.0410   -0.7260 n         1 G2N     -0.300000
     15 NAO         0.2800   -0.1570    2.1100 n3        1 G2N     -0.285000
     16 OAP        -5.7040   -0.0990   -2.1340 os        1 G2N     -0.300000
     17 CAQ        -4.3250   -0.0740   -2.0000 c2        1 G2N      0.407000
     18 CAR         2.5190    0.3950    1.1530 c1        1 G2N     -0.030000
     19 CAS        -0.1760    0.5240   -1.5540 c1        1 G2N      0.248000
     20 CAT         4.0700    0.2090    1.1820 c1        1 G2N     -0.037000
     21 CAU        -2.3180    0.1940   -0.5740 c1        1 G2N      0.228000
     22 CAV        -0.3350    0.2740    0.8290 c2        1 G2N      0.159000
     23 CAW         0.4300    0.4640   -0.2560 c1        1 G2N     -0.244000
     24 CAX         1.7140    0.1080    2.3720 c3        1 G2N      0.015000
     25 HAA        -8.1710   -0.3390   -2.9220 hc        1 G2N      0.090000
     26 HAAA       -7.8030   -1.0150   -4.3640 hc        1 G2N      0.090000
     27 H3         -7.3420    0.4050   -4.0850 hc        1 G2N      0.090000
     28 HAB         2.1830    2.1300    2.9570 hc        1 G2N      0.088333
     29 HABA        2.5150    1.0420    4.1260 hc        1 G2N      0.088333
     30 HABB        1.0070    1.4670    3.8440 hc        1 G2N      0.088333
     31 HNAC       -0.0550    0.4390   -3.6240 hn        1 G2N      0.238500
     32 HNAA        1.2910    1.0330   -2.8730 hn        1 G2N      0.238500
     33 HAE         7.4860   -1.1110    2.2760 ha        1 G2N      0.136000
     34 HAF         6.8180    1.1180    2.7450 ha        1 G2N      0.136000
     35 HAG         5.9260   -2.4580    1.1010 ha        1 G2N      0.136000
     36 HAH         4.7110    1.9660    2.0820 ha        1 G2N      0.136000
     37 HAI         3.7840   -1.7080    0.3860 ha        1 G2N      0.136000
     38 HAJ        -2.2880   -0.0010    1.4600 ha        1 G2N      0.142000
     39 HAK        -5.4860   -0.9690   -3.8890 h1        1 G2N      0.104000
     40 H16        -6.2820   -1.8390   -2.8130 h1        1 G2N      0.104000
     41 HNAN       -4.3380   -0.1260    0.0900 hn        1 G2N      0.255000
     42 H18         0.0930   -1.0590    2.2590 hn        1 G2N      0.211000
     43 H19         2.0860   -0.5840    2.8370 h1        1 G2N      0.109000
@<TRIPOS>BOND
     1    1   11 1   
     2    1   25 1   
     3    1   26 1   
     4    1   27 1   
     5    2   24 1   
     6    2   28 1   
     7    2   29 1   
     8    2   30 1   
     9    3   19 1   
    10    3   31 1   
    11    3   32 1   
    12    4   17 1   
    13    5    7 1   
    14    5   33 1   
    15    6    8 1   
    16    6   34 1   
    17    7   35 1   
    18    8   36 1   
    19    9   20 1   
    20    9   37 1   
    21   10   22 1   
    22   10   38 1   
    23   11   16 1   
    24   11   39 1   
    25   11   40 1   
    26   12   18 1   
    27   13   21 1   
    28   14   17 1   
    29   14   21 1   
    30   14   41 1   
    31   15   22 1   
    32   15   24 1   
    33   15   42 1   
    34   16   17 1   
    35   18   24 1   
    36   19   23 1   
    37   22   23 1   
    38   24   43 1   
@<TRIPOS>SUBSTRUCTURE
     1 G2N         1 TEMP              0 ****  ****    0 ROOT
