@<TRIPOS>MOLECULE
G2N
   43    45     1     0     0
SMALL
bcc


@<TRIPOS>ATOM
      1 CAA         8.2390   -0.3670    0.3810 c3        1 G2N     -0.102100
      2 CAB        -2.8140   -2.0390   -1.6660 c3        1 G2N     -0.127100
      3 OAD         4.7350    1.5890   -0.3170 o         1 G2N     -0.529000
      4 CAE        -6.8640    0.6840    0.2240 ca        1 G2N     -0.123000
      5 CAF        -6.3130   -0.2850    1.0630 ca        1 G2N     -0.134500
      6 CAG        -6.0480    1.3690   -0.6760 ca        1 G2N     -0.134500
      7 CAH        -4.9510   -0.5770    0.9990 ca        1 G2N     -0.108000
      8 CAI        -4.6850    1.0850   -0.7430 ca        1 G2N     -0.108000
      9 CAJ         1.3530   -1.2690   -0.0820 ca        1 G2N     -0.417300
     10 CAK         7.0720    0.5460    0.0920 c3        1 G2N      0.152400
     11 NAL        -1.8020    0.7330    0.1560 ne        1 G2N     -0.511100
     12 NAM         1.9120    1.1070    0.1350 nb        1 G2N     -0.787000
     13 NAN         3.6470   -0.5240   -0.0530 n         1 G2N     -0.533400
     14 NAO        -0.9690   -1.9920    0.0250 nh        1 G2N     -0.729600
     15 OAP         5.8950   -0.2810    0.1670 os        1 G2N     -0.462900
     16 CAQ         4.7020    0.3780   -0.0790 c         1 G2N      0.753100
     17 CAR        -2.6910   -0.2050    0.0140 cf        1 G2N      0.416900
     18 CAS         0.5740    1.4100    0.1500 ca        1 G2N      0.769200
     19 CAT        -4.1320    0.1020    0.0880 ca        1 G2N     -0.120900
     20 CAU         2.2790   -0.1920    0.0030 ca        1 G2N      0.636200
     21 CAV        -0.0200   -0.9740   -0.0180 ca        1 G2N      0.240600
     22 CAW        -0.4460    0.3880    0.0900 ca        1 G2N     -0.169900
     23 CAX        -2.3630   -1.6770   -0.2490 c3        1 G2N      0.137200
     24 HAA         8.1390   -0.8230    1.3950 hc        1 G2N      0.048367
     25 HAAA        8.2900   -1.1890   -0.3720 hc        1 G2N      0.048367
     26 H3          9.1820    0.2290    0.3380 hc        1 G2N      0.048367
     27 HAB        -2.6620   -3.1280   -1.8600 hc        1 G2N      0.048700
     28 HABA       -3.9010   -1.8050   -1.7720 hc        1 G2N      0.048700
     29 HABB       -2.2480   -1.4560   -2.4300 hc        1 G2N      0.048700
     30 HNAC        0.9390    3.4230    0.3330 hn        1 G2N      0.443300
     31 HNAA       -0.7050    2.9860    0.3970 hn        1 G2N      0.443300
     32 HAF        -6.9520   -0.8200    1.7800 ha        1 G2N      0.133500
     33 HAG        -6.4790    2.1390   -1.3320 ha        1 G2N      0.133500
     34 HAH        -4.5200   -1.3310    1.6740 ha        1 G2N      0.140000
     35 HAI        -4.0400    1.6340   -1.4460 ha        1 G2N      0.140000
     36 HAJ         1.6990   -2.3050   -0.1860 ha        1 G2N      0.142000
     37 HAK         6.9820    1.3680    0.8500 h1        1 G2N      0.054700
     38 H16         7.1310    0.9950   -0.9330 h1        1 G2N      0.054700
     39 HNAN        3.8750   -1.4810    0.1100 hn        1 G2N      0.341500
     40 H18        -0.6720   -2.8710   -0.3410 hn        1 G2N      0.415800
     41 H19        -2.9620   -2.3050    0.4810 h1        1 G2N      0.069700
     42 NAC         0.2310    2.7440    0.1840 nh        1 G2N     -0.946500
     43 HAE        -7.9380    0.9100    0.2770 ha        1 G2N      0.133000
@<TRIPOS>BOND
     1    1   10 1   
     2    1   24 1   
     3    1   25 1   
     4    1   26 1   
     5    2   23 1   
     6    2   27 1   
     7    2   28 1   
     8    2   29 1   
     9    3   16 2   
    10    4    5 ar  
    11    4    6 ar  
    12    4   43 1   
    13    5    7 ar  
    14    5   32 1   
    15    6    8 ar  
    16    6   33 1   
    17    7   19 ar  
    18    7   34 1   
    19    8   19 ar  
    20    8   35 1   
    21    9   20 ar  
    22    9   21 ar  
    23    9   36 1   
    24   10   15 1   
    25   10   37 1   
    26   10   38 1   
    27   11   17 2   
    28   11   22 1   
    29   12   18 ar  
    30   12   20 ar  
    31   13   16 1   
    32   13   20 1   
    33   13   39 1   
    34   14   21 1   
    35   14   23 1   
    36   14   40 1   
    37   15   16 1   
    38   17   19 1   
    39   17   23 1   
    40   18   22 ar  
    41   18   42 1   
    42   21   22 ar  
    43   23   41 1   
    44   30   42 1   
    45   31   42 1   
@<TRIPOS>SUBSTRUCTURE
     1 G2N         1 TEMP              0 ****  ****    0 ROOT
