@<TRIPOS>MOLECULE
G2P
   46    48     1     0     0
SMALL
bcc


@<TRIPOS>ATOM
      1 PG         -1.4730    5.7060    7.5910 p5        1 G2P      1.591800
      2 O1G        -0.1360    5.0690    7.5320 o         1 G2P     -0.905500
      3 O2G        -1.5950    7.0990    8.0860 o         1 G2P     -0.905500
      4 O3G        -2.4080    4.7840    8.5910 oh        1 G2P     -0.816400
      5 O3B        -2.3540    5.4360    6.2580 os        1 G2P     -0.843800
      6 PB         -3.3230    5.4490    4.9020 p5        1 G2P      1.527600
      7 O1B        -4.6990    5.5770    5.4350 o         1 G2P     -0.907000
      8 O2B        -2.7440    6.4540    3.9830 o         1 G2P     -0.907000
      9 C3A        -3.0380    3.8090    4.2380 c3        1 G2P     -0.591800
     10 PA         -3.8210    2.6950    3.2250 p5        1 G2P      1.417600
     11 O1A        -4.2700    1.4640    3.9410 o         1 G2P     -0.895500
     12 O2A        -4.6810    3.2330    2.1420 o         1 G2P     -0.895500
     13 O5'        -2.4980    2.0280    2.3870 os        1 G2P     -0.594200
     14 C5'        -2.7210    1.5450    1.1130 c3        1 G2P      0.202400
     15 C4'        -2.9750    0.0230    1.1020 c3        1 G2P      0.070100
     16 O4'        -2.5650   -0.5050   -0.1830 os        1 G2P     -0.434400
     17 C3'        -2.2060   -0.7470    2.1930 c3        1 G2P      0.118100
     18 O3'        -3.0510   -1.1220    3.2570 oh        1 G2P     -0.665800
     19 C2'        -1.6940   -2.0340    1.4900 c3        1 G2P      0.144800
     20 O2'        -2.3580   -3.2020    1.9310 oh        1 G2P     -0.599800
     21 C1'        -1.9280   -1.7440    0.0320 c2        1 G2P      0.065600
     22 N9         -1.7000   -2.4960   -1.0420 na        1 G2P      0.040100
     23 C8         -2.0730   -2.1790   -2.3870 cc        1 G2P      0.188400
     24 N7         -1.6650   -3.1030   -3.3040 nd        1 G2P     -0.605000
     25 C5         -1.0040   -4.0600   -2.5950 cd        1 G2P      0.148800
     26 C6         -0.3640   -5.2900   -2.9950 c         1 G2P      0.651000
     27 O6         -0.3110   -5.7890   -4.1510 o         1 G2P     -0.765500
     28 N1          0.2820   -5.9970   -1.9730 n         1 G2P     -0.483400
     29 C2          0.2170   -5.5820   -0.6030 cd        1 G2P      0.351800
     30 N2          0.8770   -6.4680    0.3370 nh        1 G2P     -0.837800
     31 N3         -0.3840   -4.4600   -0.1840 nc        1 G2P     -0.494100
     32 C4         -0.9870   -3.7130   -1.1480 cc        1 G2P     -0.164200
     33 H3A1       -2.8600    3.2400    5.1850 hc        1 G2P      0.094700
     34 H3A2       -2.0380    3.9730    3.7650 hc        1 G2P      0.094700
     35 H5'1       -3.6080    2.0600    0.6470 h1        1 G2P      0.029700
     36 H5'2       -1.8020    1.7470    0.4930 h1        1 G2P      0.029700
     37 H4'        -4.0750   -0.1880    1.1980 h1        1 G2P      0.055700
     38 H3'        -1.3510   -0.1290    2.5760 h1        1 G2P      0.073700
     39 HA         -3.4510   -0.2910    3.6060 ho        1 G2P      0.498000
     40 H2'        -0.6080   -2.2280    1.6950 h1        1 G2P      0.070700
     41 HB         -3.2790   -2.9580    2.0920 ho        1 G2P      0.407000
     42 H1'        -3.2430    4.5550    8.2050 ho        1 G2P      0.422000
     43 H8         -2.6180   -1.2580   -2.5930 h5        1 G2P      0.052100
     44 H1          0.6520   -6.8910   -2.1780 hn        1 G2P      0.290500
     45 H2N1        0.2270   -6.6910    1.0710 hn        1 G2P      0.337300
     46 H2N2        1.6430   -5.9700    0.7550 hn        1 G2P      0.337300
@<TRIPOS>BOND
     1    1    2 1   
     2    1    3 1   
     3    1    4 1   
     4    1    5 1   
     5    4   42 1   
     6    5    6 1   
     7    6    7 1   
     8    6    8 1   
     9    6    9 1   
    10    9   10 1   
    11    9   33 1   
    12    9   34 1   
    13   10   11 1   
    14   10   12 1   
    15   10   13 1   
    16   13   14 1   
    17   14   15 1   
    18   14   35 1   
    19   14   36 1   
    20   15   16 1   
    21   15   17 1   
    22   15   37 1   
    23   16   21 1   
    24   17   18 1   
    25   17   19 1   
    26   17   38 1   
    27   18   39 1   
    28   19   20 1   
    29   19   21 1   
    30   19   40 1   
    31   20   41 1   
    32   21   22 2   
    33   22   23 1   
    34   22   32 1   
    35   23   24 2   
    36   23   43 1   
    37   24   25 1   
    38   25   26 1   
    39   25   32 2   
    40   26   27 2   
    41   26   28 1   
    42   28   29 1   
    43   28   44 1   
    44   29   30 1   
    45   29   31 2   
    46   30   45 1   
    47   30   46 1   
    48   31   32 1   
@<TRIPOS>SUBSTRUCTURE
     1 G2P         1 TEMP              0 ****  ****    0 ROOT
