@<TRIPOS>MOLECULE
G2P
   46    48     1     0     0
SMALL
bcc


@<TRIPOS>ATOM
      1 PG         -1.7070    3.2920    2.2150 p5        1 G2P      1.591800
      2 O1G        -0.3780    3.4140    2.8620 o         1 G2P     -0.909500
      3 O2G        -2.8300    4.1150    2.7300 o         1 G2P     -0.909500
      4 O3G        -2.1820    1.7190    2.3830 oh        1 G2P     -0.818400
      5 O3B        -1.6260    3.2620    0.6000 os        1 G2P     -0.842800
      6 PB         -1.7830    3.4510   -1.0570 p5        1 G2P      1.528600
      7 O1B        -3.0580    2.7650   -1.3750 o         1 G2P     -0.909500
      8 O2B        -1.6020    4.8980   -1.3140 o         1 G2P     -0.909500
      9 C3A        -0.3840    2.5370   -1.6650 c3        1 G2P     -0.584800
     10 PA          0.1440    1.8180   -3.1240 p5        1 G2P      1.419600
     11 O1A         0.2520    0.3290   -3.0350 o         1 G2P     -0.902500
     12 O2A        -0.3730    2.3810   -4.3950 o         1 G2P     -0.902500
     13 O5'         1.7710    2.2780   -3.1350 os        1 G2P     -0.589200
     14 C5'         2.4870    1.8190   -4.2310 c3        1 G2P      0.207400
     15 C4'         3.8990    1.3660   -3.8440 c3        1 G2P      0.054100
     16 O4'         3.8460    0.0910   -3.1590 os        1 G2P     -0.396600
     17 C3'         4.8550    1.2360   -5.0710 c3        1 G2P      0.353800
     18 O3'         6.0250    1.8390   -4.9480 o         1 G2P     -0.895500
     19 C2'         5.0470   -0.3370   -5.2120 c3        1 G2P      0.030100
     20 O2'         6.4090   -0.6860   -5.2660 oh        1 G2P     -0.657800
     21 C1'         4.4170   -0.9440   -3.9290 c3        1 G2P      0.233800
     22 N9          3.4250   -2.0000   -4.1860 na        1 G2P     -0.162900
     23 C8          2.0240   -2.0020   -4.0440 cc        1 G2P      0.480400
     24 N7          1.4630   -3.1930   -4.3950 nd        1 G2P     -0.659000
     25 C5          2.5220   -4.0040   -4.7770 cd        1 G2P      0.210800
     26 C6          2.5570   -5.3690   -5.2510 c         1 G2P      0.636000
     27 O6          1.6130   -6.1660   -5.4410 o         1 G2P     -0.689500
     28 N1          3.8530   -5.8570   -5.5400 ns        1 G2P     -0.488400
     29 C2          5.0120   -5.0720   -5.3600 cd        1 G2P      0.511800
     30 N2          6.2660   -5.7350   -5.6880 nv        1 G2P     -0.860800
     31 N3          5.0170   -3.8080   -4.9260 nc        1 G2P     -0.555100
     32 C4          3.7710   -3.2740   -4.6440 cc        1 G2P     -0.003200
     33 H3A1       -0.3470    1.6960   -0.9280 hc        1 G2P      0.093200
     34 H3A2        0.4430    3.2410   -1.3940 hc        1 G2P      0.093200
     35 H5'1        1.9380    0.9690   -4.7270 h1        1 G2P      0.006700
     36 H5'2        2.6110    2.6610   -4.9750 h1        1 G2P      0.006700
     37 H4'         4.3300    2.0620   -3.0760 h1        1 G2P      0.071700
     38 H3'         4.2800    1.5540   -5.9980 h1        1 G2P     -0.057300
     39 HA         -2.4250    1.3210    1.5570 ho        1 G2P      0.422000
     40 H2'         4.5740   -0.7320   -6.1440 h1        1 G2P      0.029700
     41 HB          6.9080    0.1280   -5.0350 ho        1 G2P      0.429000
     42 H1'         5.2100   -1.4310   -3.2830 h2        1 G2P      0.054700
     43 H8          1.4490   -1.1000   -3.6540 h5        1 G2P      0.210100
     44 H1          3.9420   -6.7920   -5.8610 hn        1 G2P      0.307500
     45 H2N1        6.6270   -5.3220   -6.5300 hn        1 G2P      0.360800
     46 H2N2        6.9240   -5.5660   -4.9490 hn        1 G2P      0.360800
@<TRIPOS>BOND
     1    1    2 1   
     2    1    3 1   
     3    1    4 1   
     4    1    5 1   
     5    4   39 1   
     6    5    6 1   
     7    6    7 1   
     8    6    8 1   
     9    6    9 1   
    10    9   10 1   
    11    9   33 1   
    12    9   34 1   
    13   10   11 1   
    14   10   12 1   
    15   10   13 1   
    16   13   14 1   
    17   14   15 1   
    18   14   35 1   
    19   14   36 1   
    20   15   16 1   
    21   15   17 1   
    22   15   37 1   
    23   16   21 1   
    24   17   18 1   
    25   17   19 1   
    26   17   38 1   
    27   19   20 1   
    28   19   21 1   
    29   19   40 1   
    30   20   41 1   
    31   21   22 1   
    32   21   42 1   
    33   22   23 1   
    34   22   32 1   
    35   23   24 2   
    36   23   43 1   
    37   24   25 1   
    38   25   26 1   
    39   25   32 2   
    40   26   27 2   
    41   26   28 1   
    42   28   29 1   
    43   28   44 1   
    44   29   30 1   
    45   29   31 2   
    46   30   45 1   
    47   30   46 1   
    48   31   32 1   
@<TRIPOS>SUBSTRUCTURE
     1 G2P         1 TEMP              0 ****  ****    0 ROOT
