@<TRIPOS>MOLECULE
G2P
   46    48     1     0     0
SMALL
bcc


@<TRIPOS>ATOM
      1 PG         -1.0330    3.9080    2.6560 p5        1 G2P      1.592800
      2 O1G         0.4060    4.0380    2.9900 o         1 G2P     -0.907000
      3 O2G        -2.0130    4.8230    3.2940 o         1 G2P     -0.907000
      4 O3G        -1.4980    2.3850    3.0880 oh        1 G2P     -0.818400
      5 O3B        -1.2970    3.7240    1.0700 os        1 G2P     -0.843800
      6 PB         -1.8390    3.6260   -0.5050 p5        1 G2P      1.529600
      7 O1B        -2.9880    2.6950   -0.4100 o         1 G2P     -0.908500
      8 O2B        -1.9980    5.0120   -0.9960 o         1 G2P     -0.908500
      9 C3A        -0.4690    2.8050   -1.3060 c3        1 G2P     -0.591800
     10 PA          0.1130    2.5250   -2.8780 p5        1 G2P      1.422600
     11 O1A        -0.8630    2.4580   -3.9920 o         1 G2P     -0.902000
     12 O2A         1.4190    3.1990   -3.1470 o         1 G2P     -0.902000
     13 O5'         0.6390    0.9150   -2.7340 os        1 G2P     -0.590200
     14 C5'         1.0620    0.3150   -3.9060 c3        1 G2P      0.218400
     15 C4'         2.5930    0.1340   -3.9070 c3        1 G2P      0.071100
     16 O4'         2.9040   -1.1960   -4.3700 os        1 G2P     -0.430600
     17 C3'         3.3590    1.1140   -4.8180 c3        1 G2P      0.112100
     18 O3'         3.9550    2.1620   -4.0860 oh        1 G2P     -0.673800
     19 C2'         4.4850    0.2740   -5.4630 c3        1 G2P      0.111100
     20 O2'         5.7860    0.6790   -5.0900 oh        1 G2P     -0.616800
     21 C1'         4.2250   -1.1850   -4.9590 c3        1 G2P      0.235800
     22 N9          4.3600   -2.2010   -5.9680 nh        1 G2P     -0.099600
     23 C8          4.3870   -2.0450   -7.3740 c1        1 G2P      0.054400
     24 N7          4.6150   -3.2440   -7.9900 ne        1 G2P     -0.630000
     25 C5          4.7350   -4.1920   -6.9920 cc        1 G2P     -0.040600
     26 C6          4.9840   -5.6150   -7.0410 c         1 G2P      0.721700
     27 O6          5.1630   -6.3540   -8.0420 o         1 G2P     -0.735500
     28 N1          5.0390   -6.2550   -5.7860 n         1 G2P     -0.472400
     29 C2          4.8730   -5.5510   -4.5710 cc        1 G2P      0.455800
     30 N2          4.9590   -6.3630   -3.3680 nh        1 G2P     -0.855800
     31 N3          4.6490   -4.2330   -4.4870 nd        1 G2P     -0.558300
     32 C4          4.5790   -3.5650   -5.6860 cd        1 G2P      0.008500
     33 H3A1       -0.5800    1.7830   -0.8630 hc        1 G2P      0.096200
     34 H3A2        0.3890    3.2960   -0.7810 hc        1 G2P      0.096200
     35 H5'1        0.7430    0.9240   -4.7980 h1        1 G2P      0.025200
     36 H5'2        0.5970   -0.7100   -3.9750 h1        1 G2P      0.025200
     37 H4'         2.9750    0.2270   -2.8530 h1        1 G2P      0.060700
     38 H3'         2.6840    1.5360   -5.6090 h1        1 G2P      0.059700
     39 HA          3.2250    2.6550   -3.6490 ho        1 G2P      0.504000
     40 H2'         4.4630    0.3290   -6.5850 h1        1 G2P      0.110700
     41 HB          5.7350    1.0320   -4.1920 ho        1 G2P      0.411000
     42 H1'         4.9520   -1.4220   -4.1220 h2        1 G2P      0.036700
     43 H8         -2.0370    1.9650    2.4300 ho        1 G2P      0.424000
     44 H1          5.1980   -7.2330   -5.7610 hn        1 G2P      0.299500
     45 H2N1        4.0340   -6.4560   -2.9870 hn        1 G2P      0.354300
     46 H2N2        5.5260   -5.8830   -2.6930 hn        1 G2P      0.354300
@<TRIPOS>BOND
     1    1    2 1   
     2    1    3 1   
     3    1    4 1   
     4    1    5 1   
     5    4   43 1   
     6    5    6 1   
     7    6    7 1   
     8    6    8 1   
     9    6    9 1   
    10    9   10 1   
    11    9   33 1   
    12    9   34 1   
    13   10   11 1   
    14   10   12 1   
    15   10   13 1   
    16   13   14 1   
    17   14   15 1   
    18   14   35 1   
    19   14   36 1   
    20   15   16 1   
    21   15   17 1   
    22   15   37 1   
    23   16   21 1   
    24   17   18 1   
    25   17   19 1   
    26   17   38 1   
    27   18   39 1   
    28   19   20 1   
    29   19   21 1   
    30   19   40 1   
    31   20   41 1   
    32   21   22 1   
    33   21   42 1   
    34   22   23 2   
    35   22   32 1   
    36   23   24 2   
    37   24   25 1   
    38   25   26 1   
    39   25   32 2   
    40   26   27 2   
    41   26   28 1   
    42   28   29 1   
    43   28   44 1   
    44   29   30 1   
    45   29   31 2   
    46   30   45 1   
    47   30   46 1   
    48   31   32 1   
@<TRIPOS>SUBSTRUCTURE
     1 G2P         1 TEMP              0 ****  ****    0 ROOT
