@<TRIPOS>MOLECULE
G2S
   37    36     1     0     0
SMALL
bcc


@<TRIPOS>ATOM
      1 OP3        -2.1850   -5.7550   -3.0410 oh        1 G2S     -0.725000
      2 P          -1.3750   -5.2400   -1.7830 p5        1 G2S      2.310000
      3 S1P        -2.4100   -5.5600   -0.1740 s         1 G2S     -1.019000
      4 S2P         0.4310   -6.2570   -1.6560 sh        1 G2S     -0.571000
      5 O5'        -1.0930   -3.6640   -1.9350 os        1 G2S     -0.698000
      6 C5'        -0.6310   -2.9450   -0.7960 c3        1 G2S     -0.025000
      7 C4'        -0.4580   -1.4390   -1.1640 c3        1 G2S     -0.009000
      8 O4'        -0.8410   -0.6910   -0.1850 os        1 G2S     -0.260000
      9 C3'         1.0530   -1.1000   -1.3680 c3        1 G2S     -0.013000
     10 O3'         1.3070   -0.8570   -2.6770 oh        1 G2S     -0.315000
     11 C2'         1.3060    0.1480   -0.5430 c3        1 G2S     -0.224000
     12 C1'         0.1090    0.5840   -0.2050 c3        1 G2S      0.158000
     13 N9          0.1530    1.1920    1.0950 n3        1 G2S     -0.185000
     14 C8         -0.0840    0.5090    2.2480 c1        1 G2S     -0.104000
     15 N7         -0.1700    1.4130    3.2630 n2        1 G2S     -0.050000
     16 C5          0.0140    2.6580    2.7370 c1        1 G2S     -0.248000
     17 C6         -0.0800    4.0430    3.3520 c1        1 G2S      0.398000
     18 O6         -0.4110    4.1700    4.5160 o         1 G2S     -0.320000
     19 N1          0.1070    5.1740    2.5530 n3        1 G2S     -0.349000
     20 C2          0.3850    5.0230    1.1620 c2        1 G2S      0.241000
     21 N2          0.5020    6.1730    0.3340 n3        1 G2S     -0.332000
     22 N3          0.4740    3.6960    0.5780 n1        1 G2S     -0.247000
     23 C4          0.2130    2.5220    1.3970 c1        1 G2S      0.080000
     24 HOP3       -2.6670   -6.4660   -2.8120 ho        1 G2S      0.300000
     25 HOP2        0.3030   -7.3330   -2.0870 hs        1 G2S      0.144000
     26 H5'         0.2410   -3.3150   -0.5030 h1        1 G2S      0.129500
     27 H5''       -1.2810   -3.0300   -0.0720 h1        1 G2S      0.129500
     28 H4'        -0.9680   -1.2250   -1.9770 h1        1 G2S      0.154000
     29 H3'         1.6060   -1.8310   -1.0490 h1        1 G2S      0.130000
     30 HO3'        2.0920   -1.2120   -2.8980 ho        1 G2S      0.219000
     31 H2'1        1.8260   -0.0730    0.2580 hc        1 G2S      0.124500
     32 H1'        -0.2130    1.2330   -0.8710 h2        1 G2S      0.163000
     33 H8         -0.2210   -0.4380    2.3250 DU        1 G2S      0.207000
     34 H1          0.1050    5.9990    2.9290 hn        1 G2S      0.249000
     35 H21         0.5280    6.9980    0.7070 hn        1 G2S      0.218500
     36 H22         0.5600    6.0790   -0.5820 hn        1 G2S      0.218500
     37 H2'2        1.7740    0.8200   -1.0770 hc        1 G2S      0.124500
@<TRIPOS>BOND
     1    1    2 1   
     2    1   24 1   
     3    2    3 1   
     4    2    4 1   
     5    2    5 1   
     6    4   25 1   
     7    5    6 1   
     8    6    7 1   
     9    6   26 1   
    10    6   27 1   
    11    7    8 1   
    12    7    9 1   
    13    7   28 1   
    14    8   12 1   
    15    9   10 1   
    16    9   11 1   
    17    9   29 1   
    18   10   30 1   
    19   11   12 1   
    20   11   31 1   
    21   11   37 1   
    22   12   13 1   
    23   12   32 1   
    24   13   14 1   
    25   13   23 1   
    26   14   15 1   
    27   15   16 1   
    28   16   23 1   
    29   17   18 1   
    30   17   19 1   
    31   19   20 1   
    32   19   34 1   
    33   20   21 1   
    34   20   22 1   
    35   21   35 1   
    36   21   36 1   
@<TRIPOS>SUBSTRUCTURE
     1 G2S         1 TEMP              0 ****  ****    0 ROOT
