@<TRIPOS>MOLECULE
G2S
   37    39     1     0     0
SMALL
bcc


@<TRIPOS>ATOM
      1 OP3         3.3350   -1.7990   -5.1350 oh        1 G2S     -0.669400
      2 P           1.9210   -1.2130   -4.7250 p5        1 G2S      0.966200
      3 S1P         1.5880    0.6140   -4.6760 s         1 G2S     -0.494000
      4 S2P         0.5090   -2.0560   -6.0360 sh        1 G2S     -0.482200
      5 O5'         1.8280   -2.0590   -3.3710 os        1 G2S     -0.535200
      6 C5'         1.1660   -1.5180   -2.2390 c3        1 G2S      0.141400
      7 C4'         2.1640   -1.4390   -1.0840 c3        1 G2S      0.075100
      8 O4'         2.9320   -0.2350   -1.1900 os        1 G2S     -0.416600
      9 C3'         1.4670   -1.4570    0.2930 c3        1 G2S      0.126100
     10 O3'         1.6690   -2.6790    0.9640 oh        1 G2S     -0.575800
     11 C2'         2.0410   -0.2530    1.0410 c3        1 G2S     -0.149400
     12 C1'         2.7640    0.5980   -0.0280 c3        1 G2S      0.269800
     13 N9          2.0830    1.8280   -0.3660 na        1 G2S     -0.241900
     14 C8          1.6430    2.3160   -1.6260 cc        1 G2S      0.420400
     15 N7          1.1270    3.5540   -1.5530 nd        1 G2S     -0.585000
     16 C5          1.2320    3.9200   -0.2090 cd        1 G2S      0.188800
     17 C6          0.8610    5.1470    0.4650 c         1 G2S      0.650000
     18 O6          0.3300    6.1610   -0.0080 o         1 G2S     -0.593500
     19 N1          1.1520    5.1500    1.8590 n         1 G2S     -0.509400
     20 C2          1.7770    4.0680    2.5090 cd        1 G2S      0.677800
     21 N2          2.1330    4.2490    3.8670 nh        1 G2S     -0.891800
     22 N3          2.1010    2.8970    1.9100 nc        1 G2S     -0.684100
     23 C4          1.8370    2.8600    0.5520 cc        1 G2S      0.091800
     24 HOP3        3.6550   -2.5620   -4.6410 ho        1 G2S      0.507000
     25 HOP2       -0.0650   -0.9330   -6.5270 hs        1 G2S      0.377800
     26 H5'         0.7590   -0.4970   -2.4940 h1        1 G2S      0.092200
     27 H5''        0.3400   -2.2360   -1.9730 h1        1 G2S      0.092200
     28 H4'         2.9040   -2.2840   -1.1720 h1        1 G2S      0.088700
     29 H3'         0.3480   -1.3830    0.1910 h1        1 G2S      0.099700
     30 HO3'        2.6120   -2.7660    1.1520 ho        1 G2S      0.407000
     31 H2'1        1.2340    0.3100    1.5690 hc        1 G2S      0.088700
     32 H1'         3.8170    0.8640    0.2950 h2        1 G2S      0.097700
     33 H8          1.7450    1.7210   -2.5550 h5        1 G2S      0.115100
     34 H1          0.9840    5.9990    2.3530 hn        1 G2S      0.334500
     35 H21         1.4910    4.7820    4.4100 hn        1 G2S      0.417800
     36 H22         2.4650    3.4260    4.3230 hn        1 G2S      0.417800
     37 H2'2        2.7850   -0.5800    1.8110 hc        1 G2S      0.088700
@<TRIPOS>BOND
     1    1    2 1   
     2    1   24 1   
     3    2    3 2   
     4    2    4 1   
     5    2    5 1   
     6    4   25 1   
     7    5    6 1   
     8    6    7 1   
     9    6   26 1   
    10    6   27 1   
    11    7    8 1   
    12    7    9 1   
    13    7   28 1   
    14    8   12 1   
    15    9   10 1   
    16    9   11 1   
    17    9   29 1   
    18   10   30 1   
    19   11   12 1   
    20   11   31 1   
    21   11   37 1   
    22   12   13 1   
    23   12   32 1   
    24   13   14 1   
    25   13   23 1   
    26   14   15 2   
    27   14   33 1   
    28   15   16 1   
    29   16   17 1   
    30   16   23 2   
    31   17   18 2   
    32   17   19 1   
    33   19   20 1   
    34   19   34 1   
    35   20   21 1   
    36   20   22 2   
    37   21   35 1   
    38   21   36 1   
    39   22   23 1   
@<TRIPOS>SUBSTRUCTURE
     1 G2S         1 TEMP              0 ****  ****    0 ROOT
