@<TRIPOS>MOLECULE
G30
   25    26     1     0     0
SMALL
bcc


@<TRIPOS>ATOM
      1 F11        -3.8490   -2.2940    0.1650 f         1 G30     -0.155900
      2 C11        -3.1890   -1.1070    0.1790 ca        1 G30      0.125900
      3 C12        -3.8620    0.0500    0.6000 ca        1 G30     -0.199000
      4 C13        -3.1760    1.2580    0.6100 ca        1 G30     -0.130000
      5 C14        -1.8380    1.3290    0.2000 ca        1 G30      0.060900
      6 F14        -1.2200    2.5360    0.2120 f         1 G30     -0.128900
      7 C10        -1.8460   -1.0650   -0.2230 ca        1 G30     -0.196000
      8 C9         -1.1330    0.1510   -0.2250 ca        1 G30      0.104600
      9 N5          0.1970    0.2630   -0.6210 n         1 G30     -0.462100
     10 C4          0.9470   -0.7100   -1.2730 c         1 G30      0.711100
     11 O15         0.4640   -1.8020   -1.6380 o         1 G30     -0.636100
     12 C3          2.3570   -0.3480   -1.6230 cx        1 G30     -0.218700
     13 C1          3.3230    0.3820   -0.7260 cx        1 G30     -0.194700
     14 C2          3.5070   -1.0810   -0.9840 cx        1 G30     -0.096400
     15 C6          2.9780    0.8840    0.6710 c         1 G30      0.926600
     16 O8          3.5420    0.3430    1.6580 o         1 G30     -0.825800
     17 O7          2.1640    1.8540    0.7620 o         1 G30     -0.825800
     18 H12        -4.9110   -0.0040    0.9180 ha        1 G30      0.135000
     19 H13        -3.6790    2.1780    0.9400 ha        1 G30      0.138000
     20 H10        -1.3550   -2.0020   -0.5370 ha        1 G30      0.189000
     21 HN5         0.7000    1.0790   -0.2740 hn        1 G30      0.397500
     22 H3          2.4100   -0.1410   -2.7130 hc        1 G30      0.079700
     23 H1          4.0050    1.1000   -1.2250 hc        1 G30      0.068700
     24 H2          3.3040   -1.7790   -0.1520 hc        1 G30      0.066700
     25 H2A         4.3280   -1.4320   -1.6330 hc        1 G30      0.066700
@<TRIPOS>BOND
     1    1    2 1   
     2    2    3 ar  
     3    2    7 ar  
     4    3    4 ar  
     5    3   18 1   
     6    4    5 ar  
     7    4   19 1   
     8    5    6 1   
     9    5    8 ar  
    10    7    8 ar  
    11    7   20 1   
    12    8    9 1   
    13    9   10 1   
    14    9   21 1   
    15   10   11 2   
    16   10   12 1   
    17   12   13 1   
    18   12   14 1   
    19   12   22 1   
    20   13   14 1   
    21   13   15 1   
    22   13   23 1   
    23   14   24 1   
    24   14   25 1   
    25   15   16 1   
    26   15   17 1   
@<TRIPOS>SUBSTRUCTURE
     1 G30         1 TEMP              0 ****  ****    0 ROOT
