@<TRIPOS>MOLECULE
G30
   26    27     1     0     0
SMALL
bcc


@<TRIPOS>ATOM
      1 F11         0.4570   -1.4620    1.4150 f         1 G30     -0.142900
      2 C11         1.5150   -0.6870    1.0710 ca        1 G30      0.152900
      3 C12         1.6770    0.5750    1.6690 ca        1 G30     -0.199000
      4 C13         2.7590    1.3630    1.3030 ca        1 G30     -0.101000
      5 C14         3.6840    0.9130    0.3520 ca        1 G30      0.030900
      6 F14         4.7240    1.7140    0.0050 f         1 G30     -0.145900
      7 C10         2.4290   -1.1590    0.1180 ca        1 G30     -0.226000
      8 C9          3.5420   -0.3760   -0.2540 ca        1 G30      0.158600
      9 N5          4.5110   -0.8780   -1.1150 nh        1 G30     -0.815200
     10 C4          4.9710   -0.9870   -4.5660 c         1 G30      0.745100
     11 O15         5.4310   -0.1350   -3.8260 o         1 G30     -0.516000
     12 C3          5.1010   -1.2890   -6.0240 cx        1 G30     -0.209700
     13 C1          4.2490   -2.5420   -6.2450 cx        1 G30     -0.209700
     14 C2          3.8240   -1.2160   -6.8190 cx        1 G30     -0.061400
     15 C6          3.6880   -2.8720   -4.8990 c         1 G30      0.745100
     16 O8          2.9670   -3.7520   -4.4680 o         1 G30     -0.516000
     17 O7          4.1400   -1.9350   -3.9500 os        1 G30     -0.459200
     18 H12         0.9510    0.9250    2.4150 ha        1 G30      0.150000
     19 H13         2.9010    2.3560    1.7570 ha        1 G30      0.148000
     20 H10         2.2720   -2.1520   -0.3290 ha        1 G30      0.155000
     21 HN5         5.0850   -0.1890   -1.5550 hn        1 G30      0.414300
     22 H3          6.0870   -1.1080   -6.4780 hc        1 G30      0.142700
     23 H1          4.5330   -3.3930   -6.8800 hc        1 G30      0.142700
     24 H2          2.9460   -0.6930   -6.3970 hc        1 G30      0.101700
     25 H2A         3.9030   -1.0770   -7.9140 hc        1 G30      0.101700
     26 H52         4.1990   -1.5950   -1.7340 hn        1 G30      0.414300
@<TRIPOS>BOND
     1    1    2 1   
     2    2    3 ar  
     3    2    7 ar  
     4    3    4 ar  
     5    3   18 1   
     6    4    5 ar  
     7    4   19 1   
     8    5    6 1   
     9    5    8 ar  
    10    7    8 ar  
    11    7   20 1   
    12    8    9 1   
    13    9   21 1   
    14    9   26 1   
    15   10   11 2   
    16   10   12 1   
    17   10   17 1   
    18   12   13 1   
    19   12   14 1   
    20   12   22 1   
    21   13   14 1   
    22   13   15 1   
    23   13   23 1   
    24   14   24 1   
    25   14   25 1   
    26   15   16 2   
    27   15   17 1   
@<TRIPOS>SUBSTRUCTURE
     1 G30         1 TEMP              0 ****  ****    0 ROOT
