@<TRIPOS>MOLECULE
G30
   25    26     1     0     0
SMALL
bcc


@<TRIPOS>ATOM
      1 F11        -0.0750    0.3420    0.1900 f         1 G30     -0.155900
      2 C11         1.2610    0.1110    0.1000 ca        1 G30      0.125900
      3 C12         2.0360    0.0820    1.2690 ca        1 G30     -0.199000
      4 C13         3.4000   -0.1550    1.1630 ca        1 G30     -0.130000
      5 C14         4.0020   -0.3530   -0.0870 ca        1 G30      0.060900
      6 F14         5.3400   -0.5640   -0.1360 f         1 G30     -0.128900
      7 C10         1.8360   -0.0990   -1.1620 ca        1 G30     -0.196000
      8 C9          3.2200   -0.3370   -1.2920 ca        1 G30      0.104600
      9 N5          3.8540   -0.5420   -2.5150 ns        1 G30     -0.462100
     10 C4          3.3050   -0.3280   -3.7740 c         1 G30      0.711100
     11 O15         2.1620    0.1500   -3.9400 o         1 G30     -0.636100
     12 C3          4.1930   -0.5960   -4.9490 cx        1 G30     -0.218700
     13 C1          5.1140   -1.7800   -5.0990 cx        1 G30     -0.194700
     14 C2          3.8600   -1.7050   -5.9120 cx        1 G30     -0.096400
     15 C6          5.2880   -2.8660   -4.0430 c         1 G30      0.926600
     16 O8          4.8780   -4.0260   -4.3050 o         1 G30     -0.825800
     17 O7          5.8780   -2.5460   -2.9650 o         1 G30     -0.825800
     18 H12         1.5670    0.2410    2.2480 ha        1 G30      0.135000
     19 H13         4.0290   -0.1870    2.0650 ha        1 G30      0.138000
     20 H10         1.1860   -0.0770   -2.0530 ha        1 G30      0.189000
     21 HN5         4.7500   -1.0270   -2.4780 hn        1 G30      0.397500
     22 H3          4.5320    0.3750   -5.3670 hc        1 G30      0.079700
     23 H1          6.0840   -1.5830   -5.5980 hc        1 G30      0.068700
     24 H2          3.9110   -1.4900   -6.9940 hc        1 G30      0.066700
     25 H2A         3.0430   -2.4060   -5.6630 hc        1 G30      0.066700
@<TRIPOS>BOND
     1    1    2 1   
     2    2    3 ar  
     3    2    7 ar  
     4    3    4 ar  
     5    3   18 1   
     6    4    5 ar  
     7    4   19 1   
     8    5    6 1   
     9    5    8 ar  
    10    7    8 ar  
    11    7   20 1   
    12    8    9 1   
    13    9   10 1   
    14    9   21 1   
    15   10   11 2   
    16   10   12 1   
    17   12   13 1   
    18   12   14 1   
    19   12   22 1   
    20   13   14 1   
    21   13   15 1   
    22   13   23 1   
    23   14   24 1   
    24   14   25 1   
    25   15   16 1   
    26   15   17 1   
@<TRIPOS>SUBSTRUCTURE
     1 G30         1 TEMP              0 ****  ****    0 ROOT
