@<TRIPOS>MOLECULE
G30
   25    24     1     0     0
SMALL
bcc


@<TRIPOS>ATOM
      1 F11        -3.8590    0.5420    0.9760 f         1 G30     -0.121000
      2 C11        -2.6450    0.4180    1.5360 c2        1 G30      0.091000
      3 C12        -2.5000    0.5360    2.9140 c2        1 G30     -0.199000
      4 C13        -1.2390    0.4340    3.4920 c1        1 G30     -0.130000
      5 C14        -0.1230    0.2140    2.6910 c1        1 G30      0.026000
      6 F14         1.0890    0.0820    3.2520 f         1 G30     -0.094000
      7 C10        -1.5300    0.1980    0.7360 c1        1 G30     -0.196000
      8 C9         -0.2690    0.0960    1.3140 c1        1 G30      0.112000
      9 N5          0.8880   -0.1150    0.4840 n         1 G30     -0.316000
     10 C4          0.8870    0.3370   -0.8810 c2        1 G30      0.355000
     11 O15        -0.0940    0.8990   -1.3330 o         1 G30     -0.397000
     12 C3          2.1020    0.2600   -1.6670 cx        1 G30     -0.208000
     13 C1          1.7140   -0.8290   -2.6760 cx        1 G30     -0.184000
     14 C2          1.5680    0.5880   -3.0270 cx        1 G30     -0.175000
     15 C6          0.5640   -1.5700   -1.9290 c2        1 G30      0.346000
     16 O8          0.8260   -2.2930   -0.9280 o         1 G30     -0.560500
     17 O7         -0.6150   -1.5190   -2.3790 o         1 G30     -0.560500
     18 H12        -3.2870    0.6920    3.4790 ha        1 G30      0.135000
     19 H13        -1.1370    0.5170    4.4640 ha        1 G30      0.138000
     20 H10        -1.6320    0.1150   -0.2340 ha        1 G30      0.189000
     21 HN5         1.6280   -0.5380    0.8260 hn        1 G30      0.311000
     22 H3          2.7820    0.5140   -1.0060 hc        1 G30      0.119000
     23 H1          2.0080   -1.4410   -3.3870 hc        1 G30      0.108000
     24 H2          0.6470    0.9250   -3.0500 hc        1 G30      0.106000
     25 H2A         2.2260    0.9360   -3.6680 hc        1 G30      0.106000
@<TRIPOS>BOND
     1    1    2 1   
     2    2    3 1   
     3    2    7 1   
     4    3    4 1   
     5    3   18 1   
     6    4   19 1   
     7    5    6 1   
     8    5    8 1   
     9    7   20 1   
    10    8    9 1   
    11    9   10 1   
    12    9   21 1   
    13   10   11 1   
    14   10   12 1   
    15   12   13 1   
    16   12   14 1   
    17   12   22 1   
    18   13   14 1   
    19   13   15 1   
    20   13   23 1   
    21   14   24 1   
    22   14   25 1   
    23   15   16 1   
    24   15   17 1   
@<TRIPOS>SUBSTRUCTURE
     1 G30         1 TEMP              0 ****  ****    0 ROOT
