@<TRIPOS>MOLECULE
G31
   37    39     1     0     0
SMALL
bcc


@<TRIPOS>ATOM
      1 O3P        -0.7370   -1.7480   -2.0870 o         1 G31     -0.924500
      2 P          -0.5410   -1.3520   -3.5390 p5        1 G31      1.342900
      3 O1P        -1.7610   -1.3310   -4.4010 o         1 G31     -0.924500
      4 O2P         0.7530   -1.8760   -4.0970 o         1 G31     -0.924500
      5 O5'        -0.1050    0.3260   -3.3980 os        1 G31     -0.566200
      6 C5'        -0.0930    0.8780   -2.1510 c3        1 G31      0.218400
      7 C4'         1.3350    1.0130   -1.5650 c3        1 G31      0.106100
      8 O4'         1.2350    1.2140   -0.1290 os        1 G31     -0.450600
      9 C3'         2.2120   -0.2290   -1.7660 c3        1 G31     -0.126700
     10 C2'         2.0010   -1.0390   -0.4900 c3        1 G31     -0.105400
     11 C1'         1.4920   -0.0150    0.5530 c3        1 G31      0.251800
     12 N9          0.3230   -0.4560    1.3040 na        1 G31     -0.186900
     13 C8         -0.8320   -1.1290    0.8420 cc        1 G31      0.464400
     14 N7         -1.7390   -1.3390    1.8250 nd        1 G31     -0.661000
     15 C5         -1.1850   -0.7710    2.9700 cd        1 G31      0.210800
     16 C6         -1.6870   -0.6890    4.3230 c         1 G31      0.640000
     17 O6         -2.7560   -1.1230    4.7950 o         1 G31     -0.659500
     18 N1         -0.8280   -0.0100    5.2240 n         1 G31     -0.494400
     19 C2          0.4240    0.5050    4.8300 cd        1 G31      0.563800
     20 N2          1.2080    1.1130    5.8830 nh        1 G31     -0.862800
     21 N3          0.9170    0.4450    3.5860 nc        1 G31     -0.610100
     22 C4          0.1070   -0.2010    2.6630 cc        1 G31      0.025800
     23 C3M         3.6590    0.1230   -1.9940 c3        1 G31     -0.066100
     24 H5'1       -0.7150    0.2810   -1.4250 h1        1 G31     -0.002300
     25 H5'2       -0.5110    1.9280   -2.2030 h1        1 G31     -0.002300
     26 H4'         1.8340    1.9440   -1.9370 h1        1 G31      0.032700
     27 H3'         1.8080   -0.8180   -2.6670 hc        1 G31      0.196700
     28 H2'1        1.2370   -1.8390   -0.6990 hc        1 G31      0.077700
     29 H2'2        2.9420   -1.5110   -0.1230 hc        1 G31      0.077700
     30 H1'         2.2900    0.2270    1.3170 h2        1 G31      0.051700
     31 H8         -0.9400   -1.4430   -0.2520 h5        1 G31      0.216100
     32 H1         -1.1000    0.0390    6.1780 hn        1 G31      0.317500
     33 H2N1        2.1670    1.1970    5.6020 hn        1 G31      0.372300
     34 H2N2        0.8390    2.0240    6.0870 hn        1 G31      0.372300
     35 H3M1        4.2700   -0.8060   -2.1000 hc        1 G31      0.010033
     36 H3M2        3.7610    0.7210   -2.9320 hc        1 G31      0.010033
     37 H3M3        4.0700    0.7230   -1.1450 hc        1 G31      0.010033
@<TRIPOS>BOND
     1    1    2 1   
     2    2    3 1   
     3    2    4 1   
     4    2    5 1   
     5    5    6 1   
     6    6    7 1   
     7    6   24 1   
     8    6   25 1   
     9    7    8 1   
    10    7    9 1   
    11    7   26 1   
    12    8   11 1   
    13    9   10 1   
    14    9   23 1   
    15    9   27 1   
    16   10   11 1   
    17   10   28 1   
    18   10   29 1   
    19   11   12 1   
    20   11   30 1   
    21   12   13 1   
    22   12   22 1   
    23   13   14 2   
    24   13   31 1   
    25   14   15 1   
    26   15   16 1   
    27   15   22 2   
    28   16   17 2   
    29   16   18 1   
    30   18   19 1   
    31   18   32 1   
    32   19   20 1   
    33   19   21 2   
    34   20   33 1   
    35   20   34 1   
    36   21   22 1   
    37   23   35 1   
    38   23   36 1   
    39   23   37 1   
@<TRIPOS>SUBSTRUCTURE
     1 G31         1 TEMP              0 ****  ****    0 ROOT
