@<TRIPOS>MOLECULE
G32
   38    35     1     0     0
SMALL
bcc


@<TRIPOS>ATOM
      1 O3P        -2.0320    3.8810    5.0950 o         1 G32     -0.910500
      2 P          -2.9130    2.6940    4.7840 p4        1 G32      1.693200
      3 O1P        -4.3260    2.9870    5.2270 os        1 G32     -1.266000
      4 O2P        -2.3970    1.4790    5.5170 o         1 G32     -0.959300
      5 O5'        -2.8940    2.4180    3.2280 os        1 G32     -0.578200
      6 C5'        -1.8640    1.6160    2.7020 c3        1 G32      0.203400
      7 C4'        -1.7010    1.9100    1.2100 c3        1 G32      0.063100
      8 O4'        -0.4930    1.6810    0.8410 os        1 G32     -0.437600
      9 C3'        -2.5870    0.9220    0.3570 c3        1 G32      0.124100
     10 O3'        -3.6200    1.5900   -0.2120 oh        1 G32     -0.663800
     11 C2'        -1.6750    0.3750   -0.7030 c3        1 G32     -0.119400
     12 C1'        -0.5830    1.1380   -0.6470 c3        1 G32      0.257800
     13 N9          0.5560    0.3730   -0.9530 n3        1 G32     -0.116400
     14 C8          1.5890    0.9650   -0.3120 c1        1 G32      0.243400
     15 N7          2.6510    0.1300   -0.3690 ne        1 G32     -0.444400
     16 C5          2.2720   -0.9860   -1.0480 cg        1 G32     -0.177000
     17 C6          2.9590   -2.1380   -1.3990 c1        1 G32      0.563400
     18 O6          4.2480   -2.5600   -1.0340 os        1 G32     -0.308400
     19 N1          2.3380   -3.1020   -2.0970 n1        1 G32     -0.593800
     20 C2          1.0310   -2.9490   -2.4610 c1        1 G32      0.493600
     21 N2          0.5280   -3.8930   -3.3930 n3        1 G32     -0.760400
     22 N3          0.3540   -1.8170   -2.1160 n1        1 G32     -0.557800
     23 C4          0.9810   -0.8360   -1.4080 c1        1 G32      0.006700
     24 C6M         5.2750   -2.0190   -1.8350 c3        1 G32      0.123700
     25 H5'1       -1.0260    1.8130    3.1670 h1        1 G32      0.015700
     26 H5'2       -2.0910    0.6710    2.8250 h1        1 G32      0.015700
     27 H4'        -1.9440    2.8380    1.0180 h1        1 G32      0.040700
     28 H3'        -2.9230    0.1970    0.9200 h1        1 G32      0.152700
     29 HA         -4.3460    1.0770   -0.2010 ho        1 G32      0.484000
     30 H2'1       -2.0960    0.4470   -1.5850 hc        1 G32      0.050700
     31 H2'2       -1.4480   -0.5580   -0.5080 hc        1 G32      0.050700
     32 H1'        -0.6640    1.8860   -1.2740 h2        1 G32      0.069700
     33 H8          1.5750    1.8480    0.1050 DU        1 G32      0.315000
     34 H2N1       -0.3320   -3.8240   -3.6940 hn        1 G32      0.384300
     35 H2N2        1.0610   -4.5760   -3.6850 hn        1 G32      0.384300
     36 H6M1        6.1120   -2.5020   -1.6650 h1        1 G32      0.052700
     37 H6M2        5.0320   -2.1080   -2.7820 h1        1 G32      0.052700
     38 H6M3        5.3950   -1.0690   -1.6170 h1        1 G32      0.052700
@<TRIPOS>BOND
     1    1    2 1   
     2    2    4 2   
     3    2    5 1   
     4    5    6 1   
     5    6    7 1   
     6    6   25 1   
     7    6   26 1   
     8    7    8 1   
     9    7    9 1   
    10    7   27 1   
    11    8   12 1   
    12    9   10 1   
    13    9   11 1   
    14    9   28 1   
    15   10   29 1   
    16   11   12 1   
    17   11   30 1   
    18   11   31 1   
    19   12   13 1   
    20   12   32 1   
    21   13   14 2   
    22   13   23 1   
    23   14   15 2   
    24   15   16 1   
    25   16   23 3   
    26   17   18 1   
    27   17   19 3   
    28   18   24 1   
    29   20   21 1   
    30   20   22 3   
    31   21   34 1   
    32   21   35 1   
    33   24   36 1   
    34   24   37 1   
    35   24   38 1   
@<TRIPOS>SUBSTRUCTURE
     1 G32         1 TEMP              0 ****  ****    0 ROOT
