@<TRIPOS>MOLECULE
G32
   38    40     1     0     0
SMALL
bcc


@<TRIPOS>ATOM
      1 O3P        -4.2600    0.9200   -1.5570 o         1 G32     -0.930167
      2 P          -4.7620   -0.4170   -1.0490 p5        1 G32      1.331900
      3 O1P        -4.1380   -1.6010   -1.7290 o         1 G32     -0.930167
      4 O2P        -6.2030   -0.4990   -0.6550 o         1 G32     -0.930167
      5 O5'        -3.9150   -0.4210    0.4810 os        1 G32     -0.553200
      6 C5'        -2.5560   -0.4070    0.3540 c3        1 G32      0.227400
      7 C4'        -1.9980    1.0140    0.6150 c3        1 G32      0.052100
      8 O4'        -0.7420    0.9260    1.3400 os        1 G32     -0.435600
      9 C3'        -1.7460    1.8300   -0.6680 c3        1 G32      0.157100
     10 O3'        -2.5950    2.9530   -0.7350 oh        1 G32     -0.672800
     11 C2'        -0.2940    2.3200   -0.5600 c3        1 G32     -0.129400
     12 C1'         0.3170    1.5120    0.6030 c3        1 G32      0.254800
     13 N9          1.2480    0.4650    0.1730 na        1 G32     -0.260000
     14 C8          0.9250   -0.8310   -0.2940 cc        1 G32      0.453700
     15 N7          1.9990   -1.6030   -0.5420 nd        1 G32     -0.554100
     16 C5          3.1020   -0.8010   -0.2210 ca        1 G32     -0.185200
     17 C6          4.5040   -0.9820   -0.2290 ca        1 G32      0.713600
     18 O6          4.9590   -2.2150   -0.6470 os        1 G32     -0.421100
     19 N1          5.3610   -0.0150    0.1630 nb        1 G32     -0.841000
     20 C2          4.8090    1.2030    0.5630 ca        1 G32      0.845900
     21 N2          5.7390    2.2410    0.8610 nh        1 G32     -0.899500
     22 N3          3.4750    1.5200    0.6450 nb        1 G32     -0.749000
     23 C4          2.6420    0.5160    0.2450 ca        1 G32      0.449800
     24 C6M         6.3690   -2.4130   -0.7030 c3        1 G32      0.126700
     25 H5'1       -2.2430   -0.7570   -0.6720 h1        1 G32     -0.004300
     26 H5'2       -2.0910   -1.0870    1.1290 h1        1 G32     -0.004300
     27 H4'        -2.6930    1.5660    1.3030 h1        1 G32      0.081700
     28 H3'        -1.8990    1.1910   -1.5830 h1        1 G32      0.103700
     29 HA         -3.4690    2.5960   -1.0190 ho        1 G32      0.501000
     30 H2'1       -0.2690    3.4060   -0.2970 hc        1 G32      0.054200
     31 H2'2        0.2500    2.1790   -1.5220 hc        1 G32      0.054200
     32 H1'         0.8890    2.1680    1.3230 h2        1 G32      0.069700
     33 H8         -0.1360   -1.1270   -0.4160 h5        1 G32      0.127800
     34 H2N1        6.6070    1.8990    1.2130 hn        1 G32      0.389300
     35 H2N2        5.3500    2.9590    1.4350 hn        1 G32      0.389300
     36 H6M1        6.8450   -1.6890   -1.4060 h1        1 G32      0.038700
     37 H6M2        6.8220   -2.3240    0.3140 h1        1 G32      0.038700
     38 H6M3        6.4620   -3.4600   -1.0870 h1        1 G32      0.038700
@<TRIPOS>BOND
     1    1    2 1   
     2    2    3 1   
     3    2    4 1   
     4    2    5 1   
     5    5    6 1   
     6    6    7 1   
     7    6   25 1   
     8    6   26 1   
     9    7    8 1   
    10    7    9 1   
    11    7   27 1   
    12    8   12 1   
    13    9   10 1   
    14    9   11 1   
    15    9   28 1   
    16   10   29 1   
    17   11   12 1   
    18   11   30 1   
    19   11   31 1   
    20   12   13 1   
    21   12   32 1   
    22   13   14 1   
    23   13   23 1   
    24   14   15 2   
    25   14   33 1   
    26   15   16 1   
    27   16   17 ar  
    28   16   23 ar  
    29   17   18 1   
    30   17   19 ar  
    31   18   24 1   
    32   19   20 ar  
    33   20   21 1   
    34   20   22 ar  
    35   21   34 1   
    36   21   35 1   
    37   22   23 ar  
    38   24   36 1   
    39   24   37 1   
    40   24   38 1   
@<TRIPOS>SUBSTRUCTURE
     1 G32         1 TEMP              0 ****  ****    0 ROOT
