@<TRIPOS>MOLECULE
G33
   38    40     1     0     0
SMALL
bcc


@<TRIPOS>ATOM
      1 O3P         1.0100   -1.4260    4.6910 o         1 G33     -0.929500
      2 P          -0.2740   -0.6800    4.9110 p5        1 G33      1.331900
      3 O1P        -0.5370   -0.0950    6.2630 o         1 G33     -0.929500
      4 O2P        -1.4610   -1.2680    4.1730 o         1 G33     -0.929500
      5 O5'        -0.0370    0.7220    3.8950 os        1 G33     -0.555200
      6 C5'         0.3020    0.4110    2.6090 c3        1 G33      0.232400
      7 C4'        -0.9050    0.6150    1.6630 c3        1 G33      0.059100
      8 O4'        -0.4250    1.0640    0.3670 os        1 G33     -0.438600
      9 C3'        -1.7550   -0.6500    1.4400 c3        1 G33      0.157100
     10 O3'        -3.0210   -0.5270    2.0460 oh        1 G33     -0.673800
     11 C2'        -1.9550   -0.7490   -0.0790 c3        1 G33     -0.132400
     12 C1'        -1.0650    0.3560   -0.6860 c3        1 G33      0.250800
     13 N9         -0.0640   -0.1400   -1.6360 na        1 G33     -0.174900
     14 C8          1.1190   -0.8860   -1.3870 cc        1 G33      0.467800
     15 N7          1.8130   -1.1590   -2.5280 nd        1 G33     -0.643000
     16 C5          1.0790   -0.5720   -3.5510 cd        1 G33      0.201800
     17 C6          1.3180   -0.5340   -4.9780 c         1 G33      0.644000
     18 O6          2.2560   -1.0330   -5.6260 o         1 G33     -0.646500
     19 N1          0.3380    0.1810   -5.7130 n         1 G33     -0.497400
     20 C2         -0.7890    0.7670   -5.0990 cd        1 G33      0.594800
     21 N2         -1.7390    1.3800   -5.9920 nh        1 G33     -0.866800
     22 N3         -1.0320    0.7580   -3.7800 nc        1 G33     -0.620100
     23 C4         -0.0970    0.0750   -3.0150 cc        1 G33      0.055800
     24 C8M         1.5260   -1.2910   -0.0150 c3        1 G33     -0.147400
     25 H5'1        0.6710   -0.6520    2.5300 h1        1 G33     -0.000800
     26 H5'2        1.1170    1.1090    2.2480 h1        1 G33     -0.000800
     27 H4'        -1.5490    1.4480    2.0550 h1        1 G33      0.070700
     28 H3'        -1.2300   -1.5600    1.8480 h1        1 G33      0.103700
     29 HA         -2.8690   -0.7120    3.0040 ho        1 G33      0.503000
     30 H2'1       -3.0210   -0.5500   -0.3470 hc        1 G33      0.052700
     31 H2'2       -1.6860   -1.7680   -0.4440 hc        1 G33      0.052700
     32 H1'        -1.6840    1.1130   -1.2550 h2        1 G33      0.066700
     33 H1          0.4170    0.1870   -6.7040 hn        1 G33      0.322500
     34 H21        -2.5900    1.6070   -5.5120 hn        1 G33      0.383300
     35 H22        -1.3460    2.2030   -6.4070 hn        1 G33      0.383300
     36 H8M1        1.7710   -0.3760    0.5880 hc        1 G33      0.084367
     37 H8M2        0.6820   -1.8170    0.5040 hc        1 G33      0.084367
     38 H8M3        2.4150   -1.9640   -0.0510 hc        1 G33      0.084367
@<TRIPOS>BOND
     1    1    2 1   
     2    2    3 1   
     3    2    4 1   
     4    2    5 1   
     5    5    6 1   
     6    6    7 1   
     7    6   25 1   
     8    6   26 1   
     9    7    8 1   
    10    7    9 1   
    11    7   27 1   
    12    8   12 1   
    13    9   10 1   
    14    9   11 1   
    15    9   28 1   
    16   10   29 1   
    17   11   12 1   
    18   11   30 1   
    19   11   31 1   
    20   12   13 1   
    21   12   32 1   
    22   13   14 1   
    23   13   23 1   
    24   14   15 2   
    25   14   24 1   
    26   15   16 1   
    27   16   17 1   
    28   16   23 2   
    29   17   18 2   
    30   17   19 1   
    31   19   20 1   
    32   19   33 1   
    33   20   21 1   
    34   20   22 2   
    35   21   34 1   
    36   21   35 1   
    37   22   23 1   
    38   24   36 1   
    39   24   37 1   
    40   24   38 1   
@<TRIPOS>SUBSTRUCTURE
     1 G33         1 TEMP              0 ****  ****    0 ROOT
