@<TRIPOS>MOLECULE
G33
   38    36     1     0     0
SMALL
bcc


@<TRIPOS>ATOM
      1 O3P        -3.1430   -4.7330    1.4770 o         1 G33     -1.250000
      2 P          -1.6620   -4.5270    1.1260 p3        1 G33      2.524000
      3 O1P        -0.8570   -4.4470    2.3870 os        1 G33     -1.247000
      4 O2P        -1.1780   -5.6820    0.2950 o         1 G33     -1.250000
      5 O5'        -1.4960   -3.1850    0.3090 os        1 G33     -0.717000
      6 C5'        -0.2290   -2.5140    0.3460 c3        1 G33      0.082000
      7 C4'         0.0990   -2.0580   -0.9430 c3        1 G33     -0.052000
      8 O4'        -0.5880   -0.7970   -1.2300 os        1 G33     -0.295000
      9 C3'         1.6700   -1.7300   -1.0340 c3        1 G33      0.046000
     10 O3'         2.3640   -2.7460   -1.8990 oh        1 G33     -0.401000
     11 C2'         1.7310   -0.6330   -1.5460 c3        1 G33     -0.211000
     12 C1'         0.3490    0.1140   -1.1770 c3        1 G33      0.159000
     13 N9          0.4210    0.6500    0.1140 n3        1 G33     -0.130000
     14 C8          0.9500    0.6890    1.3660 c1        1 G33      0.022000
     15 N7          0.5720    1.8570    1.9460 n2        1 G33     -0.117000
     16 C5         -0.1900    2.5410    1.0560 c1        1 G33     -0.216000
     17 C6         -0.9410    3.8430    1.1590 c1        1 G33      0.391000
     18 O6         -1.0350    4.4080    2.2380 o         1 G33     -0.371000
     19 N1         -1.6630    4.3220    0.0510 n3        1 G33     -0.337000
     20 C2         -1.6800    3.5740   -1.1650 c2        1 G33      0.148000
     21 N2         -2.4190    4.0580   -2.2980 n3        1 G33     -0.305000
     22 N3         -0.9580    2.3300   -1.2550 n1        1 G33     -0.193000
     23 C4         -0.2830    1.7920   -0.0800 c1        1 G33      0.006000
     24 C8M         1.8220    0.4670    2.5860 c2        1 G33     -0.171000
     25 H5'1        0.4720   -3.1450    0.6630 h1        1 G33      0.038500
     26 H5'2       -0.2810   -1.7650    0.9470 h1        1 G33      0.038500
     27 H4'        -0.1420   -2.7280   -1.6060 h1        1 G33      0.110000
     28 H3'         2.0580   -1.7130   -0.1590 h1        1 G33      0.143000
     29 HA          3.1000   -3.0440   -1.4790 ho        1 G33      0.302000
     30 H2'1        1.8170   -0.7180   -2.5040 hc        1 G33      0.092000
     31 H2'2        2.5090   -0.1210   -1.1740 hc        1 G33      0.092000
     32 H1'         0.1650    0.8240   -1.8280 h2        1 G33      0.106000
     33 H1         -2.0360    5.1520    0.0780 hn        1 G33      0.236000
     34 H21        -2.9110    4.8480   -2.2300 hn        1 G33      0.178500
     35 H22        -2.4420    3.5670   -3.0760 hn        1 G33      0.178500
     36 H8M1        2.4950   -0.2220    2.3870 ha        1 G33      0.123667
     37 H8M2        2.2700    1.2980    2.8210 ha        1 G33      0.123667
     38 H8M3        1.2700    0.1740    3.3300 ha        1 G33      0.123667
@<TRIPOS>BOND
     1    1    2 1   
     2    2    4 1   
     3    2    5 1   
     4    5    6 1   
     5    6    7 1   
     6    6   25 1   
     7    6   26 1   
     8    7    8 1   
     9    7    9 1   
    10    7   27 1   
    11    8   12 1   
    12    9   10 1   
    13    9   11 1   
    14    9   28 1   
    15   10   29 1   
    16   11   12 1   
    17   11   30 1   
    18   11   31 1   
    19   12   13 1   
    20   12   32 1   
    21   13   14 1   
    22   13   23 1   
    23   14   15 1   
    24   15   16 1   
    25   16   23 1   
    26   17   18 1   
    27   17   19 1   
    28   19   20 1   
    29   19   33 1   
    30   20   21 1   
    31   20   22 1   
    32   21   34 1   
    33   21   35 1   
    34   24   36 1   
    35   24   37 1   
    36   24   38 1   
@<TRIPOS>SUBSTRUCTURE
     1 G33         1 TEMP              0 ****  ****    0 ROOT
