@<TRIPOS>MOLECULE
G35
   37    35     1     0     0
SMALL
bcc


@<TRIPOS>ATOM
      1 P          -5.0680    2.8780   -0.2360 p3        1 G35      2.537000
      2 C2          3.0500   -2.6890    2.1160 c1        1 G35      0.178000
      3 N3          1.9500   -1.8610    1.5930 n2        1 G35     -0.300000
      4 C4          1.9240   -1.4990    0.2200 c3        1 G35     -0.021000
      5 C5          1.8120   -2.6210   -0.7610 c2        1 G35      0.264000
      6 O5          2.7220   -3.3100   -1.1580 o         1 G35     -0.424000
      7 N7          0.4610   -2.7280   -1.1510 n         1 G35     -0.414000
      8 C8         -0.2400   -1.6330   -0.6000 c2        1 G35      0.331000
      9 O8         -1.4240   -1.4880   -0.6010 o         1 G35     -0.423000
     10 N9          0.7080   -0.7530   -0.0160 n         1 G35     -0.354000
     11 C1'         0.5010    0.4850    0.3050 c3        1 G35      0.151000
     12 N11         4.3660   -2.1720    2.1630 n3        1 G35     -0.327000
     13 N12         2.8120   -3.8960    2.5370 n1        1 G35     -0.400000
     14 C2'         0.8350    1.4090   -0.8780 c3        1 G35     -0.186000
     15 C3'        -0.3360    1.8290   -1.3250 c3        1 G35      0.024000
     16 O3'        -0.2240    3.1800   -1.8180 oh        1 G35     -0.374000
     17 C4'        -1.3460    1.7820   -0.0550 c3        1 G35     -0.030000
     18 O4'        -1.0330    0.7280    0.6190 os        1 G35     -0.324000
     19 C5'        -2.7700    1.6900   -0.5270 c3        1 G35      0.038000
     20 O5'        -3.4930    2.8620   -0.0940 os        1 G35     -0.753000
     21 OP3        -5.5800    4.2920   -0.0100 o         1 G35     -0.991500
     22 OP2        -5.6700    1.9620    0.7760 os        1 G35     -1.144000
     23 HN3         1.2920   -1.5910    2.1400 hn        1 G35      0.217000
     24 H4          2.7510   -0.9950    0.1780 h2        1 G35      0.112000
     25 HN7         0.1210   -3.3410   -1.7480 hn        1 G35      0.222000
     26 H1'         1.0280    0.7180    1.0610 h2        1 G35      0.050000
     27 HN11        5.0780   -2.7360    2.3330 hn        1 G35      0.178500
     28 HN1A        4.5070   -1.2790    2.0700 hn        1 G35      0.178500
     29 HN12        1.9660   -4.2300    2.5070 DU        1 G35      0.139000
     30 H2'         1.3690    2.1600   -0.5780 hc        1 G35      0.114000
     31 H2'A        1.3050    0.9140   -1.5720 hc        1 G35      0.114000
     32 H3'        -0.6640    1.2270   -2.0470 h1        1 G35      0.110000
     33 HO3'       -0.0580    3.1630   -2.6860 ho        1 G35      0.253000
     34 H4'        -1.2250    2.5950    0.5060 h1        1 G35      0.085000
     35 H5'        -3.1890    0.8860   -0.1490 h1        1 G35      0.080500
     36 H5'A       -2.7870    1.6390   -1.5050 h1        1 G35      0.080500
     37 OP1        -5.4530    2.4220   -1.6080 o         1 G35     -0.991500
@<TRIPOS>BOND
     1    1   20 1   
     2    1   21 1   
     3    1   37 1   
     4    2   12 1   
     5    2   13 1   
     6    3    4 1   
     7    3   23 1   
     8    4    5 1   
     9    4   10 1   
    10    4   24 1   
    11    5    6 1   
    12    5    7 1   
    13    7    8 1   
    14    7   25 1   
    15    8    9 1   
    16    8   10 1   
    17   10   11 1   
    18   11   14 1   
    19   11   18 1   
    20   11   26 1   
    21   12   27 1   
    22   12   28 1   
    23   14   15 1   
    24   14   30 1   
    25   14   31 1   
    26   15   16 1   
    27   15   17 1   
    28   15   32 1   
    29   16   33 1   
    30   17   18 1   
    31   17   19 1   
    32   17   34 1   
    33   19   20 1   
    34   19   35 1   
    35   19   36 1   
@<TRIPOS>SUBSTRUCTURE
     1 G35         1 TEMP              0 ****  ****    0 ROOT
