@<TRIPOS>MOLECULE
G35
   37    38     1     0     0
SMALL
bcc


@<TRIPOS>ATOM
      1 P          -3.3010    1.5240   -0.6870 p5        1 G35      1.326900
      2 C2          2.2710    1.9750   -0.6800 c2        1 G35      0.797100
      3 N3          2.4970    1.1660    0.5070 nh        1 G35     -0.780200
      4 C4          3.2260   -0.0700    0.3390 c3        1 G35      0.301900
      5 C5          3.8440   -0.4710    1.7380 c         1 G35      0.690500
      6 O5          4.6720    0.1510    2.4070 o         1 G35     -0.603500
      7 N7          3.3140   -1.7170    2.0710 n         1 G35     -0.633500
      8 C8          2.4870   -2.2230    1.0130 c         1 G35      0.808500
      9 O8          1.9860   -3.3610    1.0970 o         1 G35     -0.653500
     10 N9          2.5020   -1.3190   -0.0610 n         1 G35     -0.504800
     11 C1'         1.6140   -1.3200   -1.2220 c3        1 G35      0.316500
     12 N11         1.0950    2.7780   -0.6730 nh        1 G35     -0.920800
     13 N12         3.2250    2.0310   -1.5890 n2        1 G35     -0.939100
     14 C2'         0.6180   -2.4900   -1.3760 c3        1 G35     -0.129400
     15 C3'        -0.7500   -1.8950   -1.0060 c3        1 G35      0.154100
     16 O3'        -1.7380   -2.3350   -1.9130 oh        1 G35     -0.661800
     17 C4'        -0.5540   -0.3760   -1.0800 c3        1 G35      0.032100
     18 O4'         0.8510   -0.1190   -1.2670 os        1 G35     -0.452600
     19 C5'        -1.1210    0.3690    0.1470 c3        1 G35      0.228400
     20 O5'        -1.5950    1.6030   -0.2060 os        1 G35     -0.572200
     21 OP3        -3.4790    2.8170   -1.4190 o         1 G35     -0.925500
     22 OP2        -3.2000    0.2670   -1.5270 o         1 G35     -0.925500
     23 HN3         1.6460    1.0360    1.0280 hn        1 G35      0.414800
     24 H4          4.0740    0.0690   -0.3960 h2        1 G35      0.128700
     25 HN7         3.4700   -2.2180    2.9050 hn        1 G35      0.335500
     26 H1'         2.3230   -1.2600   -2.1040 h2        1 G35      0.060700
     27 HN11        0.3260    2.4460   -0.1070 hn        1 G35      0.429300
     28 HN1A        0.7620    2.9850   -1.5930 hn        1 G35      0.429300
     29 HN12        3.0260    2.6460   -2.3470 hn        1 G35      0.374400
     30 H2'         0.6160   -2.8060   -2.4490 hc        1 G35      0.068200
     31 H2'A        0.8620   -3.3750   -0.7480 hc        1 G35      0.068200
     32 H3'        -1.0440   -2.2220    0.0290 h1        1 G35      0.038700
     33 HO3'       -2.4380   -1.6370   -1.9140 ho        1 G35      0.500000
     34 H4'        -1.0710    0.0500   -1.9950 h1        1 G35      0.146700
     35 H5'        -1.9500   -0.2620    0.5820 h1        1 G35     -0.010800
     36 H5'A       -0.3030    0.4750    0.9200 h1        1 G35     -0.010800
     37 OP1        -3.9770    1.3460    0.6370 o         1 G35     -0.925500
@<TRIPOS>BOND
     1    1   20 1   
     2    1   21 1   
     3    1   22 1   
     4    1   37 1   
     5    2    3 1   
     6    2   12 1   
     7    2   13 2   
     8    3    4 1   
     9    3   23 1   
    10    4    5 1   
    11    4   10 1   
    12    4   24 1   
    13    5    6 2   
    14    5    7 1   
    15    7    8 1   
    16    7   25 1   
    17    8    9 2   
    18    8   10 1   
    19   10   11 1   
    20   11   14 1   
    21   11   18 1   
    22   11   26 1   
    23   12   27 1   
    24   12   28 1   
    25   13   29 1   
    26   14   15 1   
    27   14   30 1   
    28   14   31 1   
    29   15   16 1   
    30   15   17 1   
    31   15   32 1   
    32   16   33 1   
    33   17   18 1   
    34   17   19 1   
    35   17   34 1   
    36   19   20 1   
    37   19   35 1   
    38   19   36 1   
@<TRIPOS>SUBSTRUCTURE
     1 G35         1 TEMP              0 ****  ****    0 ROOT
