@<TRIPOS>MOLECULE
G36
   41    43     1     0     0
SMALL
bcc


@<TRIPOS>ATOM
      1 P          -4.8780    0.7620    1.1320 p5        1 G36      1.331900
      2 O1P        -4.1320    1.9100    1.7490 o         1 G36     -0.930500
      3 O2P        -6.3170    0.9570    0.7740 o         1 G36     -0.930500
      4 O3P        -4.4800   -0.5950    1.6780 o         1 G36     -0.930500
      5 O5'        -4.0800    0.6350   -0.4200 os        1 G36     -0.553200
      6 C5'        -2.7240    0.5050   -0.3280 c3        1 G36      0.227400
      7 C4'        -2.3010   -0.9670   -0.5490 c3        1 G36      0.052100
      8 O4'        -1.0640   -1.0180   -1.3110 os        1 G36     -0.435600
      9 C3'        -2.0830   -1.7570    0.7570 c3        1 G36      0.157100
     10 O3'        -3.0250   -2.7960    0.8890 oh        1 G36     -0.672800
     11 C2'        -0.6840   -2.3770    0.6280 c3        1 G36     -0.129400
     12 CM2         6.7040    3.1510    0.8860 c3        1 G36     -0.101100
     13 C1'        -0.0400   -1.6690   -0.5810 c3        1 G36      0.254800
     14 N9          0.9920   -0.6930   -0.2150 na        1 G36     -0.260000
     15 C8          0.7980    0.6420    0.2110 cc        1 G36      0.452700
     16 N7          1.9430    1.3240    0.4020 nd        1 G36     -0.554100
     17 C5          2.9600    0.4170    0.0810 ca        1 G36     -0.187200
     18 C6          4.3740    0.4740    0.0460 ca        1 G36      0.718600
     19 O6          4.9420    1.6760    0.4050 os        1 G36     -0.424100
     20 N1          5.1300   -0.5790   -0.3310 nb        1 G36     -0.843000
     21 C2          4.4620   -1.7570   -0.6700 ca        1 G36      0.845900
     22 N2          5.2880   -2.8830   -0.9540 nh        1 G36     -0.899500
     23 C1M         6.3760    1.7480    0.4230 c3        1 G36      0.136400
     24 N3          3.1030   -1.9570   -0.7060 nb        1 G36     -0.749000
     25 C4          2.3730   -0.8700   -0.3220 ca        1 G36      0.449800
     26 H5'1       -2.3510    0.8630    0.6750 h1        1 G36     -0.004300
     27 H5'2       -2.2250    1.1140   -1.1410 h1        1 G36     -0.004300
     28 H4'        -3.0620   -1.4800   -1.1970 h1        1 G36      0.081700
     29 H3'        -2.1510   -1.0740    1.6500 h1        1 G36      0.103700
     30 HA         -3.8560   -2.3530    1.1830 ho        1 G36      0.501000
     31 H2'1       -0.7620   -3.4700    0.4060 hc        1 G36      0.054200
     32 H2'2       -0.1010   -2.2520    1.5690 hc        1 G36      0.054200
     33 HM21        7.8110    3.2750    0.9230 hc        1 G36      0.042700
     34 HM22        6.2710    3.9040    0.1850 hc        1 G36      0.042700
     35 HM23        6.2770    3.3350    1.9010 hc        1 G36      0.042700
     36 H1'         0.4520   -2.3970   -1.2900 h2        1 G36      0.069700
     37 H8         -0.2290    1.0350    0.3490 h5        1 G36      0.127800
     38 H2N1        6.1720   -2.6310   -1.3410 hn        1 G36      0.388800
     39 H2N2        4.8210   -3.5840   -1.4900 hn        1 G36      0.388800
     40 H1M1        6.7750    1.5580   -0.6070 h1        1 G36      0.041700
     41 H1M2        6.7850    0.9810    1.1310 h1        1 G36      0.041700
@<TRIPOS>BOND
     1    1    2 1   
     2    1    3 1   
     3    1    4 1   
     4    1    5 1   
     5    5    6 1   
     6    6    7 1   
     7    6   26 1   
     8    6   27 1   
     9    7    8 1   
    10    7    9 1   
    11    7   28 1   
    12    8   13 1   
    13    9   10 1   
    14    9   11 1   
    15    9   29 1   
    16   10   30 1   
    17   11   13 1   
    18   11   31 1   
    19   11   32 1   
    20   12   23 1   
    21   12   33 1   
    22   12   34 1   
    23   12   35 1   
    24   13   14 1   
    25   13   36 1   
    26   14   15 1   
    27   14   25 1   
    28   15   16 2   
    29   15   37 1   
    30   16   17 1   
    31   17   18 ar  
    32   17   25 ar  
    33   18   19 1   
    34   18   20 ar  
    35   19   23 1   
    36   20   21 ar  
    37   21   22 1   
    38   21   24 ar  
    39   22   38 1   
    40   22   39 1   
    41   23   40 1   
    42   23   41 1   
    43   24   25 ar  
@<TRIPOS>SUBSTRUCTURE
     1 G36         1 TEMP              0 ****  ****    0 ROOT
