@<TRIPOS>MOLECULE
G36
   41    38     1     0     0
SMALL
bcc


@<TRIPOS>ATOM
      1 P           1.0050   -6.7600    1.0650 p4        1 G36      1.700200
      2 O1P         2.3380   -7.2060    0.4960 o         1 G36     -0.932000
      3 O2P         1.1740   -6.4020    2.5280 os        1 G36     -1.247000
      4 O3P         0.0030   -7.8790    0.9330 o         1 G36     -0.980800
      5 O5'         0.4870   -5.4850    0.2630 os        1 G36     -0.553200
      6 C5'         1.3160   -4.3560    0.1990 c3        1 G36      0.227400
      7 C4'         0.7200   -3.3400   -0.7800 c3        1 G36      0.052100
      8 O4'         0.0540   -2.4440   -0.1400 os        1 G36     -0.435600
      9 C3'         1.8670   -2.5540   -1.5130 c3        1 G36      0.157100
     10 O3'         1.9220   -2.9140   -2.8230 oh        1 G36     -0.672800
     11 C2'         1.5040   -1.1000   -1.3860 c3        1 G36     -0.129400
     12 CM2        -2.4410    5.7850    3.0090 c3        1 G36     -0.101100
     13 C1'         0.2490   -1.0940   -0.9430 c3        1 G36      0.254800
     14 N9          0.0370    0.0240   -0.0820 n3        1 G36     -0.103400
     15 C8         -0.0870   -0.0980    1.2610 c1        1 G36      0.217400
     16 N7         -0.4700    1.1080    1.7580 ne        1 G36     -0.399400
     17 C5         -0.5820    1.9780    0.7150 cg        1 G36     -0.144000
     18 C6         -0.9520    3.3190    0.6530 c1        1 G36      0.574400
     19 O6         -1.4360    3.9220    1.8550 os        1 G36     -0.282400
     20 N1         -0.9980    3.9480   -0.5330 n1        1 G36     -0.642800
     21 C2         -0.6820    3.2710   -1.6820 c1        1 G36      0.508600
     22 N2         -0.9840    4.0660   -2.8210 n3        1 G36     -0.762400
     23 C1M        -2.0340    5.2000    1.6590 c3        1 G36      0.136400
     24 N3         -0.3190    1.9540   -1.6230 n1        1 G36     -0.548800
     25 C4         -0.2700    1.3110   -0.4200 c1        1 G36      0.003700
     26 H5'1        1.3850   -3.9520    1.0860 h1        1 G36     -0.004300
     27 H5'2        2.2030   -4.6210   -0.1070 h1        1 G36     -0.004300
     28 H4'         0.1400   -3.7950   -1.4380 h1        1 G36      0.081700
     29 H3'         2.7230   -2.7260   -1.0790 h1        1 G36      0.103700
     30 HA          2.7600   -3.1500   -3.0330 ho        1 G36      0.501000
     31 H2'1        1.5580   -0.6610   -2.2530 hc        1 G36      0.054200
     32 H2'2        2.0950   -0.6560   -0.7400 hc        1 G36      0.054200
     33 HM21       -1.6440    5.9000    3.5690 hc        1 G36      0.042700
     34 HM22       -3.0680    5.1750    3.4540 hc        1 G36      0.042700
     35 HM23       -2.8750    6.6590    2.8710 hc        1 G36      0.042700
     36 H1'        -0.3720   -1.0590   -1.6960 h2        1 G36      0.069700
     37 H8          0.0190   -0.9240    1.7760 DU        1 G36      0.257000
     38 H2N1       -1.1710    4.9540   -2.7210 hn        1 G36      0.388800
     39 H2N2       -0.9570    3.6970   -3.6560 hn        1 G36      0.388800
     40 H1M1       -1.3930    5.7970    1.2260 h1        1 G36      0.041700
     41 H1M2       -2.8240    5.1060    1.0930 h1        1 G36      0.041700
@<TRIPOS>BOND
     1    1    2 1   
     2    1    4 2   
     3    1    5 1   
     4    5    6 1   
     5    6    7 1   
     6    6   26 1   
     7    6   27 1   
     8    7    8 1   
     9    7    9 1   
    10    7   28 1   
    11    8   13 1   
    12    9   10 1   
    13    9   11 1   
    14    9   29 1   
    15   10   30 1   
    16   11   13 1   
    17   11   31 1   
    18   11   32 1   
    19   12   23 1   
    20   12   33 1   
    21   12   34 1   
    22   12   35 1   
    23   13   14 1   
    24   13   36 1   
    25   14   15 2   
    26   14   25 1   
    27   15   16 2   
    28   16   17 1   
    29   17   25 3   
    30   18   19 1   
    31   18   20 3   
    32   19   23 1   
    33   21   22 1   
    34   21   24 3   
    35   22   38 1   
    36   22   39 1   
    37   23   40 1   
    38   23   41 1   
@<TRIPOS>SUBSTRUCTURE
     1 G36         1 TEMP              0 ****  ****    0 ROOT
