@<TRIPOS>MOLECULE
G38
   36    38     1     0     0
SMALL
bcc


@<TRIPOS>ATOM
      1 PA         -0.0510   -1.0710   -4.7150 p5        1 G38      1.324900
      2 O1A        -1.0250   -2.0110   -4.0610 o         1 G38     -0.929500
      3 O2A         1.3970   -1.3480   -4.3830 o         1 G38     -0.929500
      4 O3P        -0.3510   -0.5950   -6.1020 o         1 G38     -0.929500
      5 O5'        -0.2880    0.3700   -3.7490 os        1 G38     -0.551200
      6 C5'        -0.3580    0.1380   -2.4070 c3        1 G38      0.221400
      7 C4'         0.9470    0.6080   -1.7120 c3        1 G38      0.052100
      8 O4'         0.6150    1.3200   -0.4900 os        1 G38     -0.430600
      9 C3'         1.9150   -0.5460   -1.3440 c3        1 G38      0.164500
     10 C2'         2.2710   -0.2860    0.1400 c3        1 G38     -0.121400
     11 C1'         1.2050    0.7070    0.6390 c3        1 G38      0.247800
     12 N9          0.1610    0.0960    1.4700 na        1 G38     -0.182900
     13 C8         -1.0240   -0.5380    1.0470 cc        1 G38      0.453400
     14 N7         -1.8060   -0.9460    2.0740 nd        1 G38     -0.630000
     15 C5         -1.1170   -0.5630    3.2230 cd        1 G38      0.197800
     16 C6         -1.4440   -0.7330    4.6210 c         1 G38      0.645000
     17 O6         -2.4430   -1.2700    5.1330 o         1 G38     -0.641500
     18 N1         -0.4810   -0.1920    5.5130 n         1 G38     -0.499400
     19 C2          0.7050    0.4230    5.0650 cd        1 G38      0.596800
     20 N2          1.6230    0.8400    6.0950 nh        1 G38     -0.866800
     21 N3          1.0310    0.6090    3.7770 nc        1 G38     -0.624100
     22 C4          0.1190    0.0970    2.8640 cc        1 G38      0.049800
     23 N           3.0850   -0.7000   -2.1780 n3        1 G38     -0.926800
     24 H5'1       -0.5430   -0.9530   -2.1880 h1        1 G38      0.003700
     25 H5'2       -1.1980    0.7480   -1.9540 h1        1 G38      0.003700
     26 H4'         1.4400    1.3830   -2.3600 h1        1 G38      0.073700
     27 H3'         1.3370   -1.5170   -1.3990 h1        1 G38      0.089700
     28 H2'1        2.2830   -1.2410    0.7140 hc        1 G38      0.049700
     29 H2'2        3.2730    0.1960    0.2510 hc        1 G38      0.049700
     30 H1'         1.6530    1.5380    1.2620 h2        1 G38      0.065700
     31 H8         -1.2430   -0.6560   -0.0320 h5        1 G38      0.120100
     32 HN3        -0.6190   -0.3430    6.4870 hn        1 G38      0.322500
     33 H2N1        2.5090    1.1020    5.7060 hn        1 G38      0.382300
     34 H2N2        1.2360    1.6000    6.6200 hn        1 G38      0.382300
     35 HN1         2.8290   -1.2660   -2.9860 hn        1 G38      0.384300
     36 HN2         3.3730    0.1960   -2.5220 hn        1 G38      0.384300
@<TRIPOS>BOND
     1    1    2 1   
     2    1    3 1   
     3    1    4 1   
     4    1    5 1   
     5    5    6 1   
     6    6    7 1   
     7    6   24 1   
     8    6   25 1   
     9    7    8 1   
    10    7    9 1   
    11    7   26 1   
    12    8   11 1   
    13    9   10 1   
    14    9   23 1   
    15    9   27 1   
    16   10   11 1   
    17   10   28 1   
    18   10   29 1   
    19   11   12 1   
    20   11   30 1   
    21   12   13 1   
    22   12   22 1   
    23   13   14 2   
    24   13   31 1   
    25   14   15 1   
    26   15   16 1   
    27   15   22 2   
    28   16   17 2   
    29   16   18 1   
    30   18   19 1   
    31   18   32 1   
    32   19   20 1   
    33   19   21 2   
    34   20   33 1   
    35   20   34 1   
    36   21   22 1   
    37   23   35 1   
    38   23   36 1   
@<TRIPOS>SUBSTRUCTURE
     1 G38         1 TEMP              0 ****  ****    0 ROOT
