@<TRIPOS>MOLECULE
G39
   43    42     1     0     0
SMALL
bcc


@<TRIPOS>ATOM
      1 C1          2.0610   -1.3310    3.4490 c1        1 G39      0.353000
      2 O1A         3.3230   -1.3310    3.4490 o         1 G39     -0.569000
      3 O1B         1.4300   -1.3310    4.5420 os        1 G39     -0.554000
      4 C2          1.2970   -1.3480    2.1250 c2        1 G39     -0.097000
      5 C3          0.8280   -2.6190    1.5690 c3        1 G39     -0.135000
      6 C4          0.2910   -2.4700    0.0220 c3        1 G39     -0.041000
      7 C5         -0.5710   -1.5230   -0.1850 c3        1 G39     -0.009000
      8 N5         -1.8330   -1.8500    0.6090 n         1 G39     -0.362000
      9 C10        -2.9330   -2.5300   -0.0320 c2        1 G39      0.301000
     10 O10        -2.8550   -2.8420   -1.2050 o         1 G39     -0.401000
     11 C11        -4.2050   -2.8480    0.7620 c3        1 G39     -0.243000
     12 C6         -0.0790   -0.0040    0.2360 c3        1 G39      0.054000
     13 C7          0.4550    0.0490    1.6010 c2        1 G39     -0.273000
     14 O7          0.8660    0.5410   -0.7310 os        1 G39     -0.304000
     15 C8          0.6900    1.9560   -0.9890 c3        1 G39      0.042000
     16 C9          2.0370    2.6890   -0.7820 c3        1 G39     -0.180500
     17 C81         0.2110    2.1570   -2.4480 c3        1 G39     -0.180500
     18 C82        -0.7210    3.3750   -2.5190 c3        1 G39     -0.205500
     19 C91         1.7900    4.0210   -0.0600 c3        1 G39     -0.205500
     20 N4          1.4960   -2.2150   -0.8730 n3        1 G39     -0.321000
     21 H31         1.5310   -3.2780    1.7240 hc        1 G39      0.109500
     22 H32         0.0990   -3.0060    2.0900 hc        1 G39      0.109500
     23 H4         -0.1150   -3.3170   -0.2440 h1        1 G39      0.086000
     24 H5         -0.7980   -1.5180   -1.1340 h1        1 G39      0.123000
     25 HN5        -1.9070   -1.5820    1.4780 hn        1 G39      0.242000
     26 H111       -4.8660   -2.1460    0.6120 hc        1 G39      0.099000
     27 H112       -3.9910   -2.8960    1.7140 hc        1 G39      0.099000
     28 H113       -4.5680   -3.7050    0.4670 hc        1 G39      0.099000
     29 H6         -0.8190    0.6250    0.1420 h1        1 G39      0.068000
     30 H7          0.0610    0.6560    2.2560 ha        1 G39      0.136000
     31 H8          0.0230    2.3180   -0.3750 h1        1 G39      0.087000
     32 H91         2.4510    2.8610   -1.6490 hc        1 G39      0.096000
     33 H92         2.6310    2.1330   -0.2430 hc        1 G39      0.096000
     34 H811        0.9840    2.3040   -3.0260 hc        1 G39      0.096000
     35 H812       -0.2700    1.3610   -2.7450 hc        1 G39      0.096000
     36 H821       -1.2460    3.4310   -1.6980 hc        1 G39      0.067167
     37 H822       -0.1890    4.1870   -2.6210 hc        1 G39      0.067167
     38 H823       -1.3210    3.2810   -3.2830 hc        1 G39      0.067167
     39 H911        1.5420    4.7040   -0.7130 hc        1 G39      0.067167
     40 H912        2.6040    4.2960    0.4040 hc        1 G39      0.067167
     41 H913        1.0680    3.9120    0.5870 hc        1 G39      0.067167
     42 HN41        1.3050   -2.4830   -1.7230 hn        1 G39      0.142500
     43 HN42        2.2120   -2.6840   -0.5590 hn        1 G39      0.142500
@<TRIPOS>BOND
     1    1    2 1   
     2    1    4 1   
     3    4    5 1   
     4    4   13 1   
     5    5    6 1   
     6    5   21 1   
     7    5   22 1   
     8    6    7 1   
     9    6   20 1   
    10    6   23 1   
    11    7    8 1   
    12    7   12 1   
    13    7   24 1   
    14    8    9 1   
    15    8   25 1   
    16    9   10 1   
    17    9   11 1   
    18   11   26 1   
    19   11   27 1   
    20   11   28 1   
    21   12   13 1   
    22   12   14 1   
    23   12   29 1   
    24   13   30 1   
    25   14   15 1   
    26   15   16 1   
    27   15   17 1   
    28   15   31 1   
    29   16   19 1   
    30   16   32 1   
    31   16   33 1   
    32   17   18 1   
    33   17   34 1   
    34   17   35 1   
    35   18   36 1   
    36   18   37 1   
    37   18   38 1   
    38   19   39 1   
    39   19   40 1   
    40   19   41 1   
    41   20   42 1   
    42   20   43 1   
@<TRIPOS>SUBSTRUCTURE
     1 G39         1 TEMP              0 ****  ****    0 ROOT
