@<TRIPOS>MOLECULE
G39
   43    43     1     0     0
SMALL
bcc


@<TRIPOS>ATOM
      1 C1          3.6780   -0.5640   -0.0830 c         1 G39      0.903800
      2 O1A         3.7740   -1.8220   -0.0380 o         1 G39     -0.830300
      3 O1B         4.6650    0.2220   -0.1660 o         1 G39     -0.830300
      4 C2          2.2840    0.0540   -0.0590 ce        1 G39     -0.128400
      5 C3          2.2110    1.4910    0.2950 c3        1 G39     -0.051200
      6 C4          0.9200    2.1510   -0.2190 c3        1 G39      0.166500
      7 C5         -0.2950    1.2830    0.2510 c3        1 G39      0.099700
      8 N5         -1.5690    1.9150   -0.0180 n         1 G39     -0.542900
      9 C10        -2.4850    2.2010    0.9780 c         1 G39      0.657100
     10 O10        -2.2050    2.1670    2.1920 o         1 G39     -0.601100
     11 C11        -3.8650    2.6310    0.5220 c3        1 G39     -0.179100
     12 C6         -0.1700   -0.0910   -0.4750 c3        1 G39      0.168300
     13 C7          1.1960   -0.6670   -0.3540 c2        1 G39     -0.251200
     14 O7         -1.1790   -0.9250    0.1130 os        1 G39     -0.425600
     15 C8         -1.4030   -2.1610   -0.5690 c3        1 G39      0.143100
     16 C9         -1.4230   -3.2640    0.4900 c3        1 G39     -0.091400
     17 C81        -2.7550   -2.0940   -1.2820 c3        1 G39     -0.091400
     18 C82        -2.7330   -1.1750   -2.4740 c3        1 G39     -0.095100
     19 C91        -0.0390   -3.5910    0.9830 c3        1 G39     -0.095100
     20 N4          0.8160    3.5320    0.2230 n3        1 G39     -0.904800
     21 H31         2.2740    1.5850    1.4130 hc        1 G39      0.073200
     22 H32         3.1100    2.0140   -0.1350 hc        1 G39      0.073200
     23 H4          0.9410    2.0940   -1.3530 h1        1 G39      0.001700
     24 H5         -0.2080    1.1140    1.3650 h1        1 G39      0.114700
     25 HN5        -1.9280    1.7820   -0.9340 hn        1 G39      0.284500
     26 H111       -3.8010    3.5240   -0.1440 hc        1 G39      0.054033
     27 H112       -4.3670    1.7990   -0.0280 hc        1 G39      0.054033
     28 H113       -4.4740    2.8910    1.4210 hc        1 G39      0.054033
     29 H6         -0.4100    0.0350   -1.5740 h1        1 G39      0.015700
     30 H7          1.2940   -1.7480   -0.5490 ha        1 G39      0.149000
     31 H8         -0.5920   -2.3660   -1.3200 h1        1 G39      0.056700
     32 H91        -2.0610   -2.9250    1.3470 hc        1 G39      0.036700
     33 H92        -1.8980   -4.1780    0.0480 hc        1 G39      0.036700
     34 H811       -3.0340   -3.1290   -1.6130 hc        1 G39      0.036700
     35 H812       -3.5320   -1.7490   -0.5510 hc        1 G39      0.036700
     36 H821       -2.5380   -0.1240   -2.1490 hc        1 G39      0.036867
     37 H822       -1.9310   -1.4740   -3.1910 hc        1 G39      0.036867
     38 H823       -3.7140   -1.2040   -3.0070 hc        1 G39      0.036867
     39 H911        0.5940   -4.0010    0.1580 hc        1 G39      0.036867
     40 H912        0.4610   -2.6690    1.3730 hc        1 G39      0.036867
     41 H913       -0.0880   -4.3480    1.8020 hc        1 G39      0.036867
     42 HN41        1.7010    3.9880    0.1160 hn        1 G39      0.340800
     43 HN42        0.1270    4.0200   -0.3110 hn        1 G39      0.340800
@<TRIPOS>BOND
     1    1    2 1   
     2    1    3 1   
     3    1    4 1   
     4    4    5 1   
     5    4   13 2   
     6    5    6 1   
     7    5   21 1   
     8    5   22 1   
     9    6    7 1   
    10    6   20 1   
    11    6   23 1   
    12    7    8 1   
    13    7   12 1   
    14    7   24 1   
    15    8    9 1   
    16    8   25 1   
    17    9   10 2   
    18    9   11 1   
    19   11   26 1   
    20   11   27 1   
    21   11   28 1   
    22   12   13 1   
    23   12   14 1   
    24   12   29 1   
    25   13   30 1   
    26   14   15 1   
    27   15   16 1   
    28   15   17 1   
    29   15   31 1   
    30   16   19 1   
    31   16   32 1   
    32   16   33 1   
    33   17   18 1   
    34   17   34 1   
    35   17   35 1   
    36   18   36 1   
    37   18   37 1   
    38   18   38 1   
    39   19   39 1   
    40   19   40 1   
    41   19   41 1   
    42   20   42 1   
    43   20   43 1   
@<TRIPOS>SUBSTRUCTURE
     1 G39         1 TEMP              0 ****  ****    0 ROOT
