@<TRIPOS>MOLECULE
G39
   45    45     1     0     0
SMALL
bcc


@<TRIPOS>ATOM
      1 C1         -0.2950   -0.6430   -0.3010 c         1 G39      0.625300
      2 O1A         0.8560   -0.3290   -0.0010 o         1 G39     -0.453000
      3 O1B        -0.9750   -1.2670    0.7020 oh        1 G39     -0.550100
      4 C2         -0.9340   -0.3830   -1.6140 ce        1 G39     -0.189400
      5 C3         -2.4170   -0.3930   -1.6810 c3        1 G39     -0.080200
      6 C4         -2.9670    0.2670   -2.9590 c3        1 G39      0.173500
      7 C5         -2.1370   -0.2840   -4.1610 c3        1 G39      0.118500
      8 N5         -2.6880    0.1140   -5.4970 n4        1 G39     -0.668800
      9 C10        -3.9870   -0.5790   -5.8670 c         1 G39      0.580100
     10 O10        -4.8950    0.1760   -6.1730 o         1 G39     -0.408100
     11 C11        -3.9830   -2.0670   -5.8480 c3        1 G39     -0.178100
     12 C6         -0.6790    0.2290   -4.0140 c3        1 G39      0.155300
     13 C7         -0.1460   -0.1440   -2.6740 c2        1 G39     -0.113200
     14 O7          0.0360   -0.3770   -5.0840 os        1 G39     -0.454600
     15 C8          1.3220    0.2180   -5.3730 c3        1 G39      0.140100
     16 C9          2.3010   -0.9380   -5.5640 c3        1 G39     -0.100900
     17 C81         1.1980    1.0440   -6.6490 c3        1 G39     -0.100900
     18 C82         0.3810    2.2950   -6.4630 c3        1 G39     -0.096100
     19 C91         2.6770   -1.5850   -4.2570 c3        1 G39     -0.096100
     20 N4         -4.3790    0.0600   -3.1910 n3        1 G39     -0.957800
     21 H31        -2.7710   -1.4610   -1.6210 hc        1 G39      0.079700
     22 H32        -2.8410    0.1550   -0.7930 hc        1 G39      0.079700
     23 H4         -2.7630    1.3790   -2.8920 h1        1 G39      0.082700
     24 H5         -2.1260   -1.4140   -4.1350 hx        1 G39      0.117700
     25 HN5        -2.8420    1.1310   -5.5060 hn        1 G39      0.464300
     26 H111       -2.9990   -2.5020   -6.1530 hc        1 G39      0.110033
     27 H112       -4.7770   -2.4320   -6.5540 hc        1 G39      0.110033
     28 H113       -4.2400   -2.4190   -4.8150 hc        1 G39      0.110033
     29 H6         -0.6400    1.3560   -4.1130 h1        1 G39      0.078700
     30 H7          0.9580   -0.1870   -2.5920 ha        1 G39      0.191000
     31 H8          1.6490    0.8680   -4.5160 h1        1 G39      0.063700
     32 H91         1.8400   -1.6980   -6.2480 hc        1 G39      0.066200
     33 H92         3.2200   -0.5370   -6.0670 hc        1 G39      0.066200
     34 H811        2.2330    1.3250   -6.9820 hc        1 G39      0.066200
     35 H812        0.7480    0.4080   -7.4560 hc        1 G39      0.066200
     36 H821       -0.6830    2.0420   -6.2290 hc        1 G39      0.038700
     37 H822        0.7860    2.9190   -5.6300 hc        1 G39      0.038700
     38 H823        0.3950    2.9070   -7.3980 hc        1 G39      0.038700
     39 H911        3.1590   -0.8480   -3.5690 hc        1 G39      0.038700
     40 H912        1.7720   -2.0020   -3.7520 hc        1 G39      0.038700
     41 H913        3.3970   -2.4200   -4.4370 hc        1 G39      0.038700
     42 HN41       -4.7220   -0.7640   -2.7400 hn        1 G39      0.391300
     43 HN42       -1.8450   -1.5610    0.4030 ho        1 G39      0.425000
     44 H52        -1.9690   -0.1130   -6.2020 hn        1 G39      0.464300
     45 H43        -4.9230    0.8530   -2.9140 hn        1 G39      0.391300
@<TRIPOS>BOND
     1    1    2 2   
     2    1    3 1   
     3    1    4 1   
     4    3   43 1   
     5    4    5 1   
     6    4   13 2   
     7    5    6 1   
     8    5   21 1   
     9    5   22 1   
    10    6    7 1   
    11    6   20 1   
    12    6   23 1   
    13    7    8 1   
    14    7   12 1   
    15    7   24 1   
    16    8    9 1   
    17    8   25 1   
    18    8   44 1   
    19    9   10 2   
    20    9   11 1   
    21   11   26 1   
    22   11   27 1   
    23   11   28 1   
    24   12   13 1   
    25   12   14 1   
    26   12   29 1   
    27   13   30 1   
    28   14   15 1   
    29   15   16 1   
    30   15   17 1   
    31   15   31 1   
    32   16   19 1   
    33   16   32 1   
    34   16   33 1   
    35   17   18 1   
    36   17   34 1   
    37   17   35 1   
    38   18   36 1   
    39   18   37 1   
    40   18   38 1   
    41   19   39 1   
    42   19   40 1   
    43   19   41 1   
    44   20   42 1   
    45   20   45 1   
@<TRIPOS>SUBSTRUCTURE
     1 G39         1 TEMP              0 ****  ****    0 ROOT
