@<TRIPOS>MOLECULE
G39
   45    45     1     0     0
SMALL
bcc


@<TRIPOS>ATOM
      1 C1         -0.2710   -0.5420   -0.2950 c         1 G39      0.625300
      2 O1A         0.8840   -0.2270   -0.0120 o         1 G39     -0.453000
      3 O1B        -0.9470   -1.1350    0.7280 oh        1 G39     -0.550100
      4 C2         -0.9170   -0.3130   -1.6110 ce        1 G39     -0.189400
      5 C3         -2.4010   -0.3150   -1.6670 c3        1 G39     -0.080200
      6 C4         -2.9550    0.3150   -2.9580 c3        1 G39      0.173500
      7 C5         -2.1370   -0.2730   -4.1520 c3        1 G39      0.118500
      8 N5         -2.6950    0.0930   -5.4930 n4        1 G39     -0.668800
      9 C10        -4.0000   -0.6010   -5.8370 c         1 G39      0.580100
     10 O10        -4.9060    0.1510   -6.1560 o         1 G39     -0.408100
     11 C11        -4.0060   -2.0880   -5.7780 c3        1 G39     -0.178100
     12 C6         -0.6750    0.2340   -4.0280 c3        1 G39      0.155300
     13 C7         -0.1340   -0.1070   -2.6820 c2        1 G39     -0.113200
     14 O7          0.0290   -0.4050   -5.0870 os        1 G39     -0.454600
     15 C8          1.3170    0.1730   -5.4000 c3        1 G39      0.140100
     16 C9          2.2860   -0.9940   -5.5660 c3        1 G39     -0.100900
     17 C81         1.1890    0.9670   -6.6960 c3        1 G39     -0.100900
     18 C82         0.3820    2.2270   -6.5380 c3        1 G39     -0.096100
     19 C91         2.6670   -1.6080   -4.2450 c3        1 G39     -0.096100
     20 N4         -4.3700    0.1120   -3.1750 n3        1 G39     -0.957800
     21 H31        -2.8140    0.2590   -0.7920 hc        1 G39      0.079700
     22 H32        -2.7610   -1.3780   -1.5770 hc        1 G39      0.079700
     23 H4         -2.7430    1.4270   -2.9220 h1        1 G39      0.082700
     24 H5         -2.1330   -1.4020   -4.0960 hx        1 G39      0.117700
     25 HN5        -1.9820   -0.1570   -6.1970 hn        1 G39      0.464300
     26 H111       -3.0270   -2.5370   -6.0780 hc        1 G39      0.110033
     27 H112       -4.8080   -2.4660   -6.4680 hc        1 G39      0.110033
     28 H113       -4.2580   -2.4100   -4.7340 hc        1 G39      0.110033
     29 H6         -0.6290    1.3580   -4.1570 h1        1 G39      0.078700
     30 H7          0.9700   -0.1550   -2.6070 ha        1 G39      0.191000
     31 H8          1.6540    0.8440   -4.5630 h1        1 G39      0.063700
     32 H91         3.2050   -0.6130   -6.0860 hc        1 G39      0.066200
     33 H92         1.8160   -1.7680   -6.2270 hc        1 G39      0.066200
     34 H811        0.7300    0.3120   -7.4830 hc        1 G39      0.066200
     35 H812        2.2240    1.2320   -7.0430 hc        1 G39      0.066200
     36 H821        0.3930    2.8150   -7.4890 hc        1 G39      0.038700
     37 H822        0.7960    2.8700   -5.7240 hc        1 G39      0.038700
     38 H823       -0.6820    1.9870   -6.2900 hc        1 G39      0.038700
     39 H911        1.7630   -2.0060   -3.7230 hc        1 G39      0.038700
     40 H912        3.1590   -0.8570   -3.5800 hc        1 G39      0.038700
     41 H913        3.3810   -2.4530   -4.4080 hc        1 G39      0.038700
     42 HN41       -4.9060    0.9150   -2.9160 hn        1 G39      0.391300
     43 HN42       -1.8210   -1.4320    0.4420 ho        1 G39      0.425000
     44 H52        -2.8420    1.1100   -5.5280 hn        1 G39      0.464300
     45 H43        -4.7150   -0.6980   -2.7000 hn        1 G39      0.391300
@<TRIPOS>BOND
     1    1    2 2   
     2    1    3 1   
     3    1    4 1   
     4    3   43 1   
     5    4    5 1   
     6    4   13 2   
     7    5    6 1   
     8    5   21 1   
     9    5   22 1   
    10    6    7 1   
    11    6   20 1   
    12    6   23 1   
    13    7    8 1   
    14    7   12 1   
    15    7   24 1   
    16    8    9 1   
    17    8   25 1   
    18    8   44 1   
    19    9   10 2   
    20    9   11 1   
    21   11   26 1   
    22   11   27 1   
    23   11   28 1   
    24   12   13 1   
    25   12   14 1   
    26   12   29 1   
    27   13   30 1   
    28   14   15 1   
    29   15   16 1   
    30   15   17 1   
    31   15   31 1   
    32   16   19 1   
    33   16   32 1   
    34   16   33 1   
    35   17   18 1   
    36   17   34 1   
    37   17   35 1   
    38   18   36 1   
    39   18   37 1   
    40   18   38 1   
    41   19   39 1   
    42   19   40 1   
    43   19   41 1   
    44   20   42 1   
    45   20   45 1   
@<TRIPOS>SUBSTRUCTURE
     1 G39         1 TEMP              0 ****  ****    0 ROOT
