@<TRIPOS>MOLECULE
G39
   45    45     1     0     0
SMALL
bcc


@<TRIPOS>ATOM
      1 C1         -0.2860   -0.7130   -0.3110 c         1 G39      0.625300
      2 O1A         0.8700   -0.4160   -0.0110 o         1 G39     -0.453000
      3 O1B        -0.9690   -1.3460    0.6840 oh        1 G39     -0.550100
      4 C2         -0.9260   -0.4240   -1.6180 ce        1 G39     -0.189400
      5 C3         -2.4100   -0.4160   -1.6790 c3        1 G39     -0.080200
      6 C4         -2.9570    0.2700   -2.9430 c3        1 G39      0.173500
      7 C5         -2.1370   -0.2700   -4.1580 c3        1 G39      0.118500
      8 N5         -2.6890    0.1560   -5.4850 ny        1 G39     -0.668800
      9 C10        -3.9970   -0.5160   -5.8620 c         1 G39      0.580100
     10 O10        -4.8980    0.2540   -6.1510 o         1 G39     -0.408100
     11 C11        -4.0100   -2.0040   -5.8670 c3        1 G39     -0.178100
     12 C6         -0.6730    0.2250   -4.0080 c3        1 G39      0.155300
     13 C7         -0.1390   -0.1770   -2.6770 c2        1 G39     -0.113200
     14 O7          0.0300   -0.3730   -5.0910 os        1 G39     -0.454600
     15 C8          1.3220    0.2120   -5.3750 c3        1 G39      0.140100
     16 C9          2.2870   -0.9510   -5.5880 c3        1 G39     -0.100900
     17 C81         1.2030    1.0610   -6.6370 c3        1 G39     -0.100900
     18 C82         0.4010    2.3180   -6.4280 c3        1 G39     -0.096100
     19 C91         2.6610   -1.6230   -4.2930 c3        1 G39     -0.096100
     20 N4         -4.3720    0.0840   -3.1730 n8        1 G39     -0.957800
     21 H31        -2.7760   -1.4810   -1.6350 hc        1 G39      0.079700
     22 H32        -2.8240    0.1210   -0.7810 hc        1 G39      0.079700
     23 H4         -2.7390    1.3790   -2.8590 h1        1 G39      0.082700
     24 H5         -2.1390   -1.4000   -4.1510 hx        1 G39      0.117700
     25 HN5        -1.9750   -0.0670   -6.1960 hn        1 G39      0.464300
     26 H111       -3.0320   -2.4450   -6.1820 hc        1 G39      0.110033
     27 H112       -4.8110   -2.3480   -6.5750 hc        1 G39      0.110033
     28 H113       -4.2670   -2.3700   -4.8380 hc        1 G39      0.110033
     29 H6         -0.6220    1.3520   -4.0880 h1        1 G39      0.078700
     30 H7          0.9650   -0.2330   -2.5990 ha        1 G39      0.191000
     31 H8          1.6600    0.8450   -4.5090 h1        1 G39      0.063700
     32 H91         3.2090   -0.5530   -6.0880 hc        1 G39      0.066200
     33 H92         1.8150   -1.6940   -6.2820 hc        1 G39      0.066200
     34 H811        2.2400    1.3350   -6.9690 hc        1 G39      0.066200
     35 H812        0.7430    0.4430   -7.4520 hc        1 G39      0.066200
     36 H821        0.8170    2.9230   -5.5860 hc        1 G39      0.038700
     37 H822        0.4180    2.9450   -7.3520 hc        1 G39      0.038700
     38 H823       -0.6640    2.0730   -6.1930 hc        1 G39      0.038700
     39 H911        3.3710   -2.4630   -4.4900 hc        1 G39      0.038700
     40 H912        1.7530   -2.0390   -3.7910 hc        1 G39      0.038700
     41 H913        3.1540   -0.9040   -3.5950 hc        1 G39      0.038700
     42 HN41       -1.8430   -1.6250    0.3830 ho        1 G39      0.425000
     43 HN42       -4.7230   -0.7440   -2.7350 hn        1 G39      0.391300
     44 H52        -2.8310    1.1750   -5.4770 hn        1 G39      0.464300
     45 H43        -4.9050    0.8780   -2.8820 hn        1 G39      0.391300
@<TRIPOS>BOND
     1    1    2 2   
     2    1    3 1   
     3    1    4 1   
     4    3   42 1   
     5    4    5 1   
     6    4   13 2   
     7    5    6 1   
     8    5   21 1   
     9    5   22 1   
    10    6    7 1   
    11    6   20 1   
    12    6   23 1   
    13    7    8 1   
    14    7   12 1   
    15    7   24 1   
    16    8    9 1   
    17    8   25 1   
    18    8   44 1   
    19    9   10 2   
    20    9   11 1   
    21   11   26 1   
    22   11   27 1   
    23   11   28 1   
    24   12   13 1   
    25   12   14 1   
    26   12   29 1   
    27   13   30 1   
    28   14   15 1   
    29   15   16 1   
    30   15   17 1   
    31   15   31 1   
    32   16   19 1   
    33   16   32 1   
    34   16   33 1   
    35   17   18 1   
    36   17   34 1   
    37   17   35 1   
    38   18   36 1   
    39   18   37 1   
    40   18   38 1   
    41   19   39 1   
    42   19   40 1   
    43   19   41 1   
    44   20   43 1   
    45   20   45 1   
@<TRIPOS>SUBSTRUCTURE
     1 G39         1 TEMP              0 ****  ****    0 ROOT
