@<TRIPOS>MOLECULE
G3B
   38    41     1     0     0
SMALL
bcc


@<TRIPOS>ATOM
      1 O21        -0.1790   -0.1190    0.6240 o         1 G3B     -0.509200
      2 S24         1.0890    0.0150   -0.1470 sx        1 G3B      0.325400
      3 C18         2.2880    0.5060    1.0150 c3        1 G3B     -0.128800
      4 C14         1.6120   -1.5770   -0.5020 ca        1 G3B     -0.130500
      5 C5          0.8490   -2.6930   -0.1470 ca        1 G3B     -0.054500
      6 C6          2.7860   -1.7700   -1.2380 ca        1 G3B     -0.054500
      7 C3          3.1870   -3.0450   -1.6180 ca        1 G3B     -0.138000
      8 C10         2.4170   -4.1650   -1.2620 ca        1 G3B      0.012200
      9 C2          1.2410   -3.9750   -0.5230 ca        1 G3B     -0.138000
     10 C12         2.8360   -5.4860   -1.6690 cc        1 G3B     -0.072400
     11 C9          2.6800   -6.7300   -0.9210 ca        1 G3B     -0.102800
     12 C13         3.2460   -7.7480   -1.7500 ca        1 G3B      0.077100
     13 O22         3.7270   -7.1950   -2.9360 os        1 G3B     -0.192200
     14 C8          3.4650   -5.8210   -2.8510 cd        1 G3B      0.005100
     15 C4          3.2940   -9.0900   -1.3840 ca        1 G3B     -0.126000
     16 C7          2.1600   -7.0790    0.3210 ca        1 G3B     -0.034000
     17 C11         2.2030   -8.4290    0.6990 ca        1 G3B     -0.153500
     18 C1          2.7600   -9.4160   -0.1420 ca        1 G3B     -0.079000
     19 C15         1.6630   -8.8140    1.9860 cc        1 G3B      0.513900
     20 O23         1.7270  -10.1670    2.3690 os        1 G3B     -0.396800
     21 C16         1.1260  -10.1820    3.6400 cc        1 G3B      0.457700
     22 C17         1.0300  -11.4730    4.3350 c3        1 G3B     -0.124400
     23 N20         0.7460   -8.9280    3.9600 nd        1 G3B     -0.345000
     24 N19         1.0650   -8.1090    2.9740 nd        1 G3B     -0.346000
     25 H18         3.3150    0.2630    0.6620 h1        1 G3B      0.084700
     26 H18A        2.1520    0.0450    2.0200 h1        1 G3B      0.084700
     27 H18B        2.2140    1.6120    1.1470 h1        1 G3B      0.084700
     28 H5         -0.0780   -2.5440    0.4370 ha        1 G3B      0.149000
     29 H6          3.4040   -0.9020   -1.5200 ha        1 G3B      0.149000
     30 H3          4.1150   -3.1830   -2.1930 ha        1 G3B      0.140000
     31 H2          0.6220   -4.8420   -0.2440 ha        1 G3B      0.140000
     32 H8          3.7880   -5.2600   -3.7250 h4        1 G3B      0.197000
     33 H4          3.7340   -9.8490   -2.0450 ha        1 G3B      0.159000
     34 H7          1.7330   -6.3160    0.9900 ha        1 G3B      0.170000
     35 H1          2.7710  -10.4640    0.1970 ha        1 G3B      0.154000
     36 H17        -0.0440  -11.7150    4.5330 hc        1 G3B      0.074033
     37 H17A        1.4810  -12.2820    3.7080 hc        1 G3B      0.074033
     38 H17B        1.5730  -11.4160    5.3120 hc        1 G3B      0.074033
@<TRIPOS>BOND
     1    1    2 2   
     2    2    3 1   
     3    2    4 1   
     4    3   25 1   
     5    3   26 1   
     6    3   27 1   
     7    4    5 ar  
     8    4    6 ar  
     9    5    9 ar  
    10    5   28 1   
    11    6    7 ar  
    12    6   29 1   
    13    7    8 ar  
    14    7   30 1   
    15    8    9 ar  
    16    8   10 1   
    17    9   31 1   
    18   10   11 1   
    19   10   14 2   
    20   11   12 ar  
    21   11   16 ar  
    22   12   13 1   
    23   12   15 ar  
    24   13   14 1   
    25   14   32 1   
    26   15   18 ar  
    27   15   33 1   
    28   16   17 ar  
    29   16   34 1   
    30   17   18 ar  
    31   17   19 1   
    32   18   35 1   
    33   19   20 1   
    34   19   24 2   
    35   20   21 1   
    36   21   22 1   
    37   21   23 2   
    38   22   36 1   
    39   22   37 1   
    40   22   38 1   
    41   23   24 1   
@<TRIPOS>SUBSTRUCTURE
     1 G3B         1 TEMP              0 ****  ****    0 ROOT
