@<TRIPOS>MOLECULE
G3B
   38    30     1     0     0
SMALL
bcc


@<TRIPOS>ATOM
      1 O21        -4.9660    2.4820    4.2770 o         1 G3B     -0.784000
      2 S24        -4.0060    1.4380    4.0480 ss        1 G3B      1.452000
      3 C18        -3.7230    0.2060    5.2920 c2        1 G3B     -0.410000
      4 C14        -3.0840    1.3980    2.5340 c2        1 G3B     -0.559000
      5 C5         -3.5470    0.6540    1.4600 c2        1 G3B     -0.062000
      6 C6         -1.9210    2.1420    2.4110 c1        1 G3B     -0.047000
      7 C3         -1.2210    2.1420    1.2150 c1        1 G3B     -0.115000
      8 C10        -1.6840    1.3980    0.1410 c1        1 G3B      0.003000
      9 C2         -2.8470    0.6550    0.2630 c1        1 G3B     -0.136000
     10 C12        -0.9700    1.3770   -1.0460 c1        1 G3B     -0.098000
     11 C9          0.2230    0.8700   -1.5370 c1        1 G3B     -0.091000
     12 C13         0.5990    1.6380   -2.6120 c1        1 G3B      0.003000
     13 O22        -0.3630    2.6260   -2.7910 o         1 G3B     -0.103000
     14 C8         -1.3260    2.4620   -1.8260 c1        1 G3B     -0.036000
     15 C4          1.7800    1.3380   -3.3100 c1        1 G3B     -0.115000
     16 C7          1.0200   -0.2150   -1.1360 c1        1 G3B     -0.035000
     17 C11         2.1870   -0.5110   -1.8270 c1        1 G3B      0.003000
     18 C1          2.5670    0.2660   -2.9130 c1        1 G3B     -0.115000
     19 C15         3.0300   -1.5640   -1.5060 c1        1 G3B     -0.006000
     20 O23         3.2090   -2.6870   -2.2330 os        1 G3B     -0.137000
     21 C16         4.1400   -3.4410   -1.6130 c1        1 G3B     -0.006000
     22 C17         4.6670   -4.7770   -2.0940 c2        1 G3B     -0.410000
     23 N20         4.5350   -2.7880   -0.5080 n2        1 G3B     -0.085500
     24 N19         3.8470   -1.6250   -0.4410 n2        1 G3B     -0.085500
     25 H18        -2.7980   -0.1120    5.2320 ha        1 G3B      0.119167
     26 H18A       -4.3360   -0.5460    5.1530 ha        1 G3B      0.119167
     27 H18B       -3.8780    0.5950    6.1780 ha        1 G3B      0.119167
     28 H5         -4.3660    0.1300    1.5460 ha        1 G3B      0.131000
     29 H6         -1.5940    2.6650    3.1680 ha        1 G3B      0.167000
     30 H3         -0.4020    2.6660    1.1290 ha        1 G3B      0.150000
     31 H2         -3.1740    0.1310   -0.4930 ha        1 G3B      0.143000
     32 H8         -2.1320    3.0030   -1.7230 DU        1 G3B      0.199000
     33 H4          2.0480    1.8830   -4.0740 ha        1 G3B      0.150000
     34 H7          0.7530   -0.7610   -0.3720 ha        1 G3B      0.168000
     35 H1          3.3880    0.0570   -3.3990 ha        1 G3B      0.150000
     36 H17         4.9710   -4.6940   -3.0220 ha        1 G3B      0.119167
     37 H17A        5.4180   -5.0550   -1.5280 ha        1 G3B      0.119167
     38 H17B        3.9540   -5.4480   -2.0420 ha        1 G3B      0.119167
@<TRIPOS>BOND
     1    1    2 1   
     2    2    4 1   
     3    3   25 1   
     4    3   26 1   
     5    3   27 1   
     6    4    5 1   
     7    4    6 1   
     8    5    9 1   
     9    5   28 1   
    10    6   29 1   
    11    7    8 1   
    12    7   30 1   
    13    9   31 1   
    14   10   11 1   
    15   10   14 1   
    16   11   16 1   
    17   12   15 1   
    18   13   14 1   
    19   15   33 1   
    20   16   34 1   
    21   17   18 1   
    22   18   35 1   
    23   19   20 1   
    24   19   24 1   
    25   20   21 1   
    26   21   23 1   
    27   22   36 1   
    28   22   37 1   
    29   22   38 1   
    30   23   24 1   
@<TRIPOS>SUBSTRUCTURE
     1 G3B         1 TEMP              0 ****  ****    0 ROOT
