@<TRIPOS>MOLECULE
G3B
   38    41     1     0     0
SMALL
bcc


@<TRIPOS>ATOM
      1 O21         5.1600    2.5540   -1.1610 o         1 G3B     -0.509200
      2 S24         5.4590    1.4040   -0.2620 sx        1 G3B      0.325400
      3 C18         5.5880    2.0850    1.3350 c3        1 G3B     -0.128800
      4 C14         4.0040    0.5100   -0.1180 ca        1 G3B     -0.130500
      5 C5          2.8570    0.8620   -0.8330 ca        1 G3B     -0.054500
      6 C6          3.9810   -0.6490    0.6650 ca        1 G3B     -0.054500
      7 C3          2.8420   -1.4430    0.7290 ca        1 G3B     -0.138000
      8 C10         1.6900   -1.0880    0.0060 ca        1 G3B      0.012200
      9 C2          1.7100    0.0740   -0.7780 ca        1 G3B     -0.138000
     10 C12         0.5140   -1.9230    0.0700 cc        1 G3B     -0.072400
     11 C9         -0.8790   -1.4880    0.0420 ca        1 G3B     -0.102800
     12 C13        -1.6560   -2.6860    0.1240 ca        1 G3B      0.077100
     13 O22        -0.8210   -3.8010    0.2000 os        1 G3B     -0.192200
     14 C8          0.4880   -3.3000    0.1680 cd        1 G3B      0.005100
     15 C4         -3.0480   -2.6940    0.1300 ca        1 G3B     -0.126000
     16 C7         -1.5320   -0.2620   -0.0220 ca        1 G3B     -0.034000
     17 C11        -2.9340   -0.2580   -0.0170 ca        1 G3B     -0.153500
     18 C1         -3.6770   -1.4560    0.0560 ca        1 G3B     -0.079000
     19 C15        -3.6320    1.0080   -0.0880 cc        1 G3B      0.513900
     20 O23        -5.0400    1.0070   -0.0630 os        1 G3B     -0.396800
     21 C16        -5.3750    2.3690   -0.1480 cc        1 G3B      0.457700
     22 C17        -6.8020    2.7230   -0.1460 c3        1 G3B     -0.124400
     23 N20        -4.2420    3.0970   -0.2170 nd        1 G3B     -0.345000
     24 N19        -3.1990    2.2860   -0.1820 nd        1 G3B     -0.346000
     25 H18         4.8800    2.9250    1.5220 h1        1 G3B      0.084700
     26 H18A        5.4180    1.3130    2.1180 h1        1 G3B      0.084700
     27 H18B        6.6190    2.4910    1.4590 h1        1 G3B      0.084700
     28 H5          2.8710    1.7790   -1.4510 ha        1 G3B      0.149000
     29 H6          4.8740   -0.9380    1.2420 ha        1 G3B      0.149000
     30 H3          2.8350   -2.3500    1.3520 ha        1 G3B      0.140000
     31 H2          0.8180    0.3600   -1.3560 ha        1 G3B      0.140000
     32 H8          1.2520   -4.0730    0.2150 h4        1 G3B      0.197000
     33 H4         -3.6150   -3.6310    0.1920 ha        1 G3B      0.159000
     34 H7         -0.9620    0.6800   -0.0690 ha        1 G3B      0.170000
     35 H1         -4.7780   -1.4040    0.0560 ha        1 G3B      0.154000
     36 H17        -7.0230    3.3930    0.7230 hc        1 G3B      0.074033
     37 H17A       -7.0570    3.2640   -1.0920 hc        1 G3B      0.074033
     38 H17B       -7.4270    1.7990   -0.0690 hc        1 G3B      0.074033
@<TRIPOS>BOND
     1    1    2 2   
     2    2    3 1   
     3    2    4 1   
     4    3   25 1   
     5    3   26 1   
     6    3   27 1   
     7    4    5 ar  
     8    4    6 ar  
     9    5    9 ar  
    10    5   28 1   
    11    6    7 ar  
    12    6   29 1   
    13    7    8 ar  
    14    7   30 1   
    15    8    9 ar  
    16    8   10 1   
    17    9   31 1   
    18   10   11 1   
    19   10   14 2   
    20   11   12 ar  
    21   11   16 ar  
    22   12   13 1   
    23   12   15 ar  
    24   13   14 1   
    25   14   32 1   
    26   15   18 ar  
    27   15   33 1   
    28   16   17 ar  
    29   16   34 1   
    30   17   18 ar  
    31   17   19 1   
    32   18   35 1   
    33   19   20 1   
    34   19   24 2   
    35   20   21 1   
    36   21   22 1   
    37   21   23 2   
    38   22   36 1   
    39   22   37 1   
    40   22   38 1   
    41   23   24 1   
@<TRIPOS>SUBSTRUCTURE
     1 G3B         1 TEMP              0 ****  ****    0 ROOT
