@<TRIPOS>MOLECULE
G3B
   38    41     1     0     0
SMALL
bcc


@<TRIPOS>ATOM
      1 O21        -0.1580   -0.1110    0.6320 o         1 G3B     -0.509200
      2 S24         1.1070    0.0190   -0.1430 sx        1 G3B      0.325400
      3 C18         2.3120    0.5060    1.0140 c3        1 G3B     -0.128800
      4 C14         1.6230   -1.5750   -0.5000 ca        1 G3B     -0.130500
      5 C5          0.8580   -2.6880   -0.1420 ca        1 G3B     -0.054500
      6 C6          2.7940   -1.7720   -1.2400 ca        1 G3B     -0.054500
      7 C3          3.1890   -3.0490   -1.6220 ca        1 G3B     -0.138000
      8 C10         2.4160   -4.1660   -1.2630 ca        1 G3B      0.012200
      9 C2          1.2440   -3.9720   -0.5190 ca        1 G3B     -0.138000
     10 C12         2.8290   -5.4880   -1.6710 cc        1 G3B     -0.072400
     11 C9          2.6710   -6.7320   -0.9230 ca        1 G3B     -0.102800
     12 C13         3.2300   -7.7520   -1.7540 ca        1 G3B      0.077100
     13 O22         3.7090   -7.2010   -2.9430 os        1 G3B     -0.192200
     14 C8          3.4520   -5.8250   -2.8560 cd        1 G3B      0.005100
     15 C4          3.2760   -9.0940   -1.3890 ca        1 G3B     -0.126000
     16 C7          2.1550   -7.0790    0.3210 ca        1 G3B     -0.034000
     17 C11         2.1950   -8.4290    0.6990 ca        1 G3B     -0.153500
     18 C1          2.7450   -9.4180   -0.1450 ca        1 G3B     -0.079000
     19 C15         1.6580   -8.8120    1.9870 cc        1 G3B      0.513900
     20 O23         1.7200  -10.1660    2.3700 os        1 G3B     -0.396800
     21 C16         1.1230  -10.1780    3.6430 cc        1 G3B      0.457700
     22 C17         1.0260  -11.4700    4.3390 c3        1 G3B     -0.124400
     23 N20         0.7480   -8.9240    3.9650 nd        1 G3B     -0.345000
     24 N19         1.0660   -8.1060    2.9770 nd        1 G3B     -0.346000
     25 H18         3.3380    0.2590    0.6580 h1        1 G3B      0.084700
     26 H18A        2.1790    0.0450    2.0200 h1        1 G3B      0.084700
     27 H18B        2.2430    1.6110    1.1470 h1        1 G3B      0.084700
     28 H5         -0.0660   -2.5360    0.4460 ha        1 G3B      0.149000
     29 H6          3.4140   -0.9070   -1.5250 ha        1 G3B      0.149000
     30 H3          4.1140   -3.1900   -2.2010 ha        1 G3B      0.140000
     31 H2          0.6230   -4.8370   -0.2380 ha        1 G3B      0.140000
     32 H8          3.7740   -5.2650   -3.7310 h4        1 G3B      0.197000
     33 H4          3.7100   -9.8540   -2.0510 ha        1 G3B      0.159000
     34 H7          1.7330   -6.3140    0.9920 ha        1 G3B      0.170000
     35 H1          2.7540  -10.4670    0.1940 ha        1 G3B      0.154000
     36 H17        -0.0490  -11.7100    4.5380 hc        1 G3B      0.074033
     37 H17A        1.4750  -12.2790    3.7120 hc        1 G3B      0.074033
     38 H17B        1.5700  -11.4130    5.3150 hc        1 G3B      0.074033
@<TRIPOS>BOND
     1    1    2 2   
     2    2    3 1   
     3    2    4 1   
     4    3   25 1   
     5    3   26 1   
     6    3   27 1   
     7    4    5 ar  
     8    4    6 ar  
     9    5    9 ar  
    10    5   28 1   
    11    6    7 ar  
    12    6   29 1   
    13    7    8 ar  
    14    7   30 1   
    15    8    9 ar  
    16    8   10 1   
    17    9   31 1   
    18   10   11 1   
    19   10   14 2   
    20   11   12 ar  
    21   11   16 ar  
    22   12   13 1   
    23   12   15 ar  
    24   13   14 1   
    25   14   32 1   
    26   15   18 ar  
    27   15   33 1   
    28   16   17 ar  
    29   16   34 1   
    30   17   18 ar  
    31   17   19 1   
    32   18   35 1   
    33   19   20 1   
    34   19   24 2   
    35   20   21 1   
    36   21   22 1   
    37   21   23 2   
    38   22   36 1   
    39   22   37 1   
    40   22   38 1   
    41   23   24 1   
@<TRIPOS>SUBSTRUCTURE
     1 G3B         1 TEMP              0 ****  ****    0 ROOT
