@<TRIPOS>MOLECULE
G3E
   19    20     1     0     0
SMALL
bcc


@<TRIPOS>ATOM
      1 C4          0.0460    0.0110   -0.0460 ca        1 G3E     -0.082000
      2 C7         -2.8120   -0.1290    2.3110 cc        1 G3E      0.019900
      3 C6          1.4120    0.0090    2.4030 ca        1 G3E     -0.171000
      4 C9         -2.1110   -0.1310    3.6160 c         1 G3E      0.668700
      5 C8          1.4300    0.0570   -0.0190 ca        1 G3E     -0.155000
      6 N5         -0.7240   -0.0840    3.5890 n         1 G3E     -0.426100
      7 C1         -0.6940   -0.0360    1.1480 ca        1 G3E     -0.093800
      8 C2         -0.0050   -0.0370    2.3930 ca        1 G3E      0.065600
      9 C3         -2.1330   -0.0830    1.1350 cd        1 G3E     -0.100200
     10 C10         2.1090    0.0550    1.2080 ca        1 G3E     -0.091000
     11 O11        -4.1830   -0.1740    2.3180 oh        1 G3E     -0.486100
     12 O12        -2.7240   -0.1720    4.7040 o         1 G3E     -0.649500
     13 H4         -0.4930    0.0120   -1.0060 ha        1 G3E      0.140000
     14 H6          1.9580    0.0090    3.3580 ha        1 G3E      0.138000
     15 H8          2.0010    0.0940   -0.9580 ha        1 G3E      0.139000
     16 HN5        -0.2270   -0.0850    4.4520 hn        1 G3E      0.338500
     17 H3         -2.6610   -0.0820    0.1710 ha        1 G3E      0.160000
     18 H10         3.2090    0.0910    1.2200 ha        1 G3E      0.138000
     19 HO11       -4.4730   -0.2020    3.2470 ho        1 G3E      0.447000
@<TRIPOS>BOND
     1    1    5 ar  
     2    1    7 ar  
     3    1   13 1   
     4    2    4 1   
     5    2    9 2   
     6    2   11 1   
     7    3    8 ar  
     8    3   10 ar  
     9    3   14 1   
    10    4    6 1   
    11    4   12 2   
    12    5   10 ar  
    13    5   15 1   
    14    6    8 1   
    15    6   16 1   
    16    7    8 ar  
    17    7    9 1   
    18    9   17 1   
    19   10   18 1   
    20   11   19 1   
@<TRIPOS>SUBSTRUCTURE
     1 G3E         1 TEMP              0 ****  ****    0 ROOT
