@<TRIPOS>MOLECULE
G3E
   19    20     1     0     0
SMALL
bcc


@<TRIPOS>ATOM
      1 C4         -1.9040   -1.4410    0.0010 ca        1 G3E     -0.082000
      2 C7          1.7320   -0.7220    0.0000 cc        1 G3E      0.019900
      3 C6         -1.9450    1.3620    0.0000 ca        1 G3E     -0.171000
      4 C9          1.7340    0.7600   -0.0000 c         1 G3E      0.668700
      5 C8         -3.1110   -0.7610    0.0010 ca        1 G3E     -0.155000
      6 N5          0.4990    1.3930   -0.0000 n         1 G3E     -0.426100
      7 C1         -0.6860   -0.7410    0.0000 ca        1 G3E     -0.093800
      8 C2         -0.7010    0.6820    0.0000 ca        1 G3E      0.065600
      9 C3          0.5770   -1.4350    0.0000 cd        1 G3E     -0.100200
     10 C10        -3.1260    0.6400    0.0000 ca        1 G3E     -0.091000
     11 O11         2.9430   -1.3660    0.0000 oh        1 G3E     -0.486100
     12 O12         2.7910    1.4270   -0.0000 o         1 G3E     -0.649500
     13 H4         -1.8850   -2.5420    0.0010 ha        1 G3E      0.140000
     14 H6         -1.9730    2.4620   -0.0000 ha        1 G3E      0.138000
     15 H8         -4.0600   -1.3170    0.0010 ha        1 G3E      0.139000
     16 HN5         0.4710    2.3890   -0.0000 hn        1 G3E      0.338500
     17 H3          0.5830   -2.5350    0.0010 ha        1 G3E      0.160000
     18 H10        -4.0900    1.1730    0.0000 ha        1 G3E      0.138000
     19 HO11        3.6400   -0.6860   -0.0000 ho        1 G3E      0.447000
@<TRIPOS>BOND
     1    1    5 ar  
     2    1    7 ar  
     3    1   13 1   
     4    2    4 1   
     5    2    9 2   
     6    2   11 1   
     7    3    8 ar  
     8    3   10 ar  
     9    3   14 1   
    10    4    6 1   
    11    4   12 2   
    12    5   10 ar  
    13    5   15 1   
    14    6    8 1   
    15    6   16 1   
    16    7    8 ar  
    17    7    9 1   
    18    9   17 1   
    19   10   18 1   
    20   11   19 1   
@<TRIPOS>SUBSTRUCTURE
     1 G3E         1 TEMP              0 ****  ****    0 ROOT
