@<TRIPOS>MOLECULE
G3E
   19    20     1     0     0
SMALL
bcc


@<TRIPOS>ATOM
      1 C4          0.0450    0.0350   -0.0450 ca        1 G3E     -0.082000
      2 C7         -2.8120   -0.1200    2.3120 cc        1 G3E      0.019900
      3 C6          1.4130   -0.0130    2.4010 ca        1 G3E     -0.171000
      4 C9         -2.1100   -0.1460    3.6170 c         1 G3E      0.668700
      5 C8          1.4290    0.0700   -0.0190 ca        1 G3E     -0.155000
      6 N5         -0.7220   -0.1090    3.5880 n         1 G3E     -0.426100
      7 C1         -0.6950   -0.0250    1.1490 ca        1 G3E     -0.093800
      8 C2         -0.0050   -0.0500    2.3930 ca        1 G3E      0.065600
      9 C3         -2.1340   -0.0620    1.1370 cd        1 G3E     -0.100200
     10 C10         2.1090    0.0460    1.2060 ca        1 G3E     -0.091000
     11 O11        -4.1830   -0.1550    2.3200 oh        1 G3E     -0.486100
     12 O12        -2.7220   -0.2000    4.7050 o         1 G3E     -0.649500
     13 H4         -0.4960    0.0540   -1.0040 ha        1 G3E      0.140000
     14 H6          1.9600   -0.0320    3.3560 ha        1 G3E      0.138000
     15 H8          2.0000    0.1170   -0.9580 ha        1 G3E      0.139000
     16 HN5        -0.2240   -0.1260    4.4510 hn        1 G3E      0.338500
     17 H3         -2.6630   -0.0420    0.1720 ha        1 G3E      0.160000
     18 H10         3.2090    0.0740    1.2180 ha        1 G3E      0.138000
     19 HO11       -4.4730   -0.1950    3.2490 ho        1 G3E      0.447000
@<TRIPOS>BOND
     1    1    5 ar  
     2    1    7 ar  
     3    1   13 1   
     4    2    4 1   
     5    2    9 2   
     6    2   11 1   
     7    3    8 ar  
     8    3   10 ar  
     9    3   14 1   
    10    4    6 1   
    11    4   12 2   
    12    5   10 ar  
    13    5   15 1   
    14    6    8 1   
    15    6   16 1   
    16    7    8 ar  
    17    7    9 1   
    18    9   17 1   
    19   10   18 1   
    20   11   19 1   
@<TRIPOS>SUBSTRUCTURE
     1 G3E         1 TEMP              0 ****  ****    0 ROOT
