@<TRIPOS>MOLECULE
G3E
   19    20     1     0     0
SMALL
bcc


@<TRIPOS>ATOM
      1 C4          0.0380    0.0360   -0.0470 ca        1 G3E     -0.082000
      2 C7         -2.8110   -0.1150    2.3200 cc        1 G3E      0.019900
      3 C6          1.4150   -0.0180    2.3940 ca        1 G3E     -0.171000
      4 C9         -2.1040   -0.1440    3.6220 c         1 G3E      0.668700
      5 C8          1.4230    0.0680   -0.0260 ca        1 G3E     -0.155000
      6 N5         -0.7160   -0.1110    3.5880 ns        1 G3E     -0.426100
      7 C1         -0.6970   -0.0240    1.1490 ca        1 G3E     -0.093800
      8 C2         -0.0030   -0.0510    2.3910 ca        1 G3E      0.065600
      9 C3         -2.1370   -0.0580    1.1420 cd        1 G3E     -0.100200
     10 C10         2.1070    0.0410    1.1970 ca        1 G3E     -0.091000
     11 O11        -4.1810   -0.1480    2.3330 oh        1 G3E     -0.486100
     12 O12        -2.7120   -0.1980    4.7120 o         1 G3E     -0.649500
     13 H4         -0.5050    0.0570   -1.0050 ha        1 G3E      0.140000
     14 H6          1.9650   -0.0390    3.3470 ha        1 G3E      0.138000
     15 H8          1.9900    0.1140   -0.9670 ha        1 G3E      0.139000
     16 HN5        -0.2150   -0.1290    4.4490 hn        1 G3E      0.338500
     17 H3         -2.6690   -0.0360    0.1800 ha        1 G3E      0.160000
     18 H10         3.2070    0.0660    1.2050 ha        1 G3E      0.138000
     19 HO11       -4.4680   -0.1880    3.2630 ho        1 G3E      0.447000
@<TRIPOS>BOND
     1    1    5 ar  
     2    1    7 ar  
     3    1   13 1   
     4    2    4 1   
     5    2    9 2   
     6    2   11 1   
     7    3    8 ar  
     8    3   10 ar  
     9    3   14 1   
    10    4    6 1   
    11    4   12 2   
    12    5   10 ar  
    13    5   15 1   
    14    6    8 1   
    15    6   16 1   
    16    7    8 ar  
    17    7    9 1   
    18    9   17 1   
    19   10   18 1   
    20   11   19 1   
@<TRIPOS>SUBSTRUCTURE
     1 G3E         1 TEMP              0 ****  ****    0 ROOT
