@<TRIPOS>MOLECULE
G3F
   23    23     1     0     0
SMALL
bcc


@<TRIPOS>ATOM
      1 C1         -0.6370   -0.7500   -1.3750 c3        1 G3F      0.311900
      2 O1         -1.0960   -0.5750   -2.7330 oh        1 G3F     -0.604800
      3 C2          0.7910   -0.7500   -1.3750 c3        1 G3F      0.095100
      4 O2          1.2740   -2.0040   -2.1240 oh        1 G3F     -0.583800
      5 C3          1.3720   -0.7500   -0.0920 c3        1 G3F      0.137600
      6 F3          2.7870   -0.5730   -0.2340 f         1 G3F     -0.229300
      7 C4          0.8490    0.3200    0.7970 c3        1 G3F      0.087100
      8 O4          1.4230    0.1610    2.0740 oh        1 G3F     -0.588800
      9 C5         -0.7380    0.3220    0.9530 c3        1 G3F      0.115100
     10 O5         -1.2300    0.3050   -0.5420 os        1 G3F     -0.463600
     11 C6         -1.1520    1.4170    1.5760 c3        1 G3F      0.139400
     12 O6         -2.5610    1.4720    1.5450 oh        1 G3F     -0.590800
     13 H1         -0.9490   -1.6160   -1.0490 h2        1 G3F      0.058700
     14 HO1        -1.9470   -0.8220   -2.7920 ho        1 G3F      0.436000
     15 H2          1.1020    0.0400   -1.8570 h1        1 G3F      0.074700
     16 HO2         1.7910   -1.7620   -2.8040 ho        1 G3F      0.423000
     17 H3          1.2050   -1.6150    0.3270 h1        1 G3F      0.084700
     18 H4          1.1250    1.1850    0.4380 h1        1 G3F      0.063700
     19 HO4         2.1060    0.7210    2.1630 ho        1 G3F      0.421000
     20 H5         -1.0390   -0.4790    1.4240 h1        1 G3F      0.073700
     21 H6         -0.8480    1.3990    2.5040 h1        1 G3F      0.066700
     22 H6A        -0.7860    2.2040    1.1290 h1        1 G3F      0.066700
     23 HO6        -2.8420    2.1490    2.0450 ho        1 G3F      0.408000
@<TRIPOS>BOND
     1    1    2 1   
     2    1    3 1   
     3    1   10 1   
     4    1   13 1   
     5    2   14 1   
     6    3    4 1   
     7    3    5 1   
     8    3   15 1   
     9    4   16 1   
    10    5    6 1   
    11    5    7 1   
    12    5   17 1   
    13    7    8 1   
    14    7    9 1   
    15    7   18 1   
    16    8   19 1   
    17    9   10 1   
    18    9   11 1   
    19    9   20 1   
    20   11   12 1   
    21   11   21 1   
    22   11   22 1   
    23   12   23 1   
@<TRIPOS>SUBSTRUCTURE
     1 G3F         1 TEMP              0 ****  ****    0 ROOT
