@<TRIPOS>MOLECULE
G3F
   23    23     1     0     0
SMALL
bcc


@<TRIPOS>ATOM
      1 C1          0.5480   -1.4130    0.3190 c3        1 G3F      0.311900
      2 O1          0.8750   -2.6310   -0.3020 oh        1 G3F     -0.604800
      3 C2          1.5650   -0.3560   -0.1630 c3        1 G3F      0.095100
      4 O2          2.7950   -0.5500    0.5080 oh        1 G3F     -0.583800
      5 C3          1.0680    1.0550    0.2130 c3        1 G3F      0.137600
      6 F3          1.8750    2.0330   -0.3430 f         1 G3F     -0.229300
      7 C4         -0.3870    1.2320   -0.2900 c3        1 G3F      0.087100
      8 O4         -0.9230    2.4530    0.1870 oh        1 G3F     -0.588800
      9 C5         -1.2800    0.1100    0.2560 c3        1 G3F      0.115100
     10 O5         -0.7680   -1.1600   -0.1490 os        1 G3F     -0.463600
     11 C6         -2.6930    0.2020   -0.3290 c3        1 G3F      0.139400
     12 O6         -3.5550   -0.7360    0.2740 oh        1 G3F     -0.590800
     13 H1          0.5620   -1.5140    1.4410 h2        1 G3F      0.058700
     14 HO1         0.0660   -3.1550   -0.3810 ho        1 G3F      0.436000
     15 H2          1.7030   -0.4380   -1.2750 h1        1 G3F      0.074700
     16 HO2         3.1260   -1.4140    0.2260 ho        1 G3F      0.423000
     17 H3          1.0980    1.1730    1.3350 h1        1 G3F      0.084700
     18 H4         -0.3940    1.2220   -1.4150 h1        1 G3F      0.063700
     19 HO4        -0.3210    3.1510   -0.1060 ho        1 G3F      0.421000
     20 H5         -1.3200    0.1570    1.3790 h1        1 G3F      0.073700
     21 H6         -3.1240    1.2100   -0.0820 h1        1 G3F      0.066700
     22 H6A        -2.6590    0.0520   -1.4400 h1        1 G3F      0.066700
     23 HO6        -3.1990   -1.6130    0.0810 ho        1 G3F      0.408000
@<TRIPOS>BOND
     1    1    2 1   
     2    1    3 1   
     3    1   10 1   
     4    1   13 1   
     5    2   14 1   
     6    3    4 1   
     7    3    5 1   
     8    3   15 1   
     9    4   16 1   
    10    5    6 1   
    11    5    7 1   
    12    5   17 1   
    13    7    8 1   
    14    7    9 1   
    15    7   18 1   
    16    8   19 1   
    17    9   10 1   
    18    9   11 1   
    19    9   20 1   
    20   11   12 1   
    21   11   21 1   
    22   11   22 1   
    23   12   23 1   
@<TRIPOS>SUBSTRUCTURE
     1 G3F         1 TEMP              0 ****  ****    0 ROOT
