@<TRIPOS>MOLECULE
G3F
   23    23     1     0     0
SMALL
bcc


@<TRIPOS>ATOM
      1 C1          0.1150   -0.0180    0.0090 c3        1 G3F      0.309900
      2 O1         -0.2810    0.1910   -1.3240 oh        1 G3F     -0.607800
      3 C2          1.6580   -0.0270    0.0470 c3        1 G3F      0.093100
      4 O2          2.1350   -1.2620   -0.4500 oh        1 G3F     -0.584800
      5 C3          2.1440    0.0860    1.5070 c3        1 G3F      0.137600
      6 F3          3.5180    0.2520    1.5650 f         1 G3F     -0.230300
      7 C4          1.4440    1.2910    2.1860 c3        1 G3F      0.082100
      8 O4          1.7560    1.3220    3.5670 oh        1 G3F     -0.588800
      9 C5         -0.0820    1.1530    2.0670 c3        1 G3F      0.156100
     10 O5         -0.4370    1.1020    0.6840 os        1 G3F     -0.447600
     11 C6         -0.7910    2.3770    2.6510 c3        1 G3F      0.134400
     12 O6         -2.0850    1.9500    3.0410 oh        1 G3F     -0.597800
     13 H1         -0.3100   -0.9810    0.4090 h2        1 G3F      0.058700
     14 HO1        -1.1320    0.6530   -1.3150 ho        1 G3F      0.439000
     15 H2          2.0600    0.8260   -0.5650 h1        1 G3F      0.073700
     16 HO2         1.8530   -1.3110   -1.3740 ho        1 G3F      0.423000
     17 H3          1.8820   -0.8620    2.0590 h1        1 G3F      0.084700
     18 H4          1.7860    2.2440    1.6950 h1        1 G3F      0.061700
     19 HO4         2.7210    1.3210    3.6320 ho        1 G3F      0.420000
     20 H5         -0.4320    0.2180    2.5870 h1        1 G3F      0.081700
     21 H6         -0.8590    3.1900    1.8820 h1        1 G3F      0.048700
     22 H6A        -0.2190    2.7370    3.5480 h1        1 G3F      0.048700
     23 HO6        -2.5620    2.7400    3.3200 ho        1 G3F      0.405000
@<TRIPOS>BOND
     1    1    2 1   
     2    1    3 1   
     3    1   10 1   
     4    1   13 1   
     5    2   14 1   
     6    3    4 1   
     7    3    5 1   
     8    3   15 1   
     9    4   16 1   
    10    5    6 1   
    11    5    7 1   
    12    5   17 1   
    13    7    8 1   
    14    7    9 1   
    15    7   18 1   
    16    8   19 1   
    17    9   10 1   
    18    9   11 1   
    19    9   20 1   
    20   11   12 1   
    21   11   21 1   
    22   11   22 1   
    23   12   23 1   
@<TRIPOS>SUBSTRUCTURE
     1 G3F         1 TEMP              0 ****  ****    0 ROOT
