@<TRIPOS>MOLECULE
G3F
   23    23     1     0     0
SMALL
bcc


@<TRIPOS>ATOM
      1 C1          0.1050   -0.0200    0.0150 c3        1 G3F      0.309900
      2 O1         -0.2970    0.1910   -1.3150 oh        1 G3F     -0.607800
      3 C2          1.6490   -0.0330    0.0440 c3        1 G3F      0.093100
      4 O2          2.1190   -1.2700   -0.4560 oh        1 G3F     -0.584800
      5 C3          2.1440    0.0770    1.5010 c3        1 G3F      0.137600
      6 F3          3.5180    0.2390    1.5510 f         1 G3F     -0.230300
      7 C4          1.4520    1.2840    2.1850 c3        1 G3F      0.082100
      8 O4          1.7720    1.3130    3.5640 oh        1 G3F     -0.588800
      9 C5         -0.0750    1.1500    2.0750 c3        1 G3F      0.156100
     10 O5         -0.4390    1.1010    0.6940 os        1 G3F     -0.447600
     11 C6         -0.7770    2.3760    2.6630 c3        1 G3F      0.134400
     12 O6         -2.0710    1.9530    3.0610 oh        1 G3F     -0.597800
     13 H1         -0.3200   -0.9820    0.4170 h2        1 G3F      0.058700
     14 HO1        -1.1470    0.6550   -1.3010 ho        1 G3F      0.439000
     15 H2          2.0500    0.8190   -0.5700 h1        1 G3F      0.073700
     16 HO2         1.8320   -1.3180   -1.3780 ho        1 G3F      0.423000
     17 H3          1.8820   -0.8710    2.0540 h1        1 G3F      0.084700
     18 H4          1.7940    2.2360    1.6920 h1        1 G3F      0.061700
     19 HO4         2.7370    1.3100    3.6230 ho        1 G3F      0.420000
     20 H5         -0.4250    0.2170    2.5960 h1        1 G3F      0.081700
     21 H6         -0.1990    2.7340    3.5580 h1        1 G3F      0.048700
     22 H6A        -0.8480    3.1900    1.8950 h1        1 G3F      0.048700
     23 HO6        -2.5430    2.7440    3.3430 ho        1 G3F      0.405000
@<TRIPOS>BOND
     1    1    2 1   
     2    1    3 1   
     3    1   10 1   
     4    1   13 1   
     5    2   14 1   
     6    3    4 1   
     7    3    5 1   
     8    3   15 1   
     9    4   16 1   
    10    5    6 1   
    11    5    7 1   
    12    5   17 1   
    13    7    8 1   
    14    7    9 1   
    15    7   18 1   
    16    8   19 1   
    17    9   10 1   
    18    9   11 1   
    19    9   20 1   
    20   11   12 1   
    21   11   21 1   
    22   11   22 1   
    23   12   23 1   
@<TRIPOS>SUBSTRUCTURE
     1 G3F         1 TEMP              0 ****  ****    0 ROOT
