@<TRIPOS>MOLECULE
G3G
   78    81     1     0     0
SMALL
bcc


@<TRIPOS>ATOM
      1 C2         -0.4530   -2.3890   -3.0930 ca        1 G3G     -0.115500
      2 C6         -1.6100   -1.9490   -3.7580 ca        1 G3G      0.059600
      3 C5         -2.2760   -0.7840   -3.3370 ca        1 G3G     -0.115500
      4 C20        -1.7580   -0.0550   -2.2670 ca        1 G3G      0.031000
      5 C27        -0.5860   -0.4560   -1.6000 ca        1 G3G     -0.462500
      6 C18         0.0430   -1.6410   -2.0260 ca        1 G3G      0.031000
      7 S9          0.1180    0.5060   -0.4750 s4        1 G3G      1.614300
      8 O40         1.4250    0.1910   -0.2460 o         1 G3G     -0.419400
      9 O11        -0.4230    1.7550   -0.4100 o         1 G3G     -0.419400
     10 N32         0.3880    2.4360    5.6430 n3        1 G3G     -0.827200
     11 C33        -0.8670    2.0070    5.0560 c3        1 G3G      0.170100
     12 C34        -0.7550    1.2080    3.7880 ca        1 G3G      0.094700
     13 C38         0.3790    0.4430    3.4620 ca        1 G3G     -0.172500
     14 C39         0.3990   -0.3250    2.3110 ca        1 G3G      0.022000
     15 C37        -0.6920   -0.3190    1.3800 ca        1 G3G     -0.594000
     16 C36        -1.8580    0.4120    1.7770 ca        1 G3G      0.022000
     17 C35        -1.8720    1.1800    2.9240 ca        1 G3G     -0.172500
     18 C24         0.3420    3.5250    6.5930 c3        1 G3G      0.142500
     19 C25        -0.4120    4.8320    6.1810 c3        1 G3G      0.111800
     20 N22        -1.5430    5.0100    7.0780 n3        1 G3G     -0.835200
     21 C21        -1.7770    3.7510    7.7640 c3        1 G3G      0.143800
     22 C23        -0.3720    3.1050    7.9490 c3        1 G3G      0.112500
     23 N28         0.3600    3.6340    9.1500 n4        1 G3G     -0.620300
     24 C7         -0.4840    3.6350   10.3880 c3        1 G3G      0.177100
     25 C12        -1.4210    2.4930   10.6080 ca        1 G3G     -0.178300
     26 C14        -2.7410    2.8020   10.9730 ca        1 G3G     -0.126500
     27 C30        -3.6350    1.7850   11.3040 ca        1 G3G     -0.109000
     28 C31        -3.2240    0.4520   11.2660 ca        1 G3G     -0.078000
     29 C29        -1.9150    0.1400   10.8950 ca        1 G3G     -0.109000
     30 C13        -1.0150    1.1550   10.5720 ca        1 G3G     -0.126500
     31 S8          2.0560    2.8310    9.3480 sy        1 G3G      1.436200
     32 C26         2.5120    3.2360   10.8950 ca        1 G3G     -0.422500
     33 C17         2.3100    2.3500   11.9670 ca        1 G3G      0.025500
     34 C1          2.8440    2.6000   13.2310 ca        1 G3G     -0.115500
     35 C4          3.6020    3.7660   13.4360 ca        1 G3G      0.052600
     36 C3          3.8050    4.6780   12.3860 ca        1 G3G     -0.115500
     37 C19         3.2610    4.4020   11.1320 ca        1 G3G      0.025500
     38 O41         1.8260    1.4800    9.2140 o         1 G3G     -0.551800
     39 O10         2.7920    3.5630    8.4320 o         1 G3G     -0.551800
     40 N42         4.2020    4.0240   14.7490 n4        1 G3G     -0.724000
     41 N43        -2.1140   -2.6980   -4.9140 n4        1 G3G     -0.726000
     42 H2          0.0850   -3.3070   -3.3990 ha        1 G3G      0.200000
     43 H5         -3.1930   -0.4210   -3.8390 ha        1 G3G      0.200000
     44 H20        -2.2770    0.8780   -1.9620 ha        1 G3G      0.201500
     45 H18         0.9750   -1.9840   -1.5290 ha        1 G3G      0.201500
     46 H331       -1.3760    1.3330    5.8150 h1        1 G3G      0.081700
     47 H332       -1.5690    2.8750    4.8620 h1        1 G3G      0.081700
     48 H38         1.2500    0.4130    4.1420 ha        1 G3G      0.187500
     49 H39         1.2880   -0.9460    2.0810 ha        1 G3G      0.177500
     50 H37        -0.9040   -1.3130    0.9140 ha        1 G3G      0.200000
     51 H36        -2.7610    0.3670    1.1420 ha        1 G3G      0.177500
     52 H35        -2.7760    1.7610    3.1830 ha        1 G3G      0.187500
     53 H24         1.4250    3.8040    6.7640 h1        1 G3G      0.101700
     54 H251       -0.7050    4.8110    5.0960 h1        1 G3G      0.073700
     55 H252        0.2730    5.7150    6.3200 h1        1 G3G      0.073700
     56 HN22       -2.3610    5.3640    6.6220 hn        1 G3G      0.412800
     57 H211       -2.3940    3.0140    7.1720 h1        1 G3G      0.076200
     58 H212       -2.3230    3.9500    8.7240 h1        1 G3G      0.076200
     59 H23        -0.4580    1.9890    8.0800 hx        1 G3G      0.136700
     60 H71        -1.0810    4.6000   10.3890 hx        1 G3G      0.093700
     61 H72         0.2310    3.6900   11.2620 hx        1 G3G      0.093700
     62 H14        -3.0780    3.8510   11.0180 ha        1 G3G      0.139500
     63 H30        -4.6670    2.0380   11.6030 ha        1 G3G      0.169000
     64 H31        -3.9310   -0.3530   11.5330 ha        1 G3G      0.175000
     65 H29        -1.5880   -0.9120   10.8640 ha        1 G3G      0.169000
     66 H13         0.0100    0.8750   10.2870 ha        1 G3G      0.139500
     67 H17         1.7300    1.4160   11.8110 ha        1 G3G      0.200000
     68 H1          2.6660    1.8680   14.0420 ha        1 G3G      0.197500
     69 H3          4.3950    5.6050   12.5210 ha        1 G3G      0.197500
     70 H19         3.4600    5.1130   10.3020 ha        1 G3G      0.200000
     71 H421        3.6300    3.6010   15.4950 hn        1 G3G      0.489133
     72 H422        4.2740    5.0380   14.9180 hn        1 G3G      0.489133
     73 H431       -3.1350   -2.5840   -5.0010 hn        1 G3G      0.490467
     74 H432       -1.6660   -2.3450   -5.7760 hn        1 G3G      0.490467
     75 H321        1.0670    2.6450    4.9310 hn        1 G3G      0.397800
     76 H281        0.5290    4.6260    8.9370 hn        1 G3G      0.457800
     77 H423        5.1490    3.6140   14.7820 hn        1 G3G      0.489133
     78 H433       -1.8970   -3.7010   -4.8150 hn        1 G3G      0.490467
@<TRIPOS>BOND
     1    1    2 ar  
     2    1    6 ar  
     3    1   42 1   
     4    2    3 ar  
     5    2   41 1   
     6    3    4 ar  
     7    3   43 1   
     8    4    5 ar  
     9    4   44 1   
    10    5    6 ar  
    11    5    7 1   
    12    6   45 1   
    13    7    8 1   
    14    7    9 1   
    15   10   11 1   
    16   10   18 1   
    17   10   75 1   
    18   11   12 1   
    19   11   46 1   
    20   11   47 1   
    21   12   13 ar  
    22   12   17 ar  
    23   13   14 ar  
    24   13   48 1   
    25   14   15 ar  
    26   14   49 1   
    27   15   16 ar  
    28   15   50 1   
    29   16   17 ar  
    30   16   51 1   
    31   17   52 1   
    32   18   19 1   
    33   18   22 1   
    34   18   53 1   
    35   19   20 1   
    36   19   54 1   
    37   19   55 1   
    38   20   21 1   
    39   20   56 1   
    40   21   22 1   
    41   21   57 1   
    42   21   58 1   
    43   22   23 1   
    44   22   59 1   
    45   23   24 1   
    46   23   31 1   
    47   23   76 1   
    48   24   25 1   
    49   24   60 1   
    50   24   61 1   
    51   25   26 ar  
    52   25   30 ar  
    53   26   27 ar  
    54   26   62 1   
    55   27   28 ar  
    56   27   63 1   
    57   28   29 ar  
    58   28   64 1   
    59   29   30 ar  
    60   29   65 1   
    61   30   66 1   
    62   31   32 1   
    63   31   38 2   
    64   31   39 2   
    65   32   33 ar  
    66   32   37 ar  
    67   33   34 ar  
    68   33   67 1   
    69   34   35 ar  
    70   34   68 1   
    71   35   36 ar  
    72   35   40 1   
    73   36   37 ar  
    74   36   69 1   
    75   37   70 1   
    76   40   71 1   
    77   40   72 1   
    78   40   77 1   
    79   41   73 1   
    80   41   74 1   
    81   41   78 1   
@<TRIPOS>SUBSTRUCTURE
     1 G3G         1 TEMP              0 ****  ****    0 ROOT
