@<TRIPOS>MOLECULE
G3G
   76    78     1     0     0
SMALL
bcc


@<TRIPOS>ATOM
      1 C2         -0.0860   -1.4950    1.2110 ca        1 G3G     -0.234750
      2 C6          0.7500   -1.1240    0.0970 ca        1 G3G      0.333100
      3 C5          1.7800   -0.1440    0.3460 ca        1 G3G     -0.234750
      4 C20         1.9480    0.3880    1.5880 ca        1 G3G      0.070500
      5 C27         1.1350    0.0190    2.7090 ca        1 G3G     -0.722500
      6 C18         0.1080   -0.9440    2.4410 ca        1 G3G      0.070500
      7 S9          1.3760    0.5890    4.1080 s4        1 G3G      1.706800
      8 O40         0.6910    0.0360    5.1440 o         1 G3G     -0.462650
      9 O11         2.4510    1.4190    4.2530 o         1 G3G     -0.462650
     10 N32        -0.0320    2.6320    3.8140 n3        1 G3G     -0.887200
     11 C33        -1.3590    2.5820    3.1890 c3        1 G3G      0.179600
     12 C34        -2.5100    1.9950    3.9440 ca        1 G3G     -0.120800
     13 C38        -2.4320    0.7880    4.6420 ca        1 G3G     -0.132500
     14 C39        -3.5740    0.2290    5.2170 ca        1 G3G     -0.118000
     15 C37        -4.8060    0.8700    5.0970 ca        1 G3G     -0.109000
     16 C36        -4.8920    2.0780    4.4040 ca        1 G3G     -0.118000
     17 C35        -3.7520    2.6400    3.8320 ca        1 G3G     -0.132500
     18 C24         0.1780    3.6200    4.8770 c3        1 G3G      0.125000
     19 C25        -0.0880    5.1010    4.4650 c3        1 G3G      0.128300
     20 N22        -1.3380    5.5390    5.0630 n3        1 G3G     -0.809200
     21 C21        -1.7990    4.5300    6.0000 c3        1 G3G      0.128300
     22 C23        -0.7050    3.4260    6.1600 c3        1 G3G      0.125000
     23 N28         0.1010    3.5540    7.3850 n3        1 G3G     -0.887200
     24 C7         -0.6460    3.2760    8.6150 c3        1 G3G      0.179600
     25 C12        -1.2640    1.9210    8.7790 ca        1 G3G     -0.120800
     26 C14        -2.3050    1.8210    9.7160 ca        1 G3G     -0.132500
     27 C30        -2.8940    0.5900    9.9900 ca        1 G3G     -0.118000
     28 C31        -2.4530   -0.5580    9.3290 ca        1 G3G     -0.109000
     29 C29        -1.4270   -0.4630    8.3910 ca        1 G3G     -0.118000
     30 C13        -0.8330    0.7710    8.1150 ca        1 G3G     -0.132500
     31 S8          2.3910    2.6030    7.4600 s4        1 G3G      1.706800
     32 C26         2.6010    2.2980    8.9340 ca        1 G3G     -0.722500
     33 C17         2.2590    1.0370    9.5240 ca        1 G3G      0.070500
     34 C1          2.5140    0.7360   10.8270 ca        1 G3G     -0.234750
     35 C4          3.1470    1.6980   11.6960 ca        1 G3G      0.333100
     36 C3          3.4720    2.9840   11.1260 ca        1 G3G     -0.234750
     37 C19         3.2050    3.2540    9.8200 ca        1 G3G      0.070500
     38 O41         2.0550    1.5900    6.6070 o         1 G3G     -0.462650
     39 O10         2.8290    3.8010    6.9790 o         1 G3G     -0.462650
     40 N42         3.4180    1.4130   12.9770 nh        1 G3G     -0.772200
     41 N43         0.5790   -1.6640   -1.1190 nh        1 G3G     -0.772200
     42 H2         -0.8900   -2.2360    1.0600 ha        1 G3G      0.176750
     43 H5          2.4400    0.1690   -0.4820 ha        1 G3G      0.176750
     44 H20         2.7520    1.1320    1.7550 ha        1 G3G      0.168500
     45 H18        -0.5480   -1.2470    3.2810 ha        1 G3G      0.168500
     46 H331       -1.2330    1.9560    2.2530 h1        1 G3G      0.068450
     47 H332       -1.6550    3.6250    2.8570 h1        1 G3G      0.068450
     48 H38        -1.4720    0.2640    4.7530 ha        1 G3G      0.137000
     49 H39        -3.5000   -0.7220    5.7650 ha        1 G3G      0.149750
     50 H37        -5.7090    0.4240    5.5440 ha        1 G3G      0.154000
     51 H36        -5.8630    2.5890    4.3040 ha        1 G3G      0.149750
     52 H35        -3.8330    3.5930    3.2850 ha        1 G3G      0.137000
     53 H24         1.2780    3.5230    5.1320 h1        1 G3G      0.095200
     54 H251       -0.1800    5.2190    3.3500 h1        1 G3G      0.070200
     55 H252        0.7910    5.7230    4.7950 h1        1 G3G      0.070200
     56 HN22       -1.2460    6.4400    5.4900 hn        1 G3G      0.382800
     57 H211       -2.7130    4.0450    5.5500 h1        1 G3G      0.070200
     58 H212       -2.1010    4.9770    6.9850 h1        1 G3G      0.070200
     59 H23        -1.1970    2.4100    6.1720 h1        1 G3G      0.095200
     60 H71        -1.4630    4.0470    8.7570 h1        1 G3G      0.068450
     61 H72         0.0910    3.4180    9.4640 h1        1 G3G      0.068450
     62 H14        -2.6630    2.7220   10.2410 ha        1 G3G      0.137000
     63 H30        -3.7110    0.5230   10.7260 ha        1 G3G      0.149750
     64 H31        -2.9190   -1.5330    9.5450 ha        1 G3G      0.154000
     65 H29        -1.0830   -1.3610    7.8560 ha        1 G3G      0.149750
     66 H13        -0.0440    0.8090    7.3460 ha        1 G3G      0.137000
     67 H17         1.7580    0.2850    8.8790 ha        1 G3G      0.168500
     68 H1          2.2340   -0.2530   11.2290 ha        1 G3G      0.176750
     69 H3          3.9480    3.7520   11.7620 ha        1 G3G      0.176750
     70 H19         3.4740    4.2470    9.4050 ha        1 G3G      0.168500
     71 H421        3.8580    2.0830   13.5700 hn        1 G3G      0.471550
     72 H422        3.1930    0.5210   13.3630 hn        1 G3G      0.471550
     73 H431       -0.1330   -2.3420   -1.2820 hn        1 G3G      0.471550
     74 H432        1.1640   -1.4050   -1.8820 hn        1 G3G      0.471550
     75 H321        0.5880    2.9370    3.0660 hn        1 G3G      0.375300
     76 H281        0.4070    4.5190    7.4390 hn        1 G3G      0.375300
@<TRIPOS>BOND
     1    1    2 ar  
     2    1    6 ar  
     3    1   42 1   
     4    2    3 ar  
     5    2   41 1   
     6    3    4 ar  
     7    3   43 1   
     8    4    5 ar  
     9    4   44 1   
    10    5    6 ar  
    11    5    7 1   
    12    6   45 1   
    13    7    8 1   
    14    7    9 1   
    15   10   11 1   
    16   10   18 1   
    17   10   75 1   
    18   11   12 1   
    19   11   46 1   
    20   11   47 1   
    21   12   13 ar  
    22   12   17 ar  
    23   13   14 ar  
    24   13   48 1   
    25   14   15 ar  
    26   14   49 1   
    27   15   16 ar  
    28   15   50 1   
    29   16   17 ar  
    30   16   51 1   
    31   17   52 1   
    32   18   19 1   
    33   18   22 1   
    34   18   53 1   
    35   19   20 1   
    36   19   54 1   
    37   19   55 1   
    38   20   21 1   
    39   20   56 1   
    40   21   22 1   
    41   21   57 1   
    42   21   58 1   
    43   22   23 1   
    44   22   59 1   
    45   23   24 1   
    46   23   76 1   
    47   24   25 1   
    48   24   60 1   
    49   24   61 1   
    50   25   26 ar  
    51   25   30 ar  
    52   26   27 ar  
    53   26   62 1   
    54   27   28 ar  
    55   27   63 1   
    56   28   29 ar  
    57   28   64 1   
    58   29   30 ar  
    59   29   65 1   
    60   30   66 1   
    61   31   32 1   
    62   31   38 1   
    63   31   39 1   
    64   32   33 ar  
    65   32   37 ar  
    66   33   34 ar  
    67   33   67 1   
    68   34   35 ar  
    69   34   68 1   
    70   35   36 ar  
    71   35   40 1   
    72   36   37 ar  
    73   36   69 1   
    74   37   70 1   
    75   40   71 1   
    76   40   72 1   
    77   41   73 1   
    78   41   74 1   
@<TRIPOS>SUBSTRUCTURE
     1 G3G         1 TEMP              0 ****  ****    0 ROOT
