@<TRIPOS>MOLECULE
G3G
   74    78     1     0     0
SMALL
bcc


@<TRIPOS>ATOM
      1 C2          5.5400    2.4500   -1.3340 ca        1 G3G     -0.237250
      2 C6          5.0770    3.7640   -1.0540 ca        1 G3G      0.234600
      3 C5          3.8920    3.9090   -0.2840 ca        1 G3G     -0.237250
      4 C20         3.2100    2.7900    0.1600 ca        1 G3G      0.031750
      5 C27         3.6570    1.4910   -0.1250 ca        1 G3G     -0.456500
      6 C18         4.8340    1.3530   -0.8750 ca        1 G3G      0.031750
      7 S9          2.8400    0.1550    0.4600 sy        1 G3G      1.513700
      8 O40         3.7400   -0.9370    0.5090 o         1 G3G     -0.657550
      9 O11         2.2100    0.5040    1.6730 o         1 G3G     -0.657550
     10 N32         1.7100   -0.1330   -0.7050 n3        1 G3G     -0.788000
     11 C33         2.0470   -0.9380   -1.8480 c3        1 G3G      0.271600
     12 C34         1.5880   -2.3710   -1.8310 ca        1 G3G     -0.115800
     13 C38         2.1270   -3.2750   -0.9080 ca        1 G3G     -0.114250
     14 C39         1.7510   -4.6170   -0.9460 ca        1 G3G     -0.132750
     15 C37         0.8410   -5.0660   -1.9030 ca        1 G3G     -0.124500
     16 C36         0.3060   -4.1680   -2.8260 ca        1 G3G     -0.132750
     17 C35         0.6780   -2.8250   -2.7910 ca        1 G3G     -0.114250
     18 C24         0.4330    0.5310   -0.6480 c3        1 G3G      0.203000
     19 C25         0.0480    1.3530   -1.9170 c3        1 G3G      0.115300
     20 N22        -0.9410    0.6230   -2.6960 n3        1 G3G     -0.796200
     21 C21        -1.5640   -0.3670   -1.8270 c3        1 G3G      0.115300
     22 C23        -0.8030   -0.4360   -0.4590 c3        1 G3G      0.203000
     23 N28        -1.6400   -0.1430    0.6800 n3        1 G3G     -0.788000
     24 C7         -2.1310   -1.3070    1.3860 c3        1 G3G      0.271600
     25 C12        -1.1480   -1.9760    2.3030 ca        1 G3G     -0.115800
     26 C14        -0.6940   -3.2670    2.0190 ca        1 G3G     -0.114250
     27 C30         0.1770   -3.9100    2.8980 ca        1 G3G     -0.132750
     28 C31         0.6040   -3.2630    4.0570 ca        1 G3G     -0.124500
     29 C29         0.1570   -1.9720    4.3390 ca        1 G3G     -0.132750
     30 C13        -0.7200   -1.3280    3.4660 ca        1 G3G     -0.114250
     31 S8         -2.1800    1.3340    1.1540 sy        1 G3G      1.513700
     32 C26        -3.7010    1.4460    0.4620 ca        1 G3G     -0.456500
     33 C17        -4.8480    1.0620    1.1730 ca        1 G3G      0.031750
     34 C1         -6.1160    1.1910    0.6380 ca        1 G3G     -0.237250
     35 C4         -6.2890    1.7210   -0.6690 ca        1 G3G      0.234600
     36 C3         -5.1320    2.1250   -1.3870 ca        1 G3G     -0.237250
     37 C19        -3.8770    1.9820   -0.8230 ca        1 G3G      0.031750
     38 O41        -2.3420    1.3390    2.5610 o         1 G3G     -0.657550
     39 O10        -1.3670    2.3660    0.6260 o         1 G3G     -0.657550
     40 N42        -7.5410    1.7890   -1.2460 nh        1 G3G     -0.848700
     41 N43         5.7290    4.8670   -1.5630 nh        1 G3G     -0.848700
     42 H2          6.4600    2.3020   -1.9170 ha        1 G3G      0.139500
     43 H5          3.5100    4.9110   -0.0400 ha        1 G3G      0.139500
     44 H20         2.2950    2.9200    0.7690 ha        1 G3G      0.155000
     45 H18         5.2130    0.3360   -1.0880 ha        1 G3G      0.155000
     46 H331        1.6580   -0.4470   -2.7870 h1        1 G3G      0.051450
     47 H332        3.1790   -0.9550   -1.9280 h1        1 G3G      0.051450
     48 H38         2.8580   -2.9230   -0.1590 ha        1 G3G      0.146500
     49 H39         2.1790   -5.3230   -0.2180 ha        1 G3G      0.131500
     50 H37         0.5490   -6.1250   -1.9320 ha        1 G3G      0.130000
     51 H36        -0.4070   -4.5200   -3.5860 ha        1 G3G      0.131500
     52 H35         0.2590   -2.1240   -3.5280 ha        1 G3G      0.146500
     53 H24         0.4950    1.2540    0.2230 h1        1 G3G      0.097700
     54 H251       -0.4420    2.3040   -1.5580 h1        1 G3G      0.064700
     55 H252        0.9390    1.6310   -2.5370 h1        1 G3G      0.064700
     56 HN22       -0.5000    0.1650   -3.4740 hn        1 G3G      0.344800
     57 H211       -2.6390   -0.0630   -1.6880 h1        1 G3G      0.064700
     58 H212       -1.5580   -1.3890   -2.2930 h1        1 G3G      0.064700
     59 H23        -0.4160   -1.4930   -0.3370 h1        1 G3G      0.097700
     60 H71        -3.0190   -0.9810    2.0110 h1        1 G3G      0.051450
     61 H72        -2.5080   -2.0620    0.6350 h1        1 G3G      0.051450
     62 H14        -1.0220   -3.7780    1.1020 ha        1 G3G      0.146500
     63 H30         0.5310   -4.9260    2.6720 ha        1 G3G      0.131500
     64 H31         1.2980   -3.7680    4.7450 ha        1 G3G      0.130000
     65 H29         0.5010   -1.4550    5.2470 ha        1 G3G      0.131500
     66 H13        -1.0750   -0.3060    3.6870 ha        1 G3G      0.146500
     67 H17        -4.7310    0.6650    2.1990 ha        1 G3G      0.155000
     68 H1         -6.9910    0.8800    1.2270 ha        1 G3G      0.139500
     69 H3         -5.2290    2.5490   -2.3980 ha        1 G3G      0.139500
     70 H19        -2.9860    2.3080   -1.3930 ha        1 G3G      0.155000
     71 H421       -8.3270    1.7180   -0.6460 hn        1 G3G      0.418300
     72 H422       -7.6460    2.3610   -2.0490 hn        1 G3G      0.418300
     73 H431        6.6550    4.7430   -1.8940 hn        1 G3G      0.418300
     74 H432        5.5100    5.7520   -1.1740 hn        1 G3G      0.418300
@<TRIPOS>BOND
     1    1    2 ar  
     2    1    6 ar  
     3    1   42 1   
     4    2    3 ar  
     5    2   41 1   
     6    3    4 ar  
     7    3   43 1   
     8    4    5 ar  
     9    4   44 1   
    10    5    6 ar  
    11    5    7 1   
    12    6   45 1   
    13    7    8 2   
    14    7    9 2   
    15    7   10 1   
    16   10   11 1   
    17   10   18 1   
    18   11   12 1   
    19   11   46 1   
    20   11   47 1   
    21   12   13 ar  
    22   12   17 ar  
    23   13   14 ar  
    24   13   48 1   
    25   14   15 ar  
    26   14   49 1   
    27   15   16 ar  
    28   15   50 1   
    29   16   17 ar  
    30   16   51 1   
    31   17   52 1   
    32   18   19 1   
    33   18   22 1   
    34   18   53 1   
    35   19   20 1   
    36   19   54 1   
    37   19   55 1   
    38   20   21 1   
    39   20   56 1   
    40   21   22 1   
    41   21   57 1   
    42   21   58 1   
    43   22   23 1   
    44   22   59 1   
    45   23   24 1   
    46   23   31 1   
    47   24   25 1   
    48   24   60 1   
    49   24   61 1   
    50   25   26 ar  
    51   25   30 ar  
    52   26   27 ar  
    53   26   62 1   
    54   27   28 ar  
    55   27   63 1   
    56   28   29 ar  
    57   28   64 1   
    58   29   30 ar  
    59   29   65 1   
    60   30   66 1   
    61   31   32 1   
    62   31   38 2   
    63   31   39 2   
    64   32   33 ar  
    65   32   37 ar  
    66   33   34 ar  
    67   33   67 1   
    68   34   35 ar  
    69   34   68 1   
    70   35   36 ar  
    71   35   40 1   
    72   36   37 ar  
    73   36   69 1   
    74   37   70 1   
    75   40   71 1   
    76   40   72 1   
    77   41   73 1   
    78   41   74 1   
@<TRIPOS>SUBSTRUCTURE
     1 G3G         1 TEMP              0 ****  ****    0 ROOT
