@<TRIPOS>MOLECULE
G3G
   76    78     1     0     0
SMALL
bcc


@<TRIPOS>ATOM
      1 C2          0.0560   -1.2190    1.0680 ca        1 G3G     -0.235250
      2 C6          0.8850   -0.7650   -0.0220 ca        1 G3G      0.332600
      3 C5          1.8400    0.2770    0.2690 ca        1 G3G     -0.235250
      4 C20         1.9500    0.7890    1.5260 ca        1 G3G      0.069500
      5 C27         1.1460    0.3370    2.6240 ca        1 G3G     -0.723000
      6 C18         0.1920   -0.6860    2.3140 ca        1 G3G      0.069500
      7 S9          1.3290    0.8830    4.0410 s4        1 G3G      1.705800
      8 O40         0.6630    0.2600    5.0500 o         1 G3G     -0.463650
      9 O11         2.3270    1.7990    4.2180 o         1 G3G     -0.463650
     10 N32        -0.2550    2.7900    3.8840 n7        1 G3G     -0.892200
     11 C33        -1.5130    2.5410    3.1730 c3        1 G3G      0.179600
     12 C34        -2.6630    1.9280    3.9080 ca        1 G3G     -0.126800
     13 C38        -2.5460    0.7240    4.6100 ca        1 G3G     -0.131250
     14 C39        -3.6710    0.1320    5.1840 ca        1 G3G     -0.117500
     15 C37        -4.9230    0.7340    5.0590 ca        1 G3G     -0.106500
     16 C36        -5.0470    1.9340    4.3570 ca        1 G3G     -0.117500
     17 C35        -3.9240    2.5290    3.7850 ca        1 G3G     -0.131250
     18 C24        -0.2700    3.6890    5.0430 c3        1 G3G      0.118000
     19 C25        -1.0560    5.0230    4.8590 c3        1 G3G      0.128800
     20 N22        -2.3290    4.9300    5.5490 n7        1 G3G     -0.791200
     21 C21        -2.2880    3.7940    6.4580 c3        1 G3G      0.128800
     22 C23        -0.8950    3.0890    6.3550 c3        1 G3G      0.118000
     23 N28        -0.0250    3.3380    7.5160 n7        1 G3G     -0.892200
     24 C7         -0.5670    2.8550    8.7920 c3        1 G3G      0.179600
     25 C12        -1.0970    1.4560    8.8550 ca        1 G3G     -0.126800
     26 C14        -2.1800    1.2180    9.7140 ca        1 G3G     -0.131250
     27 C30        -2.6650   -0.0760    9.8940 ca        1 G3G     -0.117500
     28 C31        -2.0770   -1.1450    9.2170 ca        1 G3G     -0.106500
     29 C29        -1.0070   -0.9110    8.3540 ca        1 G3G     -0.117500
     30 C13        -0.5170    0.3830    8.1720 ca        1 G3G     -0.131250
     31 S8          2.3610    2.8200    7.3480 s4        1 G3G      1.705800
     32 C26         2.7500    2.6330    8.8070 ca        1 G3G     -0.723000
     33 C17         2.6750    1.3660    9.4740 ca        1 G3G      0.069500
     34 C1          3.0870    1.1800   10.7590 ca        1 G3G     -0.235250
     35 C4          3.6240    2.2780   11.5270 ca        1 G3G      0.332600
     36 C3          3.6830    3.5670   10.8790 ca        1 G3G     -0.235250
     37 C19         3.2630    3.7190    9.5930 ca        1 G3G      0.069500
     38 O41         2.1290    1.7160    6.5750 o         1 G3G     -0.463650
     39 O10         2.5530    4.0440    6.7790 o         1 G3G     -0.463650
     40 N42         4.0480    2.1090   12.7870 nv        1 G3G     -0.772200
     41 N43         0.7730   -1.2880   -1.2520 nv        1 G3G     -0.772200
     42 H2         -0.6920   -2.0100    0.8850 ha        1 G3G      0.176750
     43 H5          2.4890    0.6550   -0.5400 ha        1 G3G      0.176750
     44 H20         2.6970    1.5820    1.7240 ha        1 G3G      0.168250
     45 H18        -0.4550   -1.0550    3.1350 ha        1 G3G      0.168250
     46 H331       -1.2430    1.8330    2.3290 h1        1 G3G      0.064200
     47 H332       -1.8750    3.5020    2.6960 h1        1 G3G      0.064200
     48 H38        -1.5680    0.2320    4.7190 ha        1 G3G      0.136750
     49 H39        -3.5690   -0.8160    5.7340 ha        1 G3G      0.151500
     50 H37        -5.8120    0.2620    5.5060 ha        1 G3G      0.155500
     51 H36        -6.0350    2.4100    4.2480 ha        1 G3G      0.151500
     52 H35        -4.0400    3.4670    3.2190 ha        1 G3G      0.136750
     53 H24         0.8200    3.9480    5.2120 h1        1 G3G      0.098200
     54 H251       -0.4610    5.8430    5.3530 h1        1 G3G      0.072950
     55 H252       -1.1810    5.3010    3.7790 h1        1 G3G      0.072950
     56 HN22       -3.0900    4.8370    4.9000 hn        1 G3G      0.374800
     57 H211       -3.0870    3.0360    6.2240 h1        1 G3G      0.072950
     58 H212       -2.4850    4.1880    7.4930 h1        1 G3G      0.072950
     59 H23        -1.0430    1.9740    6.2700 h1        1 G3G      0.098200
     60 H71         0.2860    2.9310    9.5330 h1        1 G3G      0.064200
     61 H72        -1.3790    3.5560    9.1560 h1        1 G3G      0.064200
     62 H14        -2.6520    2.0530   10.2540 ha        1 G3G      0.136750
     63 H30        -3.5140   -0.2530   10.5740 ha        1 G3G      0.151500
     64 H31        -2.4570   -2.1680    9.3630 ha        1 G3G      0.155500
     65 H29        -0.5450   -1.7490    7.8090 ha        1 G3G      0.151500
     66 H13         0.3130    0.5380    7.4640 ha        1 G3G      0.136750
     67 H17         2.2570    0.5090    8.9070 ha        1 G3G      0.168250
     68 H1          3.0110    0.1820   11.2230 ha        1 G3G      0.176750
     69 H3          4.0780    4.4340   11.4360 ha        1 G3G      0.176750
     70 H19         3.3270    4.7180    9.1170 ha        1 G3G      0.168250
     71 H421        4.0070    1.2160   13.2270 hn        1 G3G      0.471300
     72 H422        4.4200    2.8720   13.3090 hn        1 G3G      0.471300
     73 H431        1.3530   -0.9720   -1.9980 hn        1 G3G      0.471300
     74 H432        0.1140   -2.0110   -1.4430 hn        1 G3G      0.471300
     75 H321        0.3330    3.2660    3.2040 hn        1 G3G      0.383300
     76 H281        0.0700    4.3460    7.6000 hn        1 G3G      0.383300
@<TRIPOS>BOND
     1    1    2 ar  
     2    1    6 ar  
     3    1   42 1   
     4    2    3 ar  
     5    2   41 1   
     6    3    4 ar  
     7    3   43 1   
     8    4    5 ar  
     9    4   44 1   
    10    5    6 ar  
    11    5    7 1   
    12    6   45 1   
    13    7    8 1   
    14    7    9 1   
    15   10   11 1   
    16   10   18 1   
    17   10   75 1   
    18   11   12 1   
    19   11   46 1   
    20   11   47 1   
    21   12   13 ar  
    22   12   17 ar  
    23   13   14 ar  
    24   13   48 1   
    25   14   15 ar  
    26   14   49 1   
    27   15   16 ar  
    28   15   50 1   
    29   16   17 ar  
    30   16   51 1   
    31   17   52 1   
    32   18   19 1   
    33   18   22 1   
    34   18   53 1   
    35   19   20 1   
    36   19   54 1   
    37   19   55 1   
    38   20   21 1   
    39   20   56 1   
    40   21   22 1   
    41   21   57 1   
    42   21   58 1   
    43   22   23 1   
    44   22   59 1   
    45   23   24 1   
    46   23   76 1   
    47   24   25 1   
    48   24   60 1   
    49   24   61 1   
    50   25   26 ar  
    51   25   30 ar  
    52   26   27 ar  
    53   26   62 1   
    54   27   28 ar  
    55   27   63 1   
    56   28   29 ar  
    57   28   64 1   
    58   29   30 ar  
    59   29   65 1   
    60   30   66 1   
    61   31   32 1   
    62   31   38 1   
    63   31   39 1   
    64   32   33 ar  
    65   32   37 ar  
    66   33   34 ar  
    67   33   67 1   
    68   34   35 ar  
    69   34   68 1   
    70   35   36 ar  
    71   35   40 1   
    72   36   37 ar  
    73   36   69 1   
    74   37   70 1   
    75   40   71 1   
    76   40   72 1   
    77   41   73 1   
    78   41   74 1   
@<TRIPOS>SUBSTRUCTURE
     1 G3G         1 TEMP              0 ****  ****    0 ROOT
