@<TRIPOS>MOLECULE
G3H
   15    14     1     0     0
SMALL
bcc


@<TRIPOS>ATOM
      1 O1          0.3320   -0.4920   -0.3220 o         1 G3H     -0.611100
      2 C1          1.3890    0.0900   -0.0540 c         1 G3H      0.583900
      3 C2          2.1140    0.1170    1.2490 c3        1 G3H     -0.035900
      4 O2          1.3630   -0.5420    2.2590 oh        1 G3H     -0.638800
      5 C3          2.4350    1.5870    1.6640 c3        1 G3H      0.227400
      6 O1P         2.9780    1.6040    2.9160 os        1 G3H     -0.557200
      7 O2P         4.7330    3.2980    2.2530 o         1 G3H     -0.927500
      8 O3P         5.0890    1.8360    4.3330 o         1 G3H     -0.927500
      9 O4P         5.1260    0.8040    1.9780 o         1 G3H     -0.927500
     10 P           4.7110    1.9340    2.8850 p5        1 G3H      1.309900
     11 H11         1.9160    0.6720   -0.8520 h4        1 G3H     -0.036800
     12 H2          3.1030   -0.4240    1.1240 h1        1 G3H      0.114700
     13 HO2         1.6900   -0.1640    3.0920 ho        1 G3H      0.438000
     14 H31         3.1320    2.0290    0.8990 h1        1 G3H     -0.005300
     15 H32         1.4560    2.1520    1.6580 h1        1 G3H     -0.005300
@<TRIPOS>BOND
     1    1    2 2   
     2    2    3 1   
     3    2   11 1   
     4    3    4 1   
     5    3    5 1   
     6    3   12 1   
     7    4   13 1   
     8    5    6 1   
     9    5   14 1   
    10    5   15 1   
    11    6   10 1   
    12    7   10 1   
    13    8   10 1   
    14    9   10 1   
@<TRIPOS>SUBSTRUCTURE
     1 G3H         1 TEMP              0 ****  ****    0 ROOT
