@<TRIPOS>MOLECULE
G3H
   15    14     1     0     0
SMALL
bcc


@<TRIPOS>ATOM
      1 O1          0.3530   -0.5360   -0.3170 o         1 G3H     -0.611100
      2 C1          1.4000    0.0670   -0.0510 c         1 G3H      0.583900
      3 C2          2.1290    0.1050    1.2500 c3        1 G3H     -0.035900
      4 O2          1.3950   -0.5700    2.2610 oh        1 G3H     -0.638800
      5 C3          2.4240    1.5810    1.6660 c3        1 G3H      0.227400
      6 O1P         2.9690    1.6060    2.9160 os        1 G3H     -0.557200
      7 O2P         4.6910    3.3340    2.2500 o         1 G3H     -0.927500
      8 O3P         5.0800    1.8760    4.3270 o         1 G3H     -0.927500
      9 O4P         5.1290    0.8490    1.9700 o         1 G3H     -0.927500
     10 P           4.6960    1.9690    2.8800 p5        1 G3H      1.309900
     11 H11         1.9130    0.6600   -0.8490 h4        1 G3H     -0.036800
     12 H2          3.1270   -0.4160    1.1210 h1        1 G3H      0.114700
     13 HO2         1.7170   -0.1860    3.0940 ho        1 G3H      0.438000
     14 H31         1.4330    2.1270    1.6640 h1        1 G3H     -0.005300
     15 H32         3.1100    2.0370    0.9000 h1        1 G3H     -0.005300
@<TRIPOS>BOND
     1    1    2 2   
     2    2    3 1   
     3    2   11 1   
     4    3    4 1   
     5    3    5 1   
     6    3   12 1   
     7    4   13 1   
     8    5    6 1   
     9    5   14 1   
    10    5   15 1   
    11    6   10 1   
    12    7   10 1   
    13    8   10 1   
    14    9   10 1   
@<TRIPOS>SUBSTRUCTURE
     1 G3H         1 TEMP              0 ****  ****    0 ROOT
