@<TRIPOS>MOLECULE
G3H
   15    14     1     0     0
SMALL
bcc


@<TRIPOS>ATOM
      1 O1         -4.2440   -0.5960    0.1960 o         1 G3H     -0.611100
      2 C1         -3.0480   -0.9080    0.2420 c         1 G3H      0.583900
      3 C2         -1.8750   -0.0080    0.4380 c3        1 G3H     -0.035900
      4 O2         -2.2780    1.3530    0.4520 oh        1 G3H     -0.638800
      5 C3         -0.8030   -0.2600   -0.6690 c3        1 G3H      0.227400
      6 O1P         0.2000    0.6570   -0.5570 os        1 G3H     -0.557200
      7 O2P         1.9890   -1.0880   -0.9390 o         1 G3H     -0.927500
      8 O3P         2.5920    1.1330    0.1970 o         1 G3H     -0.927500
      9 O4P         1.0990   -0.5890    1.3860 o         1 G3H     -0.927500
     10 P           1.6760   -0.0500    0.1030 p5        1 G3H      1.309900
     11 H11        -2.7540   -1.9840    0.1450 h4        1 G3H     -0.036800
     12 H2         -1.3940   -0.2530    1.4360 h1        1 G3H      0.114700
     13 HO2        -1.4790    1.8470    0.2030 ho        1 G3H      0.438000
     14 H31        -0.4220   -1.3140   -0.5630 h1        1 G3H     -0.005300
     15 H32        -1.3270   -0.1440   -1.6650 h1        1 G3H     -0.005300
@<TRIPOS>BOND
     1    1    2 2   
     2    2    3 1   
     3    2   11 1   
     4    3    4 1   
     5    3    5 1   
     6    3   12 1   
     7    4   13 1   
     8    5    6 1   
     9    5   14 1   
    10    5   15 1   
    11    6   10 1   
    12    7   10 1   
    13    8   10 1   
    14    9   10 1   
@<TRIPOS>SUBSTRUCTURE
     1 G3H         1 TEMP              0 ****  ****    0 ROOT
