@<TRIPOS>MOLECULE
G3H
   15    13     1     0     0
SMALL
bcc


@<TRIPOS>ATOM
      1 O1          0.8120    2.1910   -2.4440 o         1 G3H     -0.413000
      2 C1          0.9350    1.8690   -1.2770 c1        1 G3H      0.157000
      3 C2         -0.1880    1.1420   -0.5720 c2        1 G3H     -0.073000
      4 O2         -0.6230    1.9050    0.5270 oh        1 G3H     -0.374000
      5 C3          0.3070   -0.2020   -0.0880 c3        1 G3H      0.058000
      6 O1P        -0.6870   -0.8120    0.7020 os        1 G3H     -0.727000
      7 O2P        -1.6530   -2.7590    1.9840 o         1 G3H     -0.926167
      8 O3P        -0.2720   -3.1970   -0.0110 o         1 G3H     -0.926167
      9 O4P         0.7790   -2.3580    2.0560 o         1 G3H     -0.926167
     10 P          -0.4560   -2.2980    1.1880 p5        1 G3H      1.552500
     11 H11         1.7590    2.0790   -0.7960 ha        1 G3H      0.221000
     12 H2         -0.9320    1.0110   -1.1930 h4        1 G3H      0.056000
     13 HO2        -1.4080    2.2790    0.3370 ho        1 G3H      0.244000
     14 H31         0.5080   -0.7730   -0.8590 h1        1 G3H      0.039000
     15 H32         1.1190   -0.0780    0.4460 h1        1 G3H      0.039000
@<TRIPOS>BOND
     1    1    2 1   
     2    2   11 1   
     3    3    4 1   
     4    3    5 1   
     5    3   12 1   
     6    4   13 1   
     7    5    6 1   
     8    5   14 1   
     9    5   15 1   
    10    6   10 1   
    11    7   10 1   
    12    8   10 1   
    13    9   10 1   
@<TRIPOS>SUBSTRUCTURE
     1 G3H         1 TEMP              0 ****  ****    0 ROOT
