@<TRIPOS>MOLECULE
G3P
   17    16     1     0     0
SMALL
bcc


@<TRIPOS>ATOM
      1 O1          2.9740    0.9890    1.2050 oh        1 G3P     -0.685800
      2 C1          2.7210   -0.2850    0.6590 c3        1 G3P      0.145400
      3 C2          2.1340   -0.2020   -0.7540 c3        1 G3P      0.078100
      4 O2          1.9200   -1.5280   -1.2300 oh        1 G3P     -0.665800
      5 C3          0.8180    0.6080   -0.8110 c3        1 G3P      0.205400
      6 O1P        -0.2190   -0.1180   -0.2840 os        1 G3P     -0.574200
      7 O4P        -1.9100   -0.4030    1.5820 o         1 G3P     -0.931500
      8 O2P         0.2240    0.9860    1.8910 o         1 G3P     -0.931500
      9 O3P        -1.6400    1.8640    0.4080 o         1 G3P     -0.931500
     10 P          -1.0040    0.6720    1.0620 p5        1 G3P      1.329900
     11 HO1         2.1120    1.3130    1.5520 ho        1 G3P      0.490000
     12 H11         3.7190   -0.8030    0.6200 h1        1 G3P      0.020700
     13 H12         2.0210   -0.8670    1.3150 h1        1 G3P      0.020700
     14 H2          2.8900    0.2440   -1.4560 h1        1 G3P      0.006700
     15 HO2         1.0290   -1.7690   -0.9270 ho        1 G3P      0.433000
     16 H31         0.9610    1.5850   -0.2720 h1        1 G3P     -0.003300
     17 H32         0.6230    0.8180   -1.9070 h1        1 G3P     -0.003300
@<TRIPOS>BOND
     1    1    2 1   
     2    1   11 1   
     3    2    3 1   
     4    2   12 1   
     5    2   13 1   
     6    3    4 1   
     7    3    5 1   
     8    3   14 1   
     9    4   15 1   
    10    5    6 1   
    11    5   16 1   
    12    5   17 1   
    13    6   10 1   
    14    7   10 1   
    15    8   10 1   
    16    9   10 1   
@<TRIPOS>SUBSTRUCTURE
     1 G3P         1 TEMP              0 ****  ****    0 ROOT
