@<TRIPOS>MOLECULE
G3P
   17    16     1     0     0
SMALL
bcc


@<TRIPOS>ATOM
      1 O1          2.1350   -0.4920   -0.5490 oh        1 G3P     -0.685800
      2 C1          1.6400   -0.8240    0.7270 c3        1 G3P      0.145400
      3 C2          1.5400    0.3990    1.6450 c3        1 G3P      0.078100
      4 O2          1.0250   -0.0240    2.9040 oh        1 G3P     -0.665800
      5 C3          2.8950    1.1190    1.8350 c3        1 G3P      0.205400
      6 O1P         3.7110    0.3990    2.6690 os        1 G3P     -0.574200
      7 O4P         5.8090   -0.9970    2.9420 o         1 G3P     -0.931500
      8 O2P         4.6950   -0.6600    0.6560 o         1 G3P     -0.931500
      9 O3P         5.9070    1.2800    1.7580 o         1 G3P     -0.931500
     10 P           5.2310   -0.0490    1.9340 p5        1 G3P      1.329900
     11 HO1         3.1130   -0.4460   -0.4580 ho        1 G3P      0.490000
     12 H11         0.6120   -1.2470    0.5540 h1        1 G3P      0.020700
     13 H12         2.2870   -1.5990    1.2160 h1        1 G3P      0.020700
     14 H2          0.7760    1.1180    1.2410 h1        1 G3P      0.006700
     15 HO2         1.8000   -0.2900    3.4240 ho        1 G3P      0.433000
     16 H31         3.3690    1.2880    0.8290 h1        1 G3P     -0.003300
     17 H32         2.6570    2.1240    2.3020 h1        1 G3P     -0.003300
@<TRIPOS>BOND
     1    1    2 1   
     2    1   11 1   
     3    2    3 1   
     4    2   12 1   
     5    2   13 1   
     6    3    4 1   
     7    3    5 1   
     8    3   14 1   
     9    4   15 1   
    10    5    6 1   
    11    5   16 1   
    12    5   17 1   
    13    6   10 1   
    14    7   10 1   
    15    8   10 1   
    16    9   10 1   
@<TRIPOS>SUBSTRUCTURE
     1 G3P         1 TEMP              0 ****  ****    0 ROOT
