@<TRIPOS>MOLECULE
G3R
   46    50     1     0     0
SMALL
bcc


@<TRIPOS>ATOM
      1 O1          0.0340    0.0190    0.0160 oh        1 G3R     -0.607800
      2 C2          1.4000    0.3990   -0.0050 c3        1 G3R      0.118400
      3 C3          1.9240    0.3030    1.4340 c3        1 G3R      0.186800
      4 N4          1.9090   -1.0480    1.9460 nh        1 G3R     -0.725600
      5 C6          2.1300   -1.2500    3.3130 ca        1 G3R      0.178600
      6 C7          2.8500   -0.3040    4.0980 ca        1 G3R     -0.193000
      7 C19         3.1500   -0.5690    5.4190 ca        1 G3R     -0.042000
      8 C8          1.7070   -2.4530    3.9100 ca        1 G3R     -0.246300
      9 C9          2.0100   -2.7350    5.2590 ca        1 G3R      0.450600
     10 C18         2.7440   -1.7720    6.0130 ca        1 G3R     -0.178300
     11 N10         1.5760   -3.9460    5.8140 nc        1 G3R     -0.690000
     12 C11         1.8410   -4.2390    7.0700 cd        1 G3R      0.588800
     13 N12         2.5710   -3.3540    7.9050 na        1 G3R     -0.029800
     14 N13         2.9240   -3.4950    9.1970 nc        1 G3R     -0.615100
     15 C17         3.0330   -2.0950    7.3890 cc        1 G3R      0.044700
     16 N16         3.6910   -1.4260    8.3640 nd        1 G3R     -0.413300
     17 C14         3.6020   -2.3140    9.4900 cd        1 G3R      0.689200
     18 N15         4.0630   -1.9660   10.7620 nh        1 G3R     -0.845800
     19 C20         1.3840   -5.5390    7.7070 c3        1 G3R     -0.077400
     20 C21         0.6310   -6.4280    6.7810 ca        1 G3R     -0.074300
     21 C22         1.3390   -7.4140    6.0580 ca        1 G3R     -0.095000
     22 C23         0.5870   -8.2290    5.2380 ca        1 G3R      0.053100
     23 O24         1.0150   -9.2740    4.4240 os        1 G3R     -0.334900
     24 C25        -0.1620   -9.8010    3.7700 c3        1 G3R      0.321200
     25 O26        -1.3040   -9.0420    4.2300 os        1 G3R     -0.334900
     26 C27        -0.8210   -8.0890    5.1200 ca        1 G3R      0.060100
     27 C28        -1.5160   -7.1260    5.8220 ca        1 G3R     -0.113000
     28 C29        -0.7530   -6.2940    6.6600 ca        1 G3R     -0.110000
     29 H1         -0.2830    0.0660   -0.8940 ho        1 G3R      0.408000
     30 H21C        1.9780   -0.2730   -0.6940 h1        1 G3R      0.036700
     31 H22C        1.5000    1.4610   -0.3530 h1        1 G3R      0.036700
     32 H31C        2.9910    0.6670    1.4320 h1        1 G3R      0.050200
     33 H32C        1.3140    0.9990    2.0800 h1        1 G3R      0.050200
     34 H4          1.1640   -1.6020    1.5700 hn        1 G3R      0.416800
     35 H7          3.1800    0.6460    3.6530 ha        1 G3R      0.139000
     36 H8          1.1390   -3.1950    3.3260 ha        1 G3R      0.156000
     37 H19         3.7100    0.1670    6.0180 ha        1 G3R      0.156000
     38 H201        2.2960   -6.0740    8.0940 hc        1 G3R      0.085700
     39 H202        0.7410   -5.2800    8.5940 hc        1 G3R      0.085700
     40 H151        4.7660   -1.2580   10.7530 hn        1 G3R      0.408800
     41 H152        4.2850   -2.7470   11.3410 hn        1 G3R      0.408800
     42 H22         2.4280   -7.5200    6.1420 ha        1 G3R      0.156000
     43 H29        -1.2730   -5.5100    7.2330 ha        1 G3R      0.140000
     44 H251       -0.2950  -10.8670    4.0800 h2        1 G3R      0.071700
     45 H252       -0.0560   -9.6530    2.6680 h2        1 G3R      0.071700
     46 H28        -2.6030   -7.0110    5.7330 ha        1 G3R      0.155000
@<TRIPOS>BOND
     1    1    2 1   
     2    1   29 1   
     3    2    3 1   
     4    2   30 1   
     5    2   31 1   
     6    3    4 1   
     7    3   32 1   
     8    3   33 1   
     9    4    5 1   
    10    4   34 1   
    11    5    6 ar  
    12    5    8 ar  
    13    6    7 ar  
    14    6   35 1   
    15    7   10 ar  
    16    7   37 1   
    17    8    9 ar  
    18    8   36 1   
    19    9   10 ar  
    20    9   11 1   
    21   10   15 1   
    22   11   12 2   
    23   12   13 1   
    24   12   19 1   
    25   13   14 1   
    26   13   15 1   
    27   14   17 2   
    28   15   16 2   
    29   16   17 1   
    30   17   18 1   
    31   18   40 1   
    32   18   41 1   
    33   19   20 1   
    34   19   38 1   
    35   19   39 1   
    36   20   21 ar  
    37   20   28 ar  
    38   21   22 ar  
    39   21   42 1   
    40   22   23 1   
    41   22   26 ar  
    42   23   24 1   
    43   24   25 1   
    44   24   44 1   
    45   24   45 1   
    46   25   26 1   
    47   26   27 ar  
    48   27   28 ar  
    49   27   46 1   
    50   28   43 1   
@<TRIPOS>SUBSTRUCTURE
     1 G3R         1 TEMP              0 ****  ****    0 ROOT
