@<TRIPOS>MOLECULE
G3R
   46    50     1     0     0
SMALL
bcc


@<TRIPOS>ATOM
      1 O1          0.0320    0.0210    0.0170 oh        1 G3R     -0.607800
      2 C2          1.3980    0.4000   -0.0040 c3        1 G3R      0.118400
      3 C3          1.9230    0.3040    1.4340 c3        1 G3R      0.186800
      4 N4          1.9080   -1.0470    1.9470 nu        1 G3R     -0.725600
      5 C6          2.1300   -1.2490    3.3130 ca        1 G3R      0.178600
      6 C7          2.8500   -0.3040    4.0980 ca        1 G3R     -0.193000
      7 C19         3.1510   -0.5700    5.4180 ca        1 G3R     -0.042000
      8 C8          1.7060   -2.4520    3.9100 ca        1 G3R     -0.246300
      9 C9          2.0100   -2.7350    5.2590 ca        1 G3R      0.450600
     10 C18         2.7440   -1.7720    6.0130 ca        1 G3R     -0.178300
     11 N10         1.5750   -3.9450    5.8140 nc        1 G3R     -0.690000
     12 C11         1.8400   -4.2380    7.0700 cd        1 G3R      0.588800
     13 N12         2.5710   -3.3540    7.9050 na        1 G3R     -0.029800
     14 N13         2.9250   -3.4960    9.1970 nc        1 G3R     -0.615100
     15 C17         3.0330   -2.0960    7.3890 cc        1 G3R      0.044700
     16 N16         3.6920   -1.4270    8.3630 nd        1 G3R     -0.413300
     17 C14         3.6030   -2.3150    9.4890 cd        1 G3R      0.689200
     18 N15         4.0650   -1.9670   10.7610 nv        1 G3R     -0.845800
     19 C20         1.3820   -5.5380    7.7080 c3        1 G3R     -0.077400
     20 C21         0.6300   -6.4270    6.7800 ca        1 G3R     -0.074300
     21 C22         1.3380   -7.4160    6.0610 ca        1 G3R     -0.095000
     22 C23         0.5880   -8.2310    5.2410 ca        1 G3R      0.053100
     23 O24         1.0160   -9.2780    4.4290 os        1 G3R     -0.334900
     24 C25        -0.1600   -9.8050    3.7730 c3        1 G3R      0.321200
     25 O26        -1.3020   -9.0430    4.2290 os        1 G3R     -0.334900
     26 C27        -0.8190   -8.0890    5.1180 ca        1 G3R      0.060100
     27 C28        -1.5160   -7.1240    5.8160 ca        1 G3R     -0.113000
     28 C29        -0.7540   -6.2910    6.6550 ca        1 G3R     -0.110000
     29 H1         -0.2850    0.0680   -0.8920 ho        1 G3R      0.408000
     30 H21C        1.9760   -0.2720   -0.6940 h1        1 G3R      0.036700
     31 H22C        1.4990    1.4630   -0.3520 h1        1 G3R      0.036700
     32 H31C        2.9900    0.6680    1.4320 h1        1 G3R      0.050200
     33 H32C        1.3140    1.0000    2.0810 h1        1 G3R      0.050200
     34 H4          1.1630   -1.6000    1.5700 hn        1 G3R      0.416800
     35 H7          3.1810    0.6460    3.6520 ha        1 G3R      0.139000
     36 H8          1.1370   -3.1930    3.3260 ha        1 G3R      0.156000
     37 H19         3.7120    0.1660    6.0180 ha        1 G3R      0.156000
     38 H201        2.2930   -6.0730    8.0960 hc        1 G3R      0.085700
     39 H202        0.7370   -5.2790    8.5930 hc        1 G3R      0.085700
     40 H151        4.7690   -1.2610   10.7520 hn        1 G3R      0.408800
     41 H152        4.2870   -2.7490   11.3390 hn        1 G3R      0.408800
     42 H22         2.4270   -7.5230    6.1490 ha        1 G3R      0.156000
     43 H29        -1.2740   -5.5060    7.2250 ha        1 G3R      0.140000
     44 H251       -0.2950  -10.8700    4.0840 h2        1 G3R      0.071700
     45 H252       -0.0500   -9.6590    2.6710 h2        1 G3R      0.071700
     46 H28        -2.6020   -7.0070    5.7240 ha        1 G3R      0.155000
@<TRIPOS>BOND
     1    1    2 1   
     2    1   29 1   
     3    2    3 1   
     4    2   30 1   
     5    2   31 1   
     6    3    4 1   
     7    3   32 1   
     8    3   33 1   
     9    4    5 1   
    10    4   34 1   
    11    5    6 ar  
    12    5    8 ar  
    13    6    7 ar  
    14    6   35 1   
    15    7   10 ar  
    16    7   37 1   
    17    8    9 ar  
    18    8   36 1   
    19    9   10 ar  
    20    9   11 1   
    21   10   15 1   
    22   11   12 2   
    23   12   13 1   
    24   12   19 1   
    25   13   14 1   
    26   13   15 1   
    27   14   17 2   
    28   15   16 2   
    29   16   17 1   
    30   17   18 1   
    31   18   40 1   
    32   18   41 1   
    33   19   20 1   
    34   19   38 1   
    35   19   39 1   
    36   20   21 ar  
    37   20   28 ar  
    38   21   22 ar  
    39   21   42 1   
    40   22   23 1   
    41   22   26 ar  
    42   23   24 1   
    43   24   25 1   
    44   24   44 1   
    45   24   45 1   
    46   25   26 1   
    47   26   27 ar  
    48   27   28 ar  
    49   27   46 1   
    50   28   43 1   
@<TRIPOS>SUBSTRUCTURE
     1 G3R         1 TEMP              0 ****  ****    0 ROOT
