@<TRIPOS>MOLECULE
G3R
   48    52     1     0     0
SMALL
bcc


@<TRIPOS>ATOM
      1 O1          1.1020    1.1130    0.0750 oh        1 G3R     -0.637800
      2 C2          1.5650   -0.2020   -0.1700 c3        1 G3R      0.107400
      3 C3          2.0380   -0.7590    1.1790 c3        1 G3R      0.102800
      4 N4          0.9880   -0.6040    2.2400 n4        1 G3R     -0.637400
      5 C6          1.4820   -0.9580    3.5750 ca        1 G3R     -0.007400
      6 C7          2.2050    0.0070    4.3150 ca        1 G3R     -0.111000
      7 C19         2.6590   -0.3080    5.5860 ca        1 G3R     -0.042000
      8 C8          1.2180   -2.2270    4.0910 ca        1 G3R     -0.134300
      9 C9          1.6800   -2.5570    5.3910 ca        1 G3R      0.438600
     10 C18         2.4030   -1.5760    6.1290 ca        1 G3R     -0.102300
     11 N10         1.4050   -3.8320    5.8950 nc        1 G3R     -0.641000
     12 C11         1.7940   -4.2070    7.0850 cd        1 G3R      0.627800
     13 N12         2.5350   -3.2870    7.9310 na        1 G3R      0.002200
     14 N13         3.0100   -3.4660    9.1540 nc        1 G3R     -0.445100
     15 C17         2.8440   -1.9640    7.4530 cc        1 G3R      0.022700
     16 N16         3.5360   -1.2920    8.4100 nd        1 G3R     -0.311300
     17 C14         3.6210   -2.2520    9.4510 cd        1 G3R      0.490200
     18 N15         4.2950   -1.9670   10.7130 n4        1 G3R     -0.736600
     19 C20         1.5190   -5.5810    7.6720 c3        1 G3R     -0.069400
     20 C21         0.7950   -6.4810    6.7360 ca        1 G3R     -0.128300
     21 C22         1.5470   -7.2440    5.8120 ca        1 G3R     -0.104000
     22 C23         0.8320   -8.0970    5.0010 ca        1 G3R      0.062100
     23 O24         1.3030   -8.9550    4.0180 os        1 G3R     -0.326900
     24 C25         0.1530   -9.6680    3.4960 c3        1 G3R      0.320200
     25 O26        -1.0240   -9.1460    4.1660 os        1 G3R     -0.315900
     26 C27        -0.5840   -8.2130    5.0890 ca        1 G3R      0.091100
     27 C28        -1.3200   -7.4720    5.9910 ca        1 G3R     -0.114000
     28 C29        -0.5940   -6.5950    6.8170 ca        1 G3R     -0.100000
     29 H1          1.0890    1.5890   -0.7670 ho        1 G3R      0.464000
     30 H21C        2.4400   -0.2130   -0.8750 h1        1 G3R      0.082200
     31 H22C        0.7310   -0.8220   -0.5980 h1        1 G3R      0.082200
     32 H31C        2.2890   -1.8520    1.0740 hx        1 G3R      0.116700
     33 H32C        2.9520   -0.1950    1.5240 hx        1 G3R      0.116700
     34 H4          0.1760   -1.1880    2.0030 hn        1 G3R      0.474800
     35 H7          2.4110    1.0090    3.8980 ha        1 G3R      0.181000
     36 H8          0.6530   -2.9880    3.5190 ha        1 G3R      0.191000
     37 H19         3.2220    0.4420    6.1710 ha        1 G3R      0.193000
     38 H201        0.9190   -5.4370    8.6150 hc        1 G3R      0.100200
     39 H202        2.5080   -6.0410    7.9550 hc        1 G3R      0.100200
     40 H151        4.2520   -2.7890   11.3340 hn        1 G3R      0.491800
     41 H152        3.8320   -1.1660   11.1670 hn        1 G3R      0.491800
     42 H22         2.6400   -7.1710    5.7540 ha        1 G3R      0.153000
     43 H29        -1.1510   -5.9980    7.5560 ha        1 G3R      0.139000
     44 H251        0.2570  -10.7520    3.7490 h2        1 G3R      0.091700
     45 H252        0.0650   -9.4490    2.4040 h2        1 G3R      0.091700
     46 H28        -2.4120   -7.5660    6.0710 ha        1 G3R      0.175000
     47 H42         0.6820    0.3850    2.2400 hn        1 G3R      0.474800
     48 H153        5.2800   -1.7300   10.5210 hn        1 G3R      0.491800
@<TRIPOS>BOND
     1    1    2 1   
     2    1   29 1   
     3    2    3 1   
     4    2   30 1   
     5    2   31 1   
     6    3    4 1   
     7    3   32 1   
     8    3   33 1   
     9    4    5 1   
    10    4   34 1   
    11    4   47 1   
    12    5    6 ar  
    13    5    8 ar  
    14    6    7 ar  
    15    6   35 1   
    16    7   10 ar  
    17    7   37 1   
    18    8    9 ar  
    19    8   36 1   
    20    9   10 ar  
    21    9   11 1   
    22   10   15 1   
    23   11   12 2   
    24   12   13 1   
    25   12   19 1   
    26   13   14 1   
    27   13   15 1   
    28   14   17 2   
    29   15   16 2   
    30   16   17 1   
    31   17   18 1   
    32   18   40 1   
    33   18   41 1   
    34   18   48 1   
    35   19   20 1   
    36   19   38 1   
    37   19   39 1   
    38   20   21 ar  
    39   20   28 ar  
    40   21   22 ar  
    41   21   42 1   
    42   22   23 1   
    43   22   26 ar  
    44   23   24 1   
    45   24   25 1   
    46   24   44 1   
    47   24   45 1   
    48   25   26 1   
    49   26   27 ar  
    50   27   28 ar  
    51   27   46 1   
    52   28   43 1   
@<TRIPOS>SUBSTRUCTURE
     1 G3R         1 TEMP              0 ****  ****    0 ROOT
