@<TRIPOS>MOLECULE
G3X
   63    67     1     0     0
SMALL
bcc


@<TRIPOS>ATOM
      1 C1          0.0430    0.2360    0.0590 c2        1 G3X     -0.147200
      2 C2          1.3740    0.1610    0.0790 c2        1 G3X     -0.191200
      3 C3          2.1820   -0.0380    1.3220 c3        1 G3X      0.179300
      4 C4          1.4010    0.3830    2.5610 c3        1 G3X     -0.118400
      5 O5         -0.0260   -1.5350    2.8880 os        1 G3X     -0.310900
      6 C6         -1.4710   -3.4370    2.2380 ca        1 G3X      0.107100
      7 C7         -2.5140   -3.8470    1.3900 ca        1 G3X     -0.171000
      8 C8         -3.0820   -2.9590    0.4790 ca        1 G3X     -0.121000
      9 C9         -3.2580   -0.7020   -0.6310 c3        1 G3X      0.228100
     10 N10        -3.7400    0.5320   -0.0250 n3        1 G3X     -0.745600
     11 C11        -2.7060    1.5310    0.1990 c3        1 G3X      0.185800
     12 C12        -1.8010    1.2600    1.4000 c3        1 G3X     -0.061400
     13 C13        -1.0200   -2.1180    2.1150 ca        1 G3X      0.084100
     14 C14        -1.5740   -1.2350    1.1640 ca        1 G3X     -0.104300
     15 C15        -2.6240   -1.6390    0.3530 ca        1 G3X     -0.052300
     16 C16        -1.3350   -5.5600    3.2920 c3        1 G3X      0.111700
     17 O17        -0.8520   -4.2260    3.1850 os        1 G3X     -0.307900
     18 O18         2.6490   -1.3730    1.4270 oh        1 G3X     -0.593800
     19 C19        -4.9130    1.0680   -0.7030 c3        1 G3X      0.181800
     20 C20        -6.2040    0.3320   -0.3360 c3        1 G3X     -0.084400
     21 C21        -7.3590    0.9510   -1.1220 c3        1 G3X      0.170800
     22 N22        -8.6800    0.5360   -0.6670 n3        1 G3X     -0.726600
     23 C23        -8.8810   -0.9040   -0.7480 c3        1 G3X      0.169300
     24 C24       -10.2770   -1.3520   -0.3170 c3        1 G3X     -0.077400
     25 C25       -11.3510   -0.5920   -1.0630 c3        1 G3X     -0.078400
     26 C26       -11.1380    0.8980   -0.9120 c3        1 G3X     -0.077400
     27 C27        -9.7280    1.2970   -1.3400 c3        1 G3X      0.169300
     28 C41        -0.0320   -0.1030    2.5790 c3        1 G3X      0.132100
     29 C42        -0.8450    0.0850    1.2510 c3        1 G3X      0.019500
     30 H1         -0.4930    0.3810   -0.8950 ha        1 G3X      0.129000
     31 H2          1.9620    0.2330   -0.8490 ha        1 G3X      0.135000
     32 H3          3.1320    0.5700    1.2560 h1        1 G3X      0.075700
     33 H4          1.9260   -0.0160    3.4690 hc        1 G3X      0.069700
     34 H4A         1.3870    1.5020    2.6200 hc        1 G3X      0.069700
     35 H7         -2.8990   -4.8750    1.4520 ha        1 G3X      0.139000
     36 H8         -3.9150   -3.3040   -0.1520 ha        1 G3X      0.133000
     37 H9         -4.1280   -1.2310   -1.1190 h1        1 G3X      0.039700
     38 H9A        -2.5010   -0.4910   -1.4480 h1        1 G3X      0.039700
     39 H11        -3.2090    2.5210    0.4080 h1        1 G3X      0.030700
     40 H11A       -2.0670    1.6780   -0.7220 h1        1 G3X      0.030700
     41 H12        -2.4370    1.0930    2.3100 hc        1 G3X      0.056200
     42 H12A       -1.1910    2.1880    1.5700 hc        1 G3X      0.056200
     43 H16        -0.7020   -5.9990    4.1040 h1        1 G3X      0.044033
     44 H16A       -1.1850   -6.1130    2.3330 h1        1 G3X      0.044033
     45 H16B       -2.4130   -5.5680    3.5840 h1        1 G3X      0.044033
     46 HO18        1.8860   -1.9320    1.6280 ho        1 G3X      0.418000
     47 H19        -5.0440    2.1490   -0.4110 h1        1 G3X      0.029700
     48 H19A       -4.7890    1.0400   -1.8260 h1        1 G3X      0.029700
     49 H20        -6.3880    0.4160    0.7670 hc        1 G3X      0.057700
     50 H20A       -6.1180   -0.7580   -0.5810 hc        1 G3X      0.057700
     51 H21        -7.3100    2.0720   -1.0060 h1        1 G3X      0.027200
     52 H21A       -7.2070    0.7200   -2.2190 h1        1 G3X      0.027200
     53 H23        -8.6890   -1.2890   -1.7940 h1        1 G3X      0.028450
     54 H23A       -8.1270   -1.3870   -0.0630 h1        1 G3X      0.028450
     55 H24       -10.4000   -1.1910    0.7850 hc        1 G3X      0.046950
     56 H24A      -10.3710   -2.4500   -0.5160 hc        1 G3X      0.046950
     57 H25       -11.3250   -0.8690   -2.1500 hc        1 G3X      0.039700
     58 H25A      -12.3610   -0.8740   -0.6680 hc        1 G3X      0.039700
     59 H26       -11.3070    1.1960    0.1560 hc        1 G3X      0.046950
     60 H26A      -11.8710    1.4600   -1.5450 hc        1 G3X      0.046950
     61 H27        -9.5690    2.3830   -1.0880 h1        1 G3X      0.028450
     62 H27A       -9.6540    1.1930   -2.4630 h1        1 G3X      0.028450
     63 H41        -0.5840    0.3830    3.4310 h1        1 G3X      0.065700
@<TRIPOS>BOND
     1    1    2 2   
     2    1   29 1   
     3    1   30 1   
     4    2    3 1   
     5    2   31 1   
     6    3    4 1   
     7    3   18 1   
     8    3   32 1   
     9    4   28 1   
    10    4   33 1   
    11    4   34 1   
    12    5   13 1   
    13    5   28 1   
    14    6    7 ar  
    15    6   13 ar  
    16    6   17 1   
    17    7    8 ar  
    18    7   35 1   
    19    8   15 ar  
    20    8   36 1   
    21    9   10 1   
    22    9   15 1   
    23    9   37 1   
    24    9   38 1   
    25   10   11 1   
    26   10   19 1   
    27   11   12 1   
    28   11   39 1   
    29   11   40 1   
    30   12   29 1   
    31   12   41 1   
    32   12   42 1   
    33   13   14 ar  
    34   14   15 ar  
    35   14   29 1   
    36   16   17 1   
    37   16   43 1   
    38   16   44 1   
    39   16   45 1   
    40   18   46 1   
    41   19   20 1   
    42   19   47 1   
    43   19   48 1   
    44   20   21 1   
    45   20   49 1   
    46   20   50 1   
    47   21   22 1   
    48   21   51 1   
    49   21   52 1   
    50   22   23 1   
    51   22   27 1   
    52   23   24 1   
    53   23   53 1   
    54   23   54 1   
    55   24   25 1   
    56   24   55 1   
    57   24   56 1   
    58   25   26 1   
    59   25   57 1   
    60   25   58 1   
    61   26   27 1   
    62   26   59 1   
    63   26   60 1   
    64   27   61 1   
    65   27   62 1   
    66   28   29 1   
    67   28   63 1   
@<TRIPOS>SUBSTRUCTURE
     1 G3X         1 TEMP              0 ****  ****    0 ROOT
