@<TRIPOS>MOLECULE
G3X
   63    67     1     0     0
SMALL
bcc


@<TRIPOS>ATOM
      1 C1          0.0410    0.2430    0.0620 c2        1 G3X     -0.147200
      2 C2          1.3720    0.1690    0.0820 c2        1 G3X     -0.191200
      3 C3          2.1810   -0.0330    1.3230 c3        1 G3X      0.179300
      4 C4          1.3990    0.3840    2.5640 c3        1 G3X     -0.118400
      5 O5         -0.0250   -1.5360    2.8860 os        1 G3X     -0.310900
      6 C6         -1.4690   -3.4370    2.2310 ca        1 G3X      0.107100
      7 C7         -2.5120   -3.8460    1.3820 ca        1 G3X     -0.171000
      8 C8         -3.0810   -2.9560    0.4740 ca        1 G3X     -0.121000
      9 C9         -3.2590   -0.6960   -0.6300 c3        1 G3X      0.228100
     10 N10        -3.7420    0.5360   -0.0200 n3        1 G3X     -0.745600
     11 C11        -2.7090    1.5350    0.2060 c3        1 G3X      0.185800
     12 C12        -1.8030    1.2620    1.4070 c3        1 G3X     -0.061400
     13 C13        -1.0190   -2.1180    2.1110 ca        1 G3X      0.084100
     14 C14        -1.5750   -1.2320    1.1640 ca        1 G3X     -0.104300
     15 C15        -2.6240   -1.6350    0.3510 ca        1 G3X     -0.052300
     16 C16        -1.3300   -5.5630    3.2780 c3        1 G3X      0.111700
     17 O17        -0.8490   -4.2280    3.1760 os        1 G3X     -0.307900
     18 O18         2.6490   -1.3670    1.4240 oh        1 G3X     -0.593800
     19 C19        -4.9160    1.0730   -0.6970 c3        1 G3X      0.181800
     20 C20        -6.2060    0.3350   -0.3320 c3        1 G3X     -0.084400
     21 C21        -7.3620    0.9550   -1.1160 c3        1 G3X      0.170800
     22 N22        -8.6820    0.5370   -0.6620 n3        1 G3X     -0.726600
     23 C23        -8.8820   -0.9030   -0.7470 c3        1 G3X      0.169300
     24 C24       -10.2770   -1.3530   -0.3180 c3        1 G3X     -0.077400
     25 C25       -11.3520   -0.5920   -1.0610 c3        1 G3X     -0.078400
     26 C26       -11.1400    0.8980   -0.9060 c3        1 G3X     -0.077400
     27 C27        -9.7300    1.2980   -1.3330 c3        1 G3X      0.169300
     28 C41        -0.0320   -0.1030    2.5810 c3        1 G3X      0.132100
     29 C42        -0.8470    0.0880    1.2540 c3        1 G3X      0.019500
     30 H1         -0.4950    0.3900   -0.8910 ha        1 G3X      0.129000
     31 H2          1.9600    0.2450   -0.8470 ha        1 G3X      0.135000
     32 H3          3.1310    0.5760    1.2590 h1        1 G3X      0.075700
     33 H4          1.9250   -0.0170    3.4710 hc        1 G3X      0.069700
     34 H4A         1.3850    1.5030    2.6260 hc        1 G3X      0.069700
     35 H7         -2.8960   -4.8740    1.4410 ha        1 G3X      0.139000
     36 H8         -3.9140   -3.3000   -0.1580 ha        1 G3X      0.133000
     37 H9         -2.5020   -0.4820   -1.4460 h1        1 G3X      0.039700
     38 H9A        -4.1290   -1.2240   -1.1190 h1        1 G3X      0.039700
     39 H11        -2.0700    1.6860   -0.7140 h1        1 G3X      0.030700
     40 H11A       -3.2130    2.5240    0.4190 h1        1 G3X      0.030700
     41 H12        -2.4390    1.0910    2.3160 hc        1 G3X      0.056200
     42 H12A       -1.1940    2.1900    1.5790 hc        1 G3X      0.056200
     43 H16        -1.1800   -6.1130    2.3170 h1        1 G3X      0.044033
     44 H16A       -2.4080   -5.5740    3.5700 h1        1 G3X      0.044033
     45 H16B       -0.6960   -6.0040    4.0890 h1        1 G3X      0.044033
     46 HO18        1.8860   -1.9270    1.6240 ho        1 G3X      0.418000
     47 H19        -4.7910    1.0490   -1.8200 h1        1 G3X      0.029700
     48 H19A       -5.0480    2.1530   -0.4010 h1        1 G3X      0.029700
     49 H20        -6.3910    0.4160    0.7710 hc        1 G3X      0.057700
     50 H20A       -6.1180   -0.7540   -0.5790 hc        1 G3X      0.057700
     51 H21        -7.3140    2.0750   -0.9980 h1        1 G3X      0.027200
     52 H21A       -7.2090    0.7270   -2.2140 h1        1 G3X      0.027200
     53 H23        -8.6900   -1.2840   -1.7940 h1        1 G3X      0.028450
     54 H23A       -8.1280   -1.3870   -0.0640 h1        1 G3X      0.028450
     55 H24       -10.3700   -2.4510   -0.5190 hc        1 G3X      0.046950
     56 H24A      -10.4000   -1.1960    0.7850 hc        1 G3X      0.046950
     57 H25       -12.3620   -0.8770   -0.6670 hc        1 G3X      0.039700
     58 H25A      -11.3260   -0.8660   -2.1490 hc        1 G3X      0.039700
     59 H26       -11.3100    1.1930    0.1620 hc        1 G3X      0.046950
     60 H26A      -11.8740    1.4610   -1.5380 hc        1 G3X      0.046950
     61 H27        -9.5720    2.3850   -1.0790 h1        1 G3X      0.028450
     62 H27A       -9.6570    1.1980   -2.4580 h1        1 G3X      0.028450
     63 H41        -0.5850    0.3800    3.4340 h1        1 G3X      0.065700
@<TRIPOS>BOND
     1    1    2 2   
     2    1   29 1   
     3    1   30 1   
     4    2    3 1   
     5    2   31 1   
     6    3    4 1   
     7    3   18 1   
     8    3   32 1   
     9    4   28 1   
    10    4   33 1   
    11    4   34 1   
    12    5   13 1   
    13    5   28 1   
    14    6    7 ar  
    15    6   13 ar  
    16    6   17 1   
    17    7    8 ar  
    18    7   35 1   
    19    8   15 ar  
    20    8   36 1   
    21    9   10 1   
    22    9   15 1   
    23    9   37 1   
    24    9   38 1   
    25   10   11 1   
    26   10   19 1   
    27   11   12 1   
    28   11   39 1   
    29   11   40 1   
    30   12   29 1   
    31   12   41 1   
    32   12   42 1   
    33   13   14 ar  
    34   14   15 ar  
    35   14   29 1   
    36   16   17 1   
    37   16   43 1   
    38   16   44 1   
    39   16   45 1   
    40   18   46 1   
    41   19   20 1   
    42   19   47 1   
    43   19   48 1   
    44   20   21 1   
    45   20   49 1   
    46   20   50 1   
    47   21   22 1   
    48   21   51 1   
    49   21   52 1   
    50   22   23 1   
    51   22   27 1   
    52   23   24 1   
    53   23   53 1   
    54   23   54 1   
    55   24   25 1   
    56   24   55 1   
    57   24   56 1   
    58   25   26 1   
    59   25   57 1   
    60   25   58 1   
    61   26   27 1   
    62   26   59 1   
    63   26   60 1   
    64   27   61 1   
    65   27   62 1   
    66   28   29 1   
    67   28   63 1   
@<TRIPOS>SUBSTRUCTURE
     1 G3X         1 TEMP              0 ****  ****    0 ROOT
