@<TRIPOS>MOLECULE
G3X
   63    67     1     0     0
SMALL
bcc


@<TRIPOS>ATOM
      1 C1          0.0420    0.2400    0.0610 c2        1 G3X     -0.147200
      2 C2          1.3730    0.1650    0.0820 c2        1 G3X     -0.191200
      3 C3          2.1800   -0.0320    1.3250 c3        1 G3X      0.179300
      4 C4          1.3980    0.3900    2.5630 c3        1 G3X     -0.118400
      5 O5         -0.0270   -1.5280    2.8920 os        1 G3X     -0.310900
      6 C6         -1.4710   -3.4310    2.2430 ca        1 G3X      0.107100
      7 C7         -2.5140   -3.8430    1.3960 ca        1 G3X     -0.171000
      8 C8         -3.0820   -2.9570    0.4830 ca        1 G3X     -0.121000
      9 C9         -3.2580   -0.7010   -0.6300 c3        1 G3X      0.228100
     10 N10        -3.7410    0.5340   -0.0250 n3        1 G3X     -0.745600
     11 C11        -2.7080    1.5330    0.1980 c3        1 G3X      0.185800
     12 C12        -1.8030    1.2640    1.4000 c3        1 G3X     -0.061400
     13 C13        -1.0200   -2.1130    2.1190 ca        1 G3X      0.084100
     14 C14        -1.5750   -1.2310    1.1670 ca        1 G3X     -0.104300
     15 C15        -2.6240   -1.6360    0.3560 ca        1 G3X     -0.052300
     16 C16        -1.3350   -5.5530    3.3000 c3        1 G3X      0.111700
     17 O17        -0.8520   -4.2190    3.1920 os        1 G3X     -0.307900
     18 O18         2.6480   -1.3660    1.4310 oh        1 G3X     -0.593800
     19 C19        -4.9140    1.0680   -0.7050 c3        1 G3X      0.181800
     20 C20        -6.2050    0.3320   -0.3370 c3        1 G3X     -0.084400
     21 C21        -7.3600    0.9500   -1.1250 c3        1 G3X      0.170800
     22 N22        -8.6810    0.5350   -0.6700 n3        1 G3X     -0.726600
     23 C23        -8.8810   -0.9050   -0.7470 c3        1 G3X      0.169300
     24 C24       -10.2770   -1.3530   -0.3170 c3        1 G3X     -0.077400
     25 C25       -11.3510   -0.5950   -1.0650 c3        1 G3X     -0.078400
     26 C26       -11.1390    0.8960   -0.9170 c3        1 G3X     -0.077400
     27 C27        -9.7280    1.2940   -1.3450 c3        1 G3X      0.169300
     28 C41        -0.0340   -0.0960    2.5810 c3        1 G3X      0.132100
     29 C42        -0.8470    0.0890    1.2530 c3        1 G3X      0.019500
     30 H1         -0.4930    0.3830   -0.8930 ha        1 G3X      0.129000
     31 H2          1.9610    0.2370   -0.8460 ha        1 G3X      0.135000
     32 H3          3.1310    0.5770    1.2590 h1        1 G3X      0.075700
     33 H4          1.3850    1.5100    2.6210 hc        1 G3X      0.069700
     34 H4A         1.9230   -0.0070    3.4730 hc        1 G3X      0.069700
     35 H7         -2.8980   -4.8710    1.4580 ha        1 G3X      0.139000
     36 H8         -3.9140   -3.3030   -0.1480 ha        1 G3X      0.133000
     37 H9         -2.5010   -0.4910   -1.4460 h1        1 G3X      0.039700
     38 H9A        -4.1280   -1.2300   -1.1170 h1        1 G3X      0.039700
     39 H11        -2.0680    1.6800   -0.7220 h1        1 G3X      0.030700
     40 H11A       -3.2120    2.5230    0.4060 h1        1 G3X      0.030700
     41 H12        -1.1940    2.1930    1.5690 hc        1 G3X      0.056200
     42 H12A       -2.4400    1.0970    2.3100 hc        1 G3X      0.056200
     43 H16        -0.7020   -5.9900    4.1140 h1        1 G3X      0.044033
     44 H16A       -1.1850   -6.1070    2.3420 h1        1 G3X      0.044033
     45 H16B       -2.4130   -5.5610    3.5920 h1        1 G3X      0.044033
     46 HO18        1.8850   -1.9250    1.6330 ho        1 G3X      0.418000
     47 H19        -5.0460    2.1500   -0.4140 h1        1 G3X      0.029700
     48 H19A       -4.7890    1.0390   -1.8280 h1        1 G3X      0.029700
     49 H20        -6.3900    0.4180    0.7650 hc        1 G3X      0.057700
     50 H20A       -6.1180   -0.7580   -0.5800 hc        1 G3X      0.057700
     51 H21        -7.2070    0.7170   -2.2210 h1        1 G3X      0.027200
     52 H21A       -7.3110    2.0710   -1.0110 h1        1 G3X      0.027200
     53 H23        -8.6880   -1.2920   -1.7920 h1        1 G3X      0.028450
     54 H23A       -8.1280   -1.3860   -0.0610 h1        1 G3X      0.028450
     55 H24       -10.3710   -2.4510   -0.5130 hc        1 G3X      0.046950
     56 H24A      -10.4010   -1.1900    0.7850 hc        1 G3X      0.046950
     57 H25       -11.3240   -0.8740   -2.1510 hc        1 G3X      0.039700
     58 H25A      -12.3620   -0.8770   -0.6700 hc        1 G3X      0.039700
     59 H26       -11.3090    1.1960    0.1490 hc        1 G3X      0.046950
     60 H26A      -11.8720    1.4560   -1.5520 hc        1 G3X      0.046950
     61 H27        -9.5700    2.3810   -1.0960 h1        1 G3X      0.028450
     62 H27A       -9.6540    1.1880   -2.4690 h1        1 G3X      0.028450
     63 H41        -0.5860    0.3900    3.4320 h1        1 G3X      0.065700
@<TRIPOS>BOND
     1    1    2 2   
     2    1   29 1   
     3    1   30 1   
     4    2    3 1   
     5    2   31 1   
     6    3    4 1   
     7    3   18 1   
     8    3   32 1   
     9    4   28 1   
    10    4   33 1   
    11    4   34 1   
    12    5   13 1   
    13    5   28 1   
    14    6    7 ar  
    15    6   13 ar  
    16    6   17 1   
    17    7    8 ar  
    18    7   35 1   
    19    8   15 ar  
    20    8   36 1   
    21    9   10 1   
    22    9   15 1   
    23    9   37 1   
    24    9   38 1   
    25   10   11 1   
    26   10   19 1   
    27   11   12 1   
    28   11   39 1   
    29   11   40 1   
    30   12   29 1   
    31   12   41 1   
    32   12   42 1   
    33   13   14 ar  
    34   14   15 ar  
    35   14   29 1   
    36   16   17 1   
    37   16   43 1   
    38   16   44 1   
    39   16   45 1   
    40   18   46 1   
    41   19   20 1   
    42   19   47 1   
    43   19   48 1   
    44   20   21 1   
    45   20   49 1   
    46   20   50 1   
    47   21   22 1   
    48   21   51 1   
    49   21   52 1   
    50   22   23 1   
    51   22   27 1   
    52   23   24 1   
    53   23   53 1   
    54   23   54 1   
    55   24   25 1   
    56   24   55 1   
    57   24   56 1   
    58   25   26 1   
    59   25   57 1   
    60   25   58 1   
    61   26   27 1   
    62   26   59 1   
    63   26   60 1   
    64   27   61 1   
    65   27   62 1   
    66   28   29 1   
    67   28   63 1   
@<TRIPOS>SUBSTRUCTURE
     1 G3X         1 TEMP              0 ****  ****    0 ROOT
