@<TRIPOS>MOLECULE
G3X
   63    63     1     0     0
SMALL
bcc


@<TRIPOS>ATOM
      1 C1          2.0820    3.0440   -2.0180 c1        1 G3X     -0.167000
      2 C2          3.8520    3.2710   -2.0190 c1        1 G3X     -0.167000
      3 C3          4.4350    3.9850   -0.6660 c2        1 G3X      0.057000
      4 C4          3.4530    3.7290    0.5940 c3        1 G3X     -0.181000
      5 O5          1.3790    3.9900    1.4940 os        1 G3X     -0.174000
      6 C6         -1.3090    3.4780    1.4760 c1        1 G3X      0.066000
      7 C7         -2.2510    2.6000    0.7660 c2        1 G3X     -0.173000
      8 C8         -1.9490    2.1510   -0.6290 c1        1 G3X     -0.113000
      9 C9         -0.8430    1.2810   -0.4470 c3        1 G3X     -0.021000
     10 N10        -0.0990    0.2520   -1.0370 n3        1 G3X     -0.259000
     11 C11         1.2250    0.6070   -1.1470 c3        1 G3X     -0.061000
     12 C12         1.5940    1.6220   -0.0980 c3        1 G3X     -0.172000
     13 C13        -0.1470    3.8870    0.8530 c2        1 G3X      0.038000
     14 C14         0.0960    3.5180   -0.6450 c2        1 G3X     -0.096000
     15 C15        -0.7360    2.5790   -1.2760 c1        1 G3X     -0.095000
     16 C16        -2.4690    4.9260    2.9680 c3        1 G3X     -0.078000
     17 O17        -1.4430    3.9570    2.8050 o         1 G3X     -0.190000
     18 O18         5.7040    3.5840   -0.4170 oh        1 G3X     -0.316000
     19 C19        -0.2130   -0.9590   -0.2290 c3        1 G3X     -0.068000
     20 C20        -0.7960   -2.1060   -1.0950 c3        1 G3X     -0.160000
     21 C21        -0.9170   -3.3920   -0.2380 c3        1 G3X     -0.072000
     22 N22        -1.6350   -4.4080   -0.9870 n3        1 G3X     -0.245000
     23 C23        -0.7540   -5.5640   -1.2190 c3        1 G3X     -0.074500
     24 C24        -0.4730   -6.3480    0.0570 c3        1 G3X     -0.190000
     25 C25        -1.7140   -6.7150    0.7780 c3        1 G3X     -0.154000
     26 C26        -2.5960   -5.5470    1.0090 c3        1 G3X     -0.190000
     27 C27        -2.8700   -4.7660   -0.2710 c3        1 G3X     -0.074500
     28 C41         2.1990    4.0090    0.3670 c3        1 G3X      0.016000
     29 C42         1.4820    3.0980   -0.6710 c2        1 G3X     -0.016000
     30 H1          1.5530    3.3070   -2.8030 ha        1 G3X      0.140500
     31 H2          4.3350    3.3630   -2.8700 ha        1 G3X      0.140500
     32 H3          4.5680    4.9490   -0.8050 h4        1 G3X      0.121000
     33 H4          3.5180    2.7840    0.8510 hc        1 G3X      0.107000
     34 H4A         3.7640    4.2810    1.3480 hc        1 G3X      0.107000
     35 H7         -3.0960    2.3380    1.1940 ha        1 G3X      0.141000
     36 H8         -2.5800    1.5620   -1.1040 ha        1 G3X      0.139000
     37 H9         -1.7860    1.0080   -0.3930 h1        1 G3X      0.098500
     38 H9A        -0.5030    1.4470    0.4590 h1        1 G3X      0.098500
     39 H11         1.7860   -0.1950   -1.0350 h1        1 G3X      0.090500
     40 H11A        1.3840    0.9910   -2.0390 h1        1 G3X      0.090500
     41 H12         0.9900    1.5270    0.6680 hc        1 G3X      0.091000
     42 H12A        2.5180    1.4590    0.1980 hc        1 G3X      0.091000
     43 H16        -2.0720    5.7760    3.2640 h1        1 G3X      0.083667
     44 H16A       -2.9300    5.0610    2.1120 h1        1 G3X      0.083667
     45 H16B       -3.1120    4.6120    3.6420 h1        1 G3X      0.083667
     46 HO18        5.7080    3.0250    0.2750 ho        1 G3X      0.199000
     47 H19         0.6760   -1.2180    0.1030 h1        1 G3X      0.073000
     48 H19A       -0.8100   -0.7890    0.5340 h1        1 G3X      0.073000
     49 H20        -1.6850   -1.8480   -1.4260 hc        1 G3X      0.093000
     50 H20A       -0.1980   -2.2760   -1.8590 hc        1 G3X      0.093000
     51 H21        -1.4050   -3.1890    0.5900 h1        1 G3X      0.070000
     52 H21A       -0.0180   -3.7230   -0.0150 h1        1 G3X      0.070000
     53 H23        -1.1810   -6.1630   -1.8730 h1        1 G3X      0.089500
     54 H23A        0.0990   -5.2440   -1.5900 h1        1 G3X      0.089500
     55 H24         0.0160   -7.1710   -0.1760 hc        1 G3X      0.083000
     56 H24A        0.0890   -5.8010    0.6490 hc        1 G3X      0.083000
     57 H25        -1.4720   -7.1080    1.6480 hc        1 G3X      0.079500
     58 H25A       -2.2040   -7.3850    0.2500 hc        1 G3X      0.079500
     59 H26        -2.1690   -4.9500    1.6610 hc        1 G3X      0.083000
     60 H26A       -3.4530   -5.8630    1.3790 hc        1 G3X      0.083000
     61 H27        -3.3550   -3.9420   -0.0420 h1        1 G3X      0.089500
     62 H27A       -3.4340   -5.3140   -0.8630 h1        1 G3X      0.089500
     63 H41         2.1750    4.9260    0.0100 h1        1 G3X      0.101000
@<TRIPOS>BOND
     1    1    2 1   
     2    1   30 1   
     3    2   31 1   
     4    3    4 1   
     5    3   18 1   
     6    3   32 1   
     7    4   28 1   
     8    4   33 1   
     9    4   34 1   
    10    5   13 1   
    11    5   28 1   
    12    6    7 1   
    13    6   13 1   
    14    7    8 1   
    15    7   35 1   
    16    8   36 1   
    17    9   10 1   
    18    9   15 1   
    19    9   37 1   
    20    9   38 1   
    21   10   11 1   
    22   10   19 1   
    23   11   12 1   
    24   11   39 1   
    25   11   40 1   
    26   12   29 1   
    27   12   41 1   
    28   12   42 1   
    29   13   14 1   
    30   14   15 1   
    31   14   29 1   
    32   16   17 1   
    33   16   43 1   
    34   16   44 1   
    35   16   45 1   
    36   18   46 1   
    37   19   20 1   
    38   19   47 1   
    39   19   48 1   
    40   20   21 1   
    41   20   49 1   
    42   20   50 1   
    43   21   22 1   
    44   21   51 1   
    45   21   52 1   
    46   22   23 1   
    47   22   27 1   
    48   23   24 1   
    49   23   53 1   
    50   23   54 1   
    51   24   25 1   
    52   24   55 1   
    53   24   56 1   
    54   25   26 1   
    55   25   57 1   
    56   25   58 1   
    57   26   27 1   
    58   26   59 1   
    59   26   60 1   
    60   27   61 1   
    61   27   62 1   
    62   28   29 1   
    63   28   63 1   
@<TRIPOS>SUBSTRUCTURE
     1 G3X         1 TEMP              0 ****  ****    0 ROOT
