@<TRIPOS>MOLECULE
G3X
   63    67     1     0     0
SMALL
bcc


@<TRIPOS>ATOM
      1 C1         -2.9610   -1.9870   -0.8440 c2        1 G3X     -0.147200
      2 C2         -4.2450   -2.2340   -1.1080 c2        1 G3X     -0.191200
      3 C3         -5.3770   -1.8100   -0.2280 c3        1 G3X      0.179300
      4 C4         -4.9030   -1.5620    1.1990 c3        1 G3X     -0.118400
      5 O5         -3.9210    0.6320    0.9910 os        1 G3X     -0.310900
      6 C6         -2.6550    2.4690   -0.0830 ca        1 G3X      0.107100
      7 C7         -1.4970    2.7920   -0.8100 ca        1 G3X     -0.171000
      8 C8         -0.5790    1.8050   -1.1620 ca        1 G3X     -0.121000
      9 C9          0.2240   -0.5850   -1.2150 c3        1 G3X      0.228100
     10 N10         0.7050   -1.3690   -0.0840 n3        1 G3X     -0.745600
     11 C11        -0.1890   -2.4410    0.3220 c3        1 G3X      0.185800
     12 C12        -1.4140   -1.9900    1.1180 c3        1 G3X     -0.061400
     13 C13        -2.8550    1.1250    0.2520 ca        1 G3X      0.084100
     14 C14        -1.9390    0.1250   -0.1400 ca        1 G3X     -0.104300
     15 C15        -0.7830    0.4560   -0.8300 ca        1 G3X     -0.052300
     16 C16        -3.3860    4.7270   -0.0190 c3        1 G3X      0.111700
     17 O17        -3.6170    3.3670    0.3310 os        1 G3X     -0.307900
     18 O18        -6.0500   -0.6800   -0.7600 oh        1 G3X     -0.593800
     19 C19         2.0840   -1.8080   -0.2540 c3        1 G3X      0.181800
     20 C20         3.1040   -0.7010    0.0240 c3        1 G3X     -0.084400
     21 C21         4.5060   -1.2590   -0.2130 c3        1 G3X      0.170800
     22 N22         5.5790   -0.4040    0.2780 n3        1 G3X     -0.726600
     23 C23         5.5760    0.9180   -0.3350 c3        1 G3X      0.169300
     24 C24         6.7220    1.8120    0.1350 c3        1 G3X     -0.077400
     25 C25         8.0580    1.1220   -0.0250 c3        1 G3X     -0.078400
     26 C26         8.0380   -0.2220    0.6690 c3        1 G3X     -0.077400
     27 C27         6.8700   -1.0750    0.1780 c3        1 G3X      0.169300
     28 C41        -3.6170   -0.7700    1.2910 c3        1 G3X      0.132100
     29 C42        -2.4590   -1.2130    0.3310 c3        1 G3X      0.019500
     30 H1         -2.1740   -2.3260   -1.5390 ha        1 G3X      0.129000
     31 H2         -4.5440   -2.7710   -2.0220 ha        1 G3X      0.135000
     32 H3         -6.1720   -2.6120   -0.2230 h1        1 G3X      0.075700
     33 H4         -5.7060   -1.0060    1.7530 hc        1 G3X      0.069700
     34 H4A        -4.7380   -2.5490    1.7040 hc        1 G3X      0.069700
     35 H7         -1.3020    3.8350   -1.0950 ha        1 G3X      0.139000
     36 H8          0.3310    2.0940   -1.7080 ha        1 G3X      0.133000
     37 H9          1.1040   -0.0700   -1.7000 h1        1 G3X      0.039700
     38 H9A        -0.2450   -1.2480   -2.0050 h1        1 G3X      0.039700
     39 H11        -0.5280   -3.0550   -0.5640 h1        1 G3X      0.030700
     40 H11A        0.3820   -3.1390    1.0030 h1        1 G3X      0.030700
     41 H12        -1.9000   -2.9160    1.5280 hc        1 G3X      0.056200
     42 H12A       -1.0770   -1.3620    1.9860 hc        1 G3X      0.056200
     43 H16        -2.4400    5.0990    0.4440 h1        1 G3X      0.044033
     44 H16A       -3.3540    4.8510   -1.1290 h1        1 G3X      0.044033
     45 H16B       -4.2720    5.2580    0.4130 h1        1 G3X      0.044033
     46 HO18       -5.4610    0.0810   -0.6600 ho        1 G3X      0.418000
     47 H19         2.2920   -2.6500    0.4670 h1        1 G3X      0.029700
     48 H19A        2.2630   -2.2120   -1.2950 h1        1 G3X      0.029700
     49 H20         2.9240    0.1760   -0.6500 hc        1 G3X      0.057700
     50 H20A        2.9960   -0.3420    1.0800 hc        1 G3X      0.057700
     51 H21         4.5970   -2.2430    0.3310 h1        1 G3X      0.027200
     52 H21A        4.6210   -1.4760   -1.3180 h1        1 G3X      0.027200
     53 H23         5.6160    0.8490   -1.4630 h1        1 G3X      0.028450
     54 H23A        4.6030    1.4140   -0.0580 h1        1 G3X      0.028450
     55 H24         6.7000    2.7570   -0.4670 hc        1 G3X      0.046950
     56 H24A        6.5670    2.0870    1.2110 hc        1 G3X      0.046950
     57 H25         8.2830    0.9820   -1.1150 hc        1 G3X      0.039700
     58 H25A        8.8710    1.7620    0.4060 hc        1 G3X      0.039700
     59 H26         8.9900   -0.7770    0.4650 hc        1 G3X      0.046950
     60 H26A        7.9580   -0.0730    1.7770 hc        1 G3X      0.046950
     61 H27         6.8150   -2.0060    0.8100 h1        1 G3X      0.028450
     62 H27A        7.0860   -1.3970   -0.8840 h1        1 G3X      0.028450
     63 H41        -3.2480   -0.7730    2.3540 h1        1 G3X      0.065700
@<TRIPOS>BOND
     1    1    2 2   
     2    1   29 1   
     3    1   30 1   
     4    2    3 1   
     5    2   31 1   
     6    3    4 1   
     7    3   18 1   
     8    3   32 1   
     9    4   28 1   
    10    4   33 1   
    11    4   34 1   
    12    5   13 1   
    13    5   28 1   
    14    6    7 ar  
    15    6   13 ar  
    16    6   17 1   
    17    7    8 ar  
    18    7   35 1   
    19    8   15 ar  
    20    8   36 1   
    21    9   10 1   
    22    9   15 1   
    23    9   37 1   
    24    9   38 1   
    25   10   11 1   
    26   10   19 1   
    27   11   12 1   
    28   11   39 1   
    29   11   40 1   
    30   12   29 1   
    31   12   41 1   
    32   12   42 1   
    33   13   14 ar  
    34   14   15 ar  
    35   14   29 1   
    36   16   17 1   
    37   16   43 1   
    38   16   44 1   
    39   16   45 1   
    40   18   46 1   
    41   19   20 1   
    42   19   47 1   
    43   19   48 1   
    44   20   21 1   
    45   20   49 1   
    46   20   50 1   
    47   21   22 1   
    48   21   51 1   
    49   21   52 1   
    50   22   23 1   
    51   22   27 1   
    52   23   24 1   
    53   23   53 1   
    54   23   54 1   
    55   24   25 1   
    56   24   55 1   
    57   24   56 1   
    58   25   26 1   
    59   25   57 1   
    60   25   58 1   
    61   26   27 1   
    62   26   59 1   
    63   26   60 1   
    64   27   61 1   
    65   27   62 1   
    66   28   29 1   
    67   28   63 1   
@<TRIPOS>SUBSTRUCTURE
     1 G3X         1 TEMP              0 ****  ****    0 ROOT
