@<TRIPOS>MOLECULE
G42
   36    37     1     0     0
SMALL
bcc


@<TRIPOS>ATOM
      1 O3P         0.5560    5.5190    3.4240 o         1 G42     -0.732833
      2 P           1.8500    5.2440    2.6980 p5        1 G42      1.590500
      3 O1P         3.0160    5.5290    3.6220 o         1 G42     -0.732833
      4 O2P         1.9450    6.1450    1.4660 o         1 G42     -0.732833
      5 O5'         1.8920    3.6980    2.2400 os        1 G42     -0.741000
      6 C5'         0.9950    3.2610    1.1880 c3        1 G42      0.051000
      7 C4'         1.3810    1.8440    0.7430 c3        1 G42     -0.025000
      8 O4'         0.5340    1.0020    1.1790 os        1 G42     -0.290000
      9 C3'         1.3100    1.7240   -0.8370 c3        1 G42      0.028000
     10 O3'         2.5530    1.6020   -1.3490 oh        1 G42     -0.374000
     11 C2'         0.5190    0.4890   -1.1080 c3        1 G42     -0.188000
     12 C1'         0.4270   -0.1290    0.0750 c3        1 G42      0.172000
     13 N9         -0.8080   -0.7880    0.1820 n         1 G42     -0.267000
     14 C8         -2.2140   -0.1050    0.1850 c2        1 G42      0.343000
     15 N7         -3.1760   -1.2270   -0.3010 n         1 G42     -0.169000
     16 C5         -2.3650   -2.3070   -0.5130 c2        1 G42     -0.437000
     17 C6         -2.8050   -3.6700   -0.9990 c2        1 G42      0.393000
     18 O6         -4.0000   -3.9050   -1.1730 o         1 G42     -0.491000
     19 N1         -1.8670   -4.6810   -1.1750 n         1 G42     -0.406000
     20 C2         -0.5110   -4.4370   -0.9000 c2        1 G42      0.204000
     21 N2          0.4550   -5.4550   -1.1350 n3        1 G42     -0.378000
     22 N3         -0.0910   -3.1420   -0.4360 n1        1 G42     -0.265000
     23 C4         -1.0730   -2.0790   -0.2430 c1        1 G42      0.210000
     24 O8         -2.5290    0.8810    0.8210 o         1 G42     -0.412000
     25 H5'1        1.0640    3.8880    0.4060 h1        1 G42      0.075000
     26 H5'2        0.0570    3.2570    1.5320 h1        1 G42      0.075000
     27 H4'         2.2830    1.6190    1.0640 h1        1 G42      0.101000
     28 H3'         0.8590    2.5080   -1.2190 h1        1 G42      0.102000
     29 HA          2.6230    2.1090   -2.0840 ho        1 G42      0.263000
     30 H2'1       -0.3750    0.7240   -1.4400 hc        1 G42      0.108500
     31 H2'2        0.9860   -0.0830   -1.7590 hc        1 G42      0.108500
     32 H1'         1.1820   -0.7880    0.1800 h2        1 G42      0.107000
     33 H7         -4.0700   -1.1770   -0.4170 hn        1 G42      0.189000
     34 H1         -2.1320   -5.4990   -1.4470 hn        1 G42      0.204000
     35 H2N1        0.1860   -6.2850   -1.4860 hn        1 G42      0.159500
     36 H2N2        1.3460   -5.2870   -0.9860 hn        1 G42      0.159500
@<TRIPOS>BOND
     1    1    2 1   
     2    2    3 1   
     3    2    4 1   
     4    2    5 1   
     5    5    6 1   
     6    6    7 1   
     7    6   25 1   
     8    6   26 1   
     9    7    8 1   
    10    7    9 1   
    11    7   27 1   
    12    8   12 1   
    13    9   10 1   
    14    9   11 1   
    15    9   28 1   
    16   10   29 1   
    17   11   12 1   
    18   11   30 1   
    19   11   31 1   
    20   12   13 1   
    21   12   32 1   
    22   13   14 1   
    23   13   23 1   
    24   14   15 1   
    25   14   24 1   
    26   15   16 1   
    27   15   33 1   
    28   16   17 1   
    29   16   23 1   
    30   17   18 1   
    31   17   19 1   
    32   19   20 1   
    33   19   34 1   
    34   20   21 1   
    35   20   22 1   
    36   21   35 1   
    37   21   36 1   
@<TRIPOS>SUBSTRUCTURE
     1 G42         1 TEMP              0 ****  ****    0 ROOT
