@<TRIPOS>MOLECULE
G44
   47    49     1     0     0
SMALL
bcc


@<TRIPOS>ATOM
      1 C1          2.3800   -0.8890   -0.2600 c3        1 G44     -0.063800
      2 C2          3.5860   -0.8970   -1.1200 ca        1 G44     -0.078300
      3 C3          4.8590   -1.0060   -0.5420 ca        1 G44     -0.080000
      4 C4          5.9990   -1.0090   -1.3440 ca        1 G44     -0.137000
      5 C5          5.8810   -0.9060   -2.7280 ca        1 G44     -0.079000
      6 C6          4.6140   -0.7890   -3.3190 ca        1 G44     -0.195600
      7 C7          3.4710   -0.7850   -2.5090 ca        1 G44     -0.076000
      8 C8          4.5080   -0.6890   -4.7810 c         1 G44      0.652300
      9 O9          5.4370   -1.0580   -5.5300 o         1 G44     -0.669100
     10 C10         3.2600   -0.1310   -5.3590 ca        1 G44     -0.101600
     11 C11         2.7100    1.0610   -4.8850 ca        1 G44     -0.262300
     12 C12         1.5470    1.5400   -5.5210 ca        1 G44      0.445200
     13 N13         0.9510    0.9540   -6.5640 nb        1 G44     -0.697000
     14 C14         1.5110   -0.2070   -7.0570 ca        1 G44      0.657200
     15 N15         0.9750   -0.7210   -8.2420 nh        1 G44     -0.871900
     16 C16         1.2780   -2.0390   -8.7280 c3        1 G44      0.249100
     17 C17         2.7390   -2.2640   -9.0160 ca        1 G44     -0.048300
     18 C18         3.3510   -3.4410   -8.5630 ca        1 G44     -0.109000
     19 C19         4.7380   -3.5520   -8.5680 ca        1 G44     -0.089500
     20 C20         5.5090   -2.4850   -9.0440 ca        1 G44     -0.259900
     21 C21         4.9000   -1.3770   -9.6430 ca        1 G44     -0.089500
     22 C22         3.5110   -1.2750   -9.6390 ca        1 G44     -0.109000
     23 C23         6.9670   -2.4750   -8.8060 ce        1 G44      0.592800
     24 N24         7.2550   -1.8860   -7.4500 n4        1 G44     -0.819600
     25 N25         7.9640   -2.8530   -9.5080 n2        1 G44     -0.713100
     26 C26         2.6490   -0.7930   -6.4270 ca        1 G44     -0.286300
     27 H11A        2.4380   -1.7040    0.5050 hc        1 G44      0.056700
     28 H12A        1.4500   -1.0350   -0.8610 hc        1 G44      0.056700
     29 H13         2.3010    0.0890    0.2790 hc        1 G44      0.056700
     30 H3          4.9540   -1.0910    0.5520 ha        1 G44      0.151000
     31 H4          6.9950   -1.0930   -0.8810 ha        1 G44      0.148000
     32 H5          6.7790   -0.9110   -3.3640 ha        1 G44      0.133000
     33 H7          2.4720   -0.6980   -2.9670 ha        1 G44      0.149000
     34 H11         3.1570    1.6110   -4.0470 ha        1 G44      0.162000
     35 H12         1.0580    2.4690   -5.1670 h4        1 G44      0.041100
     36 HN15        0.0890   -0.3560   -8.5260 hn        1 G44      0.453800
     37 H161        0.9330   -2.8290   -7.9930 h1        1 G44      0.069200
     38 H162        0.6980   -2.1850   -9.6870 h1        1 G44      0.069200
     39 H18         2.7380   -4.2650   -8.1620 ha        1 G44      0.167500
     40 H19         5.2190   -4.4620   -8.1770 ha        1 G44      0.150000
     41 H21         5.5080   -0.5760  -10.0920 ha        1 G44      0.150000
     42 H22         3.0240   -0.3900  -10.0830 ha        1 G44      0.167500
     43 H241        8.2580   -1.7920   -7.2640 hn        1 G44      0.476467
     44 H242        6.7970   -0.9650   -7.3880 hn        1 G44      0.476467
     45 HN25        7.7810   -3.2470  -10.4090 hn        1 G44      0.483400
     46 H26         3.0590   -1.7540   -6.7610 ha        1 G44      0.145000
     47 H243        6.8200   -2.4820   -6.7320 hn        1 G44      0.476467
@<TRIPOS>BOND
     1    1    2 1   
     2    1   27 1   
     3    1   28 1   
     4    1   29 1   
     5    2    3 ar  
     6    2    7 ar  
     7    3    4 ar  
     8    3   30 1   
     9    4    5 ar  
    10    4   31 1   
    11    5    6 ar  
    12    5   32 1   
    13    6    7 ar  
    14    6    8 1   
    15    7   33 1   
    16    8    9 2   
    17    8   10 1   
    18   10   11 ar  
    19   10   26 ar  
    20   11   12 ar  
    21   11   34 1   
    22   12   13 ar  
    23   12   35 1   
    24   13   14 ar  
    25   14   15 1   
    26   14   26 ar  
    27   15   16 1   
    28   15   36 1   
    29   16   17 1   
    30   16   37 1   
    31   16   38 1   
    32   17   18 ar  
    33   17   22 ar  
    34   18   19 ar  
    35   18   39 1   
    36   19   20 ar  
    37   19   40 1   
    38   20   21 ar  
    39   20   23 1   
    40   21   22 ar  
    41   21   41 1   
    42   22   42 1   
    43   23   24 1   
    44   23   25 2   
    45   24   43 1   
    46   24   44 1   
    47   24   47 1   
    48   25   45 1   
    49   26   46 1   
@<TRIPOS>SUBSTRUCTURE
     1 G44         1 TEMP              0 ****  ****    0 ROOT
