@<TRIPOS>MOLECULE
G44
   46    48     1     0     0
SMALL
bcc


@<TRIPOS>ATOM
      1 C1         -6.6540   -1.5460    1.9640 c3        1 G44     -0.054800
      2 C2         -6.3050   -0.4440    1.0380 ca        1 G44     -0.089300
      3 C3         -7.2980    0.4240    0.5670 ca        1 G44     -0.103000
      4 C4         -6.9680    1.4760   -0.2850 ca        1 G44     -0.140000
      5 C5         -5.6450    1.6730   -0.6760 ca        1 G44     -0.080000
      6 C6         -4.6440    0.8020   -0.2220 ca        1 G44     -0.168600
      7 C7         -4.9790   -0.2510    0.6360 ca        1 G44     -0.089000
      8 C8         -3.2470    1.0400   -0.6410 c         1 G44      0.586300
      9 O9         -2.8520    2.1660   -0.9730 o         1 G44     -0.522100
     10 C10        -2.3240   -0.1230   -0.6560 ca        1 G44     -0.093600
     11 C11        -2.7340   -1.3740   -1.1250 ca        1 G44     -0.261300
     12 C12        -1.7870   -2.4120   -1.1390 ca        1 G44      0.425200
     13 N13        -0.5170   -2.2900   -0.7310 nb        1 G44     -0.707000
     14 C14        -0.1150   -1.0640   -0.2540 ca        1 G44      0.622200
     15 N15         1.1810   -0.9450    0.2850 nh        1 G44     -0.830900
     16 C16         1.8370    0.3410    0.1540 c3        1 G44      0.229100
     17 C17         3.3350    0.2470    0.1390 ca        1 G44     -0.097300
     18 C18         4.0130   -0.4140    1.1690 ca        1 G44     -0.121000
     19 C19         5.4050   -0.4740    1.1660 ca        1 G44     -0.105500
     20 C20         6.1290    0.1350    0.1350 ca        1 G44     -0.191900
     21 C21         5.4550    0.7980   -0.8930 ca        1 G44     -0.105500
     22 C22         4.0610    0.8490   -0.8930 ca        1 G44     -0.121000
     23 C23         7.6250    0.0460    0.1370 ce        1 G44      0.637800
     24 N24         8.2800    1.2760   -0.0890 nh        1 G44     -0.892800
     25 N25         8.2880   -1.0650    0.2710 n2        1 G44     -0.832100
     26 C26        -1.0080    0.0500   -0.2230 ca        1 G44     -0.248300
     27 H11A       -6.6520   -1.1720    3.0190 hc        1 G44      0.047367
     28 H12A       -7.6720   -1.9490    1.7380 hc        1 G44      0.047367
     29 H13        -5.9170   -2.3830    1.8890 hc        1 G44      0.047367
     30 H3         -8.3440    0.2730    0.8750 ha        1 G44      0.135000
     31 H4         -7.7520    2.1570   -0.6480 ha        1 G44      0.138000
     32 H5         -5.3720    2.5110   -1.3360 ha        1 G44      0.152000
     33 H7         -4.1940   -0.9320    1.0030 ha        1 G44      0.144000
     34 H11        -3.7590   -1.5430   -1.4780 ha        1 G44      0.154000
     35 H12        -2.0610   -3.4170   -1.5130 h4        1 G44      0.025100
     36 HN15        1.7810   -1.7260    0.1080 hn        1 G44      0.419800
     37 H161        1.4880    0.8880   -0.7710 h1        1 G44      0.056200
     38 H162        1.5300    0.9640    1.0470 h1        1 G44      0.056200
     39 H18         3.4460   -0.8850    1.9870 ha        1 G44      0.144500
     40 H19         5.9320   -0.9970    1.9780 ha        1 G44      0.147500
     41 H21         6.0210    1.2730   -1.7100 ha        1 G44      0.147500
     42 H22         3.5350    1.3660   -1.7100 ha        1 G44      0.144500
     43 H241        7.8190    2.0480    0.3380 hn        1 G44      0.398800
     44 H242        9.2660    1.2680    0.0630 hn        1 G44      0.398800
     45 HN25        7.7160   -1.8800    0.3220 hn        1 G44      0.395400
     46 H26        -0.6780    1.0350    0.1380 ha        1 G44      0.159000
@<TRIPOS>BOND
     1    1    2 1   
     2    1   27 1   
     3    1   28 1   
     4    1   29 1   
     5    2    3 ar  
     6    2    7 ar  
     7    3    4 ar  
     8    3   30 1   
     9    4    5 ar  
    10    4   31 1   
    11    5    6 ar  
    12    5   32 1   
    13    6    7 ar  
    14    6    8 1   
    15    7   33 1   
    16    8    9 2   
    17    8   10 1   
    18   10   11 ar  
    19   10   26 ar  
    20   11   12 ar  
    21   11   34 1   
    22   12   13 ar  
    23   12   35 1   
    24   13   14 ar  
    25   14   15 1   
    26   14   26 ar  
    27   15   16 1   
    28   15   36 1   
    29   16   17 1   
    30   16   37 1   
    31   16   38 1   
    32   17   18 ar  
    33   17   22 ar  
    34   18   19 ar  
    35   18   39 1   
    36   19   20 ar  
    37   19   40 1   
    38   20   21 ar  
    39   20   23 1   
    40   21   22 ar  
    41   21   41 1   
    42   22   42 1   
    43   23   24 1   
    44   23   25 2   
    45   24   43 1   
    46   24   44 1   
    47   25   45 1   
    48   26   46 1   
@<TRIPOS>SUBSTRUCTURE
     1 G44         1 TEMP              0 ****  ****    0 ROOT
