@<TRIPOS>MOLECULE
G44
   48    50     1     0     0
SMALL
bcc


@<TRIPOS>ATOM
      1 C1         -0.1830    0.7130    0.0500 c3        1 G44     -0.064800
      2 C2          1.2330    0.2880    0.1340 ca        1 G44     -0.073300
      3 C3          1.8800    0.2620    1.3800 ca        1 G44     -0.078000
      4 C4          3.2040   -0.1580    1.4780 ca        1 G44     -0.125000
      5 C5          3.9010   -0.5560    0.3370 ca        1 G44     -0.063000
      6 C6          3.2700   -0.5160   -0.9150 ca        1 G44     -0.193600
      7 C7          1.9340   -0.1000   -1.0090 ca        1 G44     -0.108000
      8 C8          4.0260   -0.9580   -2.0900 c         1 G44      0.590300
      9 O9          4.9510   -1.7770   -2.0460 o         1 G44     -0.504100
     10 C10         3.6670   -0.3730   -3.4220 ca        1 G44     -0.098600
     11 C11         3.2240    0.9370   -3.5780 ca        1 G44     -0.144300
     12 C12         2.9700    1.4170   -4.8890 ca        1 G44      0.432200
     13 N13         3.1350    0.6810   -5.9920 nb        1 G44     -0.650000
     14 C14         3.5720   -0.6030   -5.8160 ca        1 G44      0.416200
     15 N15         3.7490   -1.4180   -7.0440 n4        1 G44     -0.736700
     16 C16         4.9550   -0.9800   -7.8190 c3        1 G44      0.154100
     17 C17         5.1560   -1.7860   -9.0640 ca        1 G44     -0.125300
     18 C18         6.1290   -2.7920   -9.0980 ca        1 G44     -0.091500
     19 C19         6.3750   -3.4890  -10.2810 ca        1 G44     -0.085000
     20 C20         5.6430   -3.1810  -11.4330 ca        1 G44     -0.221900
     21 C21         4.6640   -2.1800  -11.4040 ca        1 G44     -0.085000
     22 C22         4.4250   -1.4840  -10.2190 ca        1 G44     -0.091500
     23 C23         5.8610   -3.9560  -12.6790 ce        1 G44      0.570800
     24 N24         7.0790   -3.4950  -13.4340 n4        1 G44     -0.820600
     25 N25         5.2020   -4.9170  -13.1960 n2        1 G44     -0.676100
     26 C26         3.8540   -1.1770   -4.5650 ca        1 G44     -0.160300
     27 H11A       -0.3200    1.7110    0.5390 hc        1 G44      0.056700
     28 H12A       -0.8370   -0.0250    0.5810 hc        1 G44      0.056700
     29 H13        -0.5280    0.7880   -1.0100 hc        1 G44      0.056700
     30 H3          1.3300    0.5720    2.2830 ha        1 G44      0.158000
     31 H4          3.7030   -0.1830    2.4600 ha        1 G44      0.160000
     32 H5          4.9430   -0.9080    0.4120 ha        1 G44      0.160000
     33 H7          1.4230   -0.0980   -1.9840 ha        1 G44      0.123000
     34 H11         3.0730    1.5980   -2.7060 ha        1 G44      0.203000
     35 H12         2.6150    2.4550   -5.0570 h4        1 G44      0.073100
     36 HN15        3.8480   -2.4010   -6.7640 hn        1 G44      0.461300
     37 H161        5.8510   -1.0670   -7.1360 hx        1 G44      0.131700
     38 H162        4.8190    0.1120   -8.0840 hx        1 G44      0.131700
     39 H18         6.7180   -3.0340   -8.1960 ha        1 G44      0.171500
     40 H19         7.1370   -4.2870  -10.2910 ha        1 G44      0.169500
     41 H21         4.0780   -1.9360  -12.3070 ha        1 G44      0.169500
     42 H22         3.6670   -0.6820  -10.2080 ha        1 G44      0.171500
     43 H241        7.8910   -3.5510  -12.8100 hn        1 G44      0.477800
     44 H242        6.9380   -2.5210  -13.7240 hn        1 G44      0.477800
     45 HN25        4.3850   -5.2660  -12.7370 hn        1 G44      0.498400
     46 H26         4.2230   -2.2090   -4.4370 ha        1 G44      0.184000
     47 H152        2.9120   -1.3270   -7.6360 hn        1 G44      0.461300
     48 H243        7.2520   -4.0740  -14.2700 hn        1 G44      0.477800
@<TRIPOS>BOND
     1    1    2 1   
     2    1   27 1   
     3    1   28 1   
     4    1   29 1   
     5    2    3 ar  
     6    2    7 ar  
     7    3    4 ar  
     8    3   30 1   
     9    4    5 ar  
    10    4   31 1   
    11    5    6 ar  
    12    5   32 1   
    13    6    7 ar  
    14    6    8 1   
    15    7   33 1   
    16    8    9 2   
    17    8   10 1   
    18   10   11 ar  
    19   10   26 ar  
    20   11   12 ar  
    21   11   34 1   
    22   12   13 ar  
    23   12   35 1   
    24   13   14 ar  
    25   14   15 1   
    26   14   26 ar  
    27   15   16 1   
    28   15   36 1   
    29   15   47 1   
    30   16   17 1   
    31   16   37 1   
    32   16   38 1   
    33   17   18 ar  
    34   17   22 ar  
    35   18   19 ar  
    36   18   39 1   
    37   19   20 ar  
    38   19   40 1   
    39   20   21 ar  
    40   20   23 1   
    41   21   22 ar  
    42   21   41 1   
    43   22   42 1   
    44   23   24 1   
    45   23   25 2   
    46   24   43 1   
    47   24   44 1   
    48   24   48 1   
    49   25   45 1   
    50   26   46 1   
@<TRIPOS>SUBSTRUCTURE
     1 G44         1 TEMP              0 ****  ****    0 ROOT
