@<TRIPOS>MOLECULE
G44
   46    41     1     0     0
SMALL
bcc


@<TRIPOS>ATOM
      1 C1         -0.5700    3.9490    7.3270 c3        1 G44     -0.180000
      2 C2         -0.5550    2.7560    6.3450 c2        1 G44     -0.082000
      3 C3         -1.1850    1.5620    6.6930 c2        1 G44     -0.102000
      4 C4         -1.1760    0.4910    5.8150 c1        1 G44     -0.141000
      5 C5         -0.5420    0.6020    4.5920 c1        1 G44     -0.092000
      6 C6          0.0880    1.7900    4.2400 c1        1 G44     -0.148000
      7 C7          0.0790    2.8710    5.1250 c2        1 G44     -0.076000
      8 C8          0.9100    1.8730    2.9090 c1        1 G44      0.306000
      9 O9          2.1230    1.8240    2.9410 o         1 G44     -0.283000
     10 C10         0.1980    1.8920    1.5920 c2        1 G44     -0.068000
     11 C11        -0.6130    2.9550    1.2640 c2        1 G44     -0.202000
     12 C12        -1.2260    3.0050    0.0150 c1        1 G44     -0.038000
     13 N13        -1.0220    1.9940   -0.8900 n1        1 G44     -0.184000
     14 C14        -0.2130    0.9320   -0.5650 c1        1 G44      0.109000
     15 N15         0.0330   -0.1560   -1.5670 n2        1 G44     -0.279000
     16 C16        -0.1110    0.1140   -2.9750 c3        1 G44     -0.005000
     17 C17         0.1480   -1.1610   -3.7660 c2        1 G44     -0.080000
     18 C18         1.4500   -1.6380   -3.9080 c2        1 G44     -0.133000
     19 C19         1.6890   -2.8100   -4.6310 c1        1 G44     -0.112000
     20 C20         0.6400   -3.4920   -5.2020 c1        1 G44     -0.110000
     21 C21        -0.6690   -3.0110   -5.0580 c1        1 G44     -0.095000
     22 C22        -0.9070   -1.8480   -4.3410 c1        1 G44     -0.116000
     23 C23         0.8980   -4.8390   -5.9670 c2        1 G44      0.114000
     24 N24         1.1900   -4.8210   -7.3510 n3        1 G44     -0.331000
     25 N25         0.8410   -5.9770   -5.3260 n1        1 G44     -0.300000
     26 C26         0.4020    0.8820    0.6870 c2        1 G44     -0.192000
     27 H11A        0.3560    4.1470    7.6210 hc        1 G44      0.086667
     28 H12A       -0.9620    4.7660    6.8630 hc        1 G44      0.086667
     29 H13        -1.1060    3.7280    8.0880 hc        1 G44      0.086667
     30 H3         -1.6220    1.4830    7.5350 ha        1 G44      0.135000
     31 H4         -1.6150   -0.3380    6.0590 ha        1 G44      0.137000
     32 H5         -0.5380   -0.1190    4.0050 ha        1 G44      0.144000
     33 H7          0.5340    3.7320    4.8730 ha        1 G44      0.153000
     34 H11        -0.7600    3.6850    1.9170 ha        1 G44      0.153000
     35 H12        -1.8090    3.7690   -0.2190 ha        1 G44      0.161000
     36 HN15        0.2560   -0.9940   -1.2850 hn        1 G44      0.208000
     37 H161       -1.0240    0.4330   -3.1560 h1        1 G44      0.101000
     38 H162        0.5390    0.8060   -3.2450 h1        1 G44      0.101000
     39 H18         2.1950   -1.1530   -3.5020 ha        1 G44      0.136000
     40 H19         2.6300   -3.1550   -4.7340 ha        1 G44      0.141000
     41 H21        -1.3890   -3.4790   -5.4490 ha        1 G44      0.152000
     42 H22        -1.8180   -1.5140   -4.2410 ha        1 G44      0.143000
     43 H241        1.2700   -4.0420   -7.7810 hn        1 G44      0.194000
     44 H242        1.3200   -5.6210   -7.8090 hn        1 G44      0.194000
     45 HN25        0.6570   -5.9890   -4.4600 DU        1 G44      0.151000
     46 H26         0.9850    0.1190    0.9220 ha        1 G44      0.158000
@<TRIPOS>BOND
     1    1    2 1   
     2    1   27 1   
     3    1   28 1   
     4    1   29 1   
     5    2    3 1   
     6    2    7 1   
     7    3    4 1   
     8    3   30 1   
     9    4   31 1   
    10    5    6 1   
    11    5   32 1   
    12    6    7 1   
    13    7   33 1   
    14    8    9 1   
    15    8   10 1   
    16   10   11 1   
    17   10   26 1   
    18   11   12 1   
    19   11   34 1   
    20   12   35 1   
    21   13   14 1   
    22   14   26 1   
    23   15   16 1   
    24   15   36 1   
    25   16   17 1   
    26   16   37 1   
    27   16   38 1   
    28   17   18 1   
    29   17   22 1   
    30   18   19 1   
    31   18   39 1   
    32   19   40 1   
    33   20   21 1   
    34   20   23 1   
    35   21   41 1   
    36   22   42 1   
    37   23   24 1   
    38   23   25 1   
    39   24   43 1   
    40   24   44 1   
    41   26   46 1   
@<TRIPOS>SUBSTRUCTURE
     1 G44         1 TEMP              0 ****  ****    0 ROOT
