@<TRIPOS>MOLECULE
G44
   47    49     1     0     0
SMALL
bcc


@<TRIPOS>ATOM
      1 C1         -0.1720   -0.3120   -0.2300 c3        1 G44     -0.057800
      2 C2          1.3040   -0.4240   -0.1940 ca        1 G44     -0.085300
      3 C3          1.9690   -0.5310    1.0360 ca        1 G44     -0.097000
      4 C4          3.3550   -0.6580    1.0790 ca        1 G44     -0.135000
      5 C5          4.0940   -0.6770   -0.1030 ca        1 G44     -0.077000
      6 C6          3.4420   -0.5540   -1.3370 ca        1 G44     -0.175600
      7 C7          2.0480   -0.4320   -1.3770 ca        1 G44     -0.096000
      8 C8          4.2480   -0.5900   -2.5720 c         1 G44      0.588300
      9 O9          5.3190   -1.2080   -2.6400 o         1 G44     -0.523100
     10 C10         3.7410    0.1510   -3.7580 ca        1 G44     -0.106600
     11 C11         3.0500    1.3580   -3.6390 ca        1 G44     -0.220300
     12 C12         2.6400    2.0060   -4.8190 ca        1 G44      0.416200
     13 N13         2.8750    1.5440   -6.0550 nb        1 G44     -0.689000
     14 C14         3.5490    0.3560   -6.1720 ca        1 G44      0.572200
     15 N15         3.7390   -0.2110   -7.4710 nu        1 G44     -0.818900
     16 C16         5.1280   -0.3840   -7.8560 c3        1 G44      0.199100
     17 C17         5.3090   -1.4530   -8.8980 ca        1 G44     -0.021300
     18 C18         4.6060   -2.6630   -8.8260 ca        1 G44     -0.107500
     19 C19         4.8230   -3.6600   -9.7730 ca        1 G44     -0.094000
     20 C20         5.7510   -3.4500  -10.8010 ca        1 G44     -0.276900
     21 C21         6.4600   -2.2450  -10.8790 ca        1 G44     -0.094000
     22 C22         6.2360   -1.2520   -9.9300 ca        1 G44     -0.107500
     23 C23         6.0090   -4.5270  -11.7750 ce        1 G44      0.596800
     24 N24         5.5050   -4.1570  -13.1490 nz        1 G44     -0.826600
     25 N25         6.5560   -5.6740  -11.6600 n2        1 G44     -0.713100
     26 C26         4.0020   -0.3630   -5.0340 ca        1 G44     -0.212300
     27 H11A       -0.5320   -0.0000   -1.2410 hc        1 G44      0.049700
     28 H12A       -0.5280    0.4380    0.5190 hc        1 G44      0.049700
     29 H13        -0.6360   -1.3000    0.0190 hc        1 G44      0.049700
     30 H3          1.3870   -0.5190    1.9700 ha        1 G44      0.142000
     31 H4          3.8700   -0.7470    2.0470 ha        1 G44      0.145000
     32 H5          5.1900   -0.7940   -0.0780 ha        1 G44      0.153000
     33 H7          1.5310   -0.3510   -2.3470 ha        1 G44      0.138000
     34 H11         2.8320    1.7970   -2.6540 ha        1 G44      0.166000
     35 H12         2.0910    2.9660   -4.7730 h4        1 G44      0.036100
     36 HN15        3.2270    0.2830   -8.1800 hn        1 G44      0.399800
     37 H161        5.7330   -0.6940   -6.9510 h1        1 G44      0.069700
     38 H162        5.5770    0.5800   -8.2420 h1        1 G44      0.069700
     39 H18         3.8760   -2.8300   -8.0140 ha        1 G44      0.173000
     40 H19         4.2690   -4.6100   -9.7040 ha        1 G44      0.144000
     41 H21         7.2090   -2.0830  -11.6690 ha        1 G44      0.144000
     42 H22         6.7990   -0.3050   -9.9890 ha        1 G44      0.173000
     43 H241        5.9010   -3.2440  -13.3960 hn        1 G44      0.469467
     44 H242        5.7640   -4.8520  -13.8600 hn        1 G44      0.469467
     45 HN25        6.9080   -5.9480  -10.7650 hn        1 G44      0.492400
     46 H26         4.5510   -1.3120   -5.1340 ha        1 G44      0.160000
     47 H243        4.4840   -4.0790  -13.1050 hn        1 G44      0.469467
@<TRIPOS>BOND
     1    1    2 1   
     2    1   27 1   
     3    1   28 1   
     4    1   29 1   
     5    2    3 ar  
     6    2    7 ar  
     7    3    4 ar  
     8    3   30 1   
     9    4    5 ar  
    10    4   31 1   
    11    5    6 ar  
    12    5   32 1   
    13    6    7 ar  
    14    6    8 1   
    15    7   33 1   
    16    8    9 2   
    17    8   10 1   
    18   10   11 ar  
    19   10   26 ar  
    20   11   12 ar  
    21   11   34 1   
    22   12   13 ar  
    23   12   35 1   
    24   13   14 ar  
    25   14   15 1   
    26   14   26 ar  
    27   15   16 1   
    28   15   36 1   
    29   16   17 1   
    30   16   37 1   
    31   16   38 1   
    32   17   18 ar  
    33   17   22 ar  
    34   18   19 ar  
    35   18   39 1   
    36   19   20 ar  
    37   19   40 1   
    38   20   21 ar  
    39   20   23 1   
    40   21   22 ar  
    41   21   41 1   
    42   22   42 1   
    43   23   24 1   
    44   23   25 2   
    45   24   43 1   
    46   24   44 1   
    47   24   47 1   
    48   25   45 1   
    49   26   46 1   
@<TRIPOS>SUBSTRUCTURE
     1 G44         1 TEMP              0 ****  ****    0 ROOT
