@<TRIPOS>MOLECULE
G46
   37    35     1     0     0
SMALL
bcc


@<TRIPOS>ATOM
      1 P           3.3110    1.0540    4.0910 p3        1 G46      2.528000
      2 O1P         4.3850    1.3990    3.1170 os        1 G46     -1.118000
      3 S2P         4.1480    0.0300    5.7210 sh        1 G46     -0.855000
      4 O3P         2.6420    2.3330    4.5830 o         1 G46     -1.085000
      5 O5'         2.2060    0.1090    3.3660 os        1 G46     -0.716000
      6 C5'         1.9310    0.3220    1.9980 c3        1 G46      0.039000
      7 C4'         1.1920   -0.8520    1.4450 c3        1 G46     -0.047000
      8 O4'        -0.0910   -0.6660    1.5510 os        1 G46     -0.271000
      9 C3'         1.5090   -1.0100   -0.1720 c3        1 G46      0.001000
     10 O3'         2.8010   -1.7650   -0.3750 oh        1 G46     -0.358000
     11 C2'         0.5670   -1.6500   -0.6460 c3        1 G46      0.002000
     12 C1'        -0.6810   -1.3400    0.3290 c3        1 G46      0.121000
     13 O2'         0.8810   -3.1100   -0.6380 oh        1 G46     -0.316000
     14 N9         -1.5250   -0.5570   -0.2540 n3        1 G46     -0.157000
     15 C8         -2.4370   -0.5020    0.7660 c1        1 G46     -0.068000
     16 N7         -3.5050    0.2510    0.3400 n2        1 G46     -0.079000
     17 C5         -3.2510    0.6590   -0.9380 c1        1 G46     -0.234000
     18 C6         -4.0580    1.4840   -1.9260 c1        1 G46      0.396000
     19 O6         -5.1460    1.9700   -1.5840 o         1 G46     -0.342000
     20 N1         -3.5330    1.7590   -3.2050 n3        1 G46     -0.345000
     21 C2         -2.2350    1.2580   -3.5720 c2        1 G46      0.198000
     22 N2         -1.7270    1.4840   -4.8980 n3        1 G46     -0.315000
     23 N3         -1.4670    0.4720   -2.6280 n1        1 G46     -0.217000
     24 C4         -2.0230    0.1570   -1.3060 c1        1 G46      0.045000
     25 HS          4.9570    0.7230    6.2510 hs        1 G46      0.138000
     26 H5'1        2.7760    0.4340    1.5090 h1        1 G46      0.072500
     27 H5'2        1.3860    1.1260    1.8960 h1        1 G46      0.072500
     28 H4'         1.4650   -1.7030    1.9390 h1        1 G46      0.141000
     29 H3'         1.5610   -0.1400   -0.5870 h1        1 G46      0.130000
     30 HA          3.3230   -1.3170   -0.9550 ho        1 G46      0.277000
     31 H2'         0.3750   -1.3520   -1.5410 h1        1 G46      0.128000
     32 H1'        -1.1060   -2.1480    0.5780 h2        1 G46      0.148000
     33 HB          0.8540   -3.4270   -1.4790 ho        1 G46      0.228000
     34 H8         -2.3810   -1.0020    1.6310 DU        1 G46      0.219000
     35 H1         -3.9870    2.3500   -3.7800 hn        1 G46      0.243000
     36 H2N1       -2.2580    1.8900   -5.5300 hn        1 G46      0.198000
     37 H2N2       -0.8590    1.2760   -5.0970 hn        1 G46      0.198000
@<TRIPOS>BOND
     1    1    3 1   
     2    1    4 1   
     3    1    5 1   
     4    3   25 1   
     5    5    6 1   
     6    6    7 1   
     7    6   26 1   
     8    6   27 1   
     9    7    8 1   
    10    7    9 1   
    11    7   28 1   
    12    8   12 1   
    13    9   10 1   
    14    9   11 1   
    15    9   29 1   
    16   10   30 1   
    17   11   12 1   
    18   11   13 1   
    19   11   31 1   
    20   12   14 1   
    21   12   32 1   
    22   13   33 1   
    23   14   15 1   
    24   14   24 1   
    25   15   16 1   
    26   16   17 1   
    27   17   24 1   
    28   18   19 1   
    29   18   20 1   
    30   20   21 1   
    31   20   35 1   
    32   21   22 1   
    33   21   23 1   
    34   22   36 1   
    35   22   37 1   
@<TRIPOS>SUBSTRUCTURE
     1 G46         1 TEMP              0 ****  ****    0 ROOT
