@<TRIPOS>MOLECULE
G46
   37    39     1     0     0
SMALL
bcc


@<TRIPOS>ATOM
      1 P          -4.1460    0.7590   -0.4040 p5        1 G46      1.277800
      2 O1P        -4.3390    1.8680   -1.3410 o         1 G46     -0.755500
      3 S2P        -4.6640    1.5940    1.6030 sh        1 G46     -0.716200
      4 O3P        -4.6710   -0.6080   -0.4690 o         1 G46     -0.755500
      5 O5'        -2.5160    0.5620   -0.2160 os        1 G46     -0.552200
      6 C5'        -2.1040   -0.4280    0.6710 c3        1 G46      0.175400
      7 C4'        -1.5760   -1.6680   -0.0650 c3        1 G46      0.061100
      8 O4'        -0.6670   -1.3030   -1.1200 os        1 G46     -0.380600
      9 C3'        -0.8020   -2.5870    0.9030 c3        1 G46      0.128100
     10 O3'        -1.1310   -3.9450    0.7370 oh        1 G46     -0.572800
     11 C2'         0.6890   -2.2920    0.6100 c3        1 G46      0.071100
     12 C1'         0.6800   -1.3970   -0.6760 c3        1 G46      0.215800
     13 O2'         1.3410   -3.5130    0.3260 oh        1 G46     -0.589800
     14 N9          1.2620   -0.0860   -0.4760 na        1 G46     -0.217900
     15 C8          0.6470    1.1880   -0.5190 cc        1 G46      0.451400
     16 N7          1.5260    2.1970   -0.3580 nd        1 G46     -0.612000
     17 C5          2.7690    1.5790   -0.2040 cd        1 G46      0.199800
     18 C6          4.0850    2.1410    0.0110 c         1 G46      0.649000
     19 O6          4.4200    3.3320    0.1050 o         1 G46     -0.612500
     20 N1          5.1200    1.1690    0.1130 n         1 G46     -0.506400
     21 C2          4.8730   -0.2170    0.0510 cd        1 G46      0.644800
     22 N2          5.9860   -1.0770    0.2910 nh        1 G46     -0.879800
     23 N3          3.6610   -0.7690   -0.1670 nc        1 G46     -0.670100
     24 C4          2.6270    0.1480   -0.2750 cc        1 G46      0.062800
     25 HS         -4.6310    2.8800    1.2880 hs        1 G46      0.313800
     26 H5'1       -1.2750    0.0070    1.2990 h1        1 G46      0.046700
     27 H5'2       -2.9590   -0.7460    1.3330 h1        1 G46      0.046700
     28 H4'        -2.4140   -2.2060   -0.5880 h1        1 G46      0.126700
     29 H3'        -1.0560   -2.3640    1.9750 h1        1 G46      0.098700
     30 HA         -0.8250   -4.2130   -0.1390 ho        1 G46      0.412000
     31 H2'         1.1740   -1.7810    1.4820 h1        1 G46      0.070700
     32 H1'         1.2470   -1.9020   -1.5160 h2        1 G46      0.090700
     33 HB          2.2810   -3.3060    0.2400 ho        1 G46      0.415000
     34 H8         -0.4490    1.2800   -0.6660 h5        1 G46      0.132100
     35 H1          6.0330    1.5000    0.3310 hn        1 G46      0.328500
     36 H2N1        6.8050   -0.8110   -0.2140 hn        1 G46      0.401300
     37 H2N2        5.7660   -2.0450    0.1720 hn        1 G46      0.401300
@<TRIPOS>BOND
     1    1    2 1   
     2    1    3 1   
     3    1    4 1   
     4    1    5 1   
     5    3   25 1   
     6    5    6 1   
     7    6    7 1   
     8    6   26 1   
     9    6   27 1   
    10    7    8 1   
    11    7    9 1   
    12    7   28 1   
    13    8   12 1   
    14    9   10 1   
    15    9   11 1   
    16    9   29 1   
    17   10   30 1   
    18   11   12 1   
    19   11   13 1   
    20   11   31 1   
    21   12   14 1   
    22   12   32 1   
    23   13   33 1   
    24   14   15 1   
    25   14   24 1   
    26   15   16 2   
    27   15   34 1   
    28   16   17 1   
    29   17   18 1   
    30   17   24 2   
    31   18   19 2   
    32   18   20 1   
    33   20   21 1   
    34   20   35 1   
    35   21   22 1   
    36   21   23 2   
    37   22   36 1   
    38   22   37 1   
    39   23   24 1   
@<TRIPOS>SUBSTRUCTURE
     1 G46         1 TEMP              0 ****  ****    0 ROOT
