@<TRIPOS>MOLECULE
G47
   42    44     1     0     0
SMALL
bcc


@<TRIPOS>ATOM
      1 P           2.3590   -1.8070   -4.5210 p5        1 G47      1.426800
      2 O1P         2.2690   -0.5970   -5.6200 oh        1 G47     -0.781400
      3 O2P         3.4080   -2.6850   -5.0840 o         1 G47     -0.841500
      4 O3P         1.0000   -2.1990   -4.0970 o         1 G47     -0.841500
      5 O5'         3.0440   -0.9440   -3.2940 os        1 G47     -0.584200
      6 C5'         2.1970   -0.1610   -2.5090 c3        1 G47      0.184400
      7 C4'         2.1740   -0.6960   -1.0690 c3        1 G47      0.084100
      8 O4'         2.2520    0.4010   -0.1460 os        1 G47     -0.439600
      9 C3'         0.9010   -1.5020   -0.7400 c3        1 G47      0.100100
     10 O3'         1.2040   -2.6680    0.0120 oh        1 G47     -0.606800
     11 C2'         0.0450   -0.5330    0.0790 c3        1 G47     -0.139400
     12 C1'         1.0620    0.4580    0.6860 c3        1 G47      0.270800
     13 N9          0.5790    1.7970    0.8450 nh        1 G47     -0.123600
     14 C8         -0.6400    2.3420    0.3720 c1        1 G47      0.055400
     15 N7         -0.7800    3.6340    0.7910 ne        1 G47     -0.613000
     16 C5          0.3420    3.9390    1.5380 cc        1 G47     -0.023600
     17 C6          0.7400    5.1520    2.2230 c         1 G47      0.724700
     18 O6          0.1370    6.2470    2.2960 o         1 G47     -0.698500
     19 N1          1.9730    5.0710    2.9050 n         1 G47     -0.475400
     20 C2          2.7690    3.9030    2.8930 cc        1 G47      0.464800
     21 N2          4.0340    4.0120    3.6110 nh        1 G47     -0.770200
     22 N3          2.4330    2.7650    2.2720 nd        1 G47     -0.563300
     23 C4          1.2340    2.7930    1.6000 cd        1 G47     -0.004500
     24 C6A         4.1460    3.0890    4.7290 c3        1 G47      0.161800
     25 C7A         3.2070    3.4100    5.8790 c3        1 G47      0.027700
     26 SG          3.6340    4.8850    6.7690 sh        1 G47     -0.448900
     27 H5'1        2.6100    0.8880   -2.4850 h1        1 G47      0.045200
     28 H5'2        1.1600   -0.1480   -2.9440 h1        1 G47      0.045200
     29 H4'         3.0970   -1.3130   -0.8880 h1        1 G47      0.064700
     30 H3'         0.3910   -1.8860   -1.6670 h1        1 G47      0.143700
     31 HA          1.7310   -2.3830    0.7680 ho        1 G47      0.380000
     32 H2'1       -0.6880    0.0010   -0.5780 hc        1 G47      0.079700
     33 H2'2       -0.5140   -1.0610    0.8870 hc        1 G47      0.079700
     34 H1'         1.4120    0.0880    1.7010 h2        1 G47      0.025700
     35 H8          3.0600   -0.5440   -6.1430 ho        1 G47      0.418000
     36 H1          2.3180    5.8890    3.3490 hn        1 G47      0.305500
     37 H2          4.7790    3.8320    2.9590 hn        1 G47      0.379800
     38 H6A1        3.9570    2.0160    4.4260 h1        1 G47      0.046700
     39 H6A2        5.2100    3.1540    5.0990 h1        1 G47      0.046700
     40 H7A1        2.1530    3.4780    5.5140 h1        1 G47      0.079200
     41 H7A2        3.2700    2.5960    6.6420 h1        1 G47      0.079200
     42 HS1         3.5720    5.7710    5.7840 hs        1 G47      0.234800
@<TRIPOS>BOND
     1    1    2 1   
     2    1    3 1   
     3    1    4 1   
     4    1    5 1   
     5    2   35 1   
     6    5    6 1   
     7    6    7 1   
     8    6   27 1   
     9    6   28 1   
    10    7    8 1   
    11    7    9 1   
    12    7   29 1   
    13    8   12 1   
    14    9   10 1   
    15    9   11 1   
    16    9   30 1   
    17   10   31 1   
    18   11   12 1   
    19   11   32 1   
    20   11   33 1   
    21   12   13 1   
    22   12   34 1   
    23   13   14 2   
    24   13   23 1   
    25   14   15 2   
    26   15   16 1   
    27   16   17 1   
    28   16   23 2   
    29   17   18 2   
    30   17   19 1   
    31   19   20 1   
    32   19   36 1   
    33   20   21 1   
    34   20   22 2   
    35   21   24 1   
    36   21   37 1   
    37   22   23 1   
    38   24   25 1   
    39   24   38 1   
    40   24   39 1   
    41   25   26 1   
    42   25   40 1   
    43   25   41 1   
    44   26   42 1   
@<TRIPOS>SUBSTRUCTURE
     1 G47         1 TEMP              0 ****  ****    0 ROOT
