@<TRIPOS>MOLECULE
G48
   46    48     1     0     0
SMALL
bcc


@<TRIPOS>ATOM
      1 P           3.6890    0.6930    0.7330 p5        1 G48      1.346900
      2 OP1         3.2580    1.9480    1.4550 o         1 G48     -0.921833
      3 OP3         2.7410   -0.4520    1.0340 o         1 G48     -0.921833
      4 O5'         3.1480    1.1550   -0.8490 os        1 G48     -0.570200
      5 C5'         2.0530    0.5230   -1.3660 c3        1 G48      0.222400
      6 C4'         0.7400    1.3040   -1.1100 c3        1 G48      0.066100
      7 O4'        -0.3710    0.4900   -1.5630 os        1 G48     -0.427600
      8 C3'         0.4980    1.6210    0.3800 c3        1 G48      0.082100
      9 O3'         0.7520    2.9690    0.6780 oh        1 G48     -0.670800
     10 C2'        -0.9510    1.2010    0.6640 c3        1 G48      0.104100
     11 O2'        -1.9670    2.1930    0.5170 os        1 G48     -0.434600
     12 C1'        -1.2450    0.1790   -0.4850 c3        1 G48      0.250800
     13 N9         -1.0910   -1.2040   -0.0530 na        1 G48     -0.199900
     14 C8          0.0290   -1.8570    0.5220 cc        1 G48      0.463400
     15 N7         -0.2120   -3.1620    0.7840 nd        1 G48     -0.645000
     16 C5         -1.5210   -3.3920    0.3680 cd        1 G48      0.208800
     17 C6         -2.3230   -4.5960    0.3930 c         1 G48      0.641000
     18 O6         -2.0250   -5.7320    0.8060 o         1 G48     -0.652500
     19 N1         -3.6360   -4.4310   -0.1210 n         1 G48     -0.494400
     20 C2         -4.0960   -3.2030   -0.6370 cd        1 G48      0.572800
     21 N2         -5.4330   -3.2210   -1.1890 nh        1 G48     -0.863800
     22 N3         -3.3820   -2.0700   -0.6610 nc        1 G48     -0.614100
     23 C4         -2.0900   -2.1790   -0.1690 cc        1 G48      0.032800
     24 CA'        -1.8520    3.2960    1.4080 c3        1 G48      0.152400
     25 CB'        -1.4190    4.5370    0.6350 c3        1 G48      0.110400
     26 OC'        -2.5650    5.3960    0.5330 os        1 G48     -0.447600
     27 CD'        -2.3490    6.4700   -0.3570 c3        1 G48      0.127700
     28 OP2         5.1410    0.3880    0.5790 o         1 G48     -0.921833
     29 H5'         2.1660    0.4520   -2.4890 h1        1 G48      0.001200
     30 H5''        1.9380   -0.5170   -0.9500 h1        1 G48      0.001200
     31 H4'         0.7000    2.2370   -1.7280 h1        1 G48      0.047700
     32 H3'         1.2000    0.9580    0.9990 h1        1 G48      0.157700
     33 HO3'        1.7070    2.9880    0.9480 ho        1 G48      0.500000
     34 H2'        -1.0400    0.7530    1.6880 h1        1 G48      0.054700
     35 H1'        -2.2910    0.3100   -0.8900 h2        1 G48      0.094700
     36 H8          1.0150   -1.3240    0.7300 h5        1 G48      0.207100
     37 H1         -4.2110   -5.2390   -0.1920 hn        1 G48      0.319500
     38 H21        -6.1020   -3.1940   -0.4420 hn        1 G48      0.374800
     39 H22        -5.5740   -2.4340   -1.7940 hn        1 G48      0.374800
     40 HCA2       -2.8810    3.4370    1.8370 h1        1 G48      0.050200
     41 HCA1       -1.1110    3.0890    2.2230 h1        1 G48      0.050200
     42 HCB1       -0.6070    5.0830    1.1810 h1        1 G48      0.058700
     43 HCB2       -1.0490    4.2500   -0.3840 h1        1 G48      0.058700
     44 HCD1       -1.4920    7.1040   -0.0150 h1        1 G48      0.017367
     45 HCD2       -2.1440    6.0950   -1.3910 h1        1 G48      0.017367
     46 HCD3       -3.2990    7.0600   -0.3380 h1        1 G48      0.017367
@<TRIPOS>BOND
     1    1    2 1   
     2    1    3 1   
     3    1    4 1   
     4    1   28 1   
     5    4    5 1   
     6    5    6 1   
     7    5   29 1   
     8    5   30 1   
     9    6    7 1   
    10    6    8 1   
    11    6   31 1   
    12    7   12 1   
    13    8    9 1   
    14    8   10 1   
    15    8   32 1   
    16    9   33 1   
    17   10   11 1   
    18   10   12 1   
    19   10   34 1   
    20   11   24 1   
    21   12   13 1   
    22   12   35 1   
    23   13   14 1   
    24   13   23 1   
    25   14   15 2   
    26   14   36 1   
    27   15   16 1   
    28   16   17 1   
    29   16   23 2   
    30   17   18 2   
    31   17   19 1   
    32   19   20 1   
    33   19   37 1   
    34   20   21 1   
    35   20   22 2   
    36   21   38 1   
    37   21   39 1   
    38   22   23 1   
    39   24   25 1   
    40   24   40 1   
    41   24   41 1   
    42   25   26 1   
    43   25   42 1   
    44   25   43 1   
    45   26   27 1   
    46   27   44 1   
    47   27   45 1   
    48   27   46 1   
@<TRIPOS>SUBSTRUCTURE
     1 G48         1 TEMP              0 ****  ****    0 ROOT
