@<TRIPOS>MOLECULE
G48
   46    44     1     0     0
SMALL
bcc


@<TRIPOS>ATOM
      1 P           4.7010    0.9830    2.0530 p3        1 G48      2.532000
      2 OP1         5.1020   -0.3520    2.6440 o         1 G48     -1.046333
      3 OP3         5.8900    1.6230    1.4370 o         1 G48     -1.046333
      4 O5'         3.5310    0.7490    0.8820 o         1 G48     -0.758000
      5 C5'         2.2200    0.5130    1.2820 c3        1 G48      0.026000
      6 C4'         1.5740   -0.3170    0.3190 c3        1 G48     -0.063000
      7 O4'         0.3090   -0.8910    0.8930 os        1 G48     -0.290000
      8 C3'         1.1270    0.5440   -0.9560 c3        1 G48      0.190000
      9 O3'         2.0180    0.1850   -2.1900 oh        1 G48     -0.725000
     10 C2'        -0.0380    0.2240   -1.1570 c3        1 G48     -0.077000
     11 O2'        -0.0990   -0.9000   -2.1300 os        1 G48     -0.292000
     12 C1'        -0.6350   -0.2580    0.3100 c3        1 G48      0.162000
     13 N9         -1.0160    0.8880    1.0940 n3        1 G48     -0.117000
     14 C8         -1.2050    2.1840    0.7730 c1        1 G48     -0.036000
     15 N7         -2.0250    2.7440    1.7280 n2        1 G48     -0.116000
     16 C5         -2.3370    1.7790    2.6370 c1        1 G48     -0.223000
     17 C6         -3.1960    1.8070    3.9040 c1        1 G48      0.390000
     18 O6         -3.6500    2.8280    4.2850 o         1 G48     -0.382000
     19 N1         -3.3560    0.6380    4.6710 n3        1 G48     -0.333000
     20 C2         -2.7210   -0.5730    4.2650 c2        1 G48      0.128000
     21 N2         -3.0240   -1.7920    4.9430 n3        1 G48     -0.303000
     22 N3         -1.9050   -0.5980    3.0490 n1        1 G48     -0.174000
     23 C4         -1.7210    0.6290    2.2580 c1        1 G48      0.003000
     24 CA'        -0.8170   -0.5890   -3.3210 c3        1 G48     -0.015000
     25 CB'        -0.4690   -1.6520   -4.4430 c3        1 G48     -0.042000
     26 OC'         0.4940   -1.0880   -5.3450 os        1 G48     -0.318000
     27 CD'         0.9030   -1.9510   -6.3450 c3        1 G48     -0.097000
     28 OP2         4.1450    1.8880    3.1610 o         1 G48     -1.046333
     29 H5'         1.7220    1.4000    1.3600 h1        1 G48      0.059500
     30 H5''        2.2210    0.0950    2.0910 h1        1 G48      0.059500
     31 H4'         2.1840   -1.0510    0.0370 h1        1 G48      0.091000
     32 H3'         1.1880    1.4870   -0.7620 h1        1 G48     -0.009000
     33 HO3'        2.5320    0.8920   -2.4050 ho        1 G48      0.229000
     34 H2'        -0.5590    1.0060   -1.5000 h1        1 G48      0.080000
     35 H1'        -1.4010   -0.8430    0.1830 h2        1 G48      0.126000
     36 H8         -0.8750    2.6040    0.0450 DU        1 G48      0.270000
     37 H1         -3.8620    0.6590    5.4570 hn        1 G48      0.234000
     38 H21        -3.5830   -1.7840    5.6540 hn        1 G48      0.171500
     39 H22        -2.7020   -2.6330    4.5930 hn        1 G48      0.171500
     40 HCA2       -0.5570    0.3280   -3.6370 h1        1 G48      0.074500
     41 HCA1       -1.7360   -0.6090   -3.1470 h1        1 G48      0.074500
     42 HCB1       -0.0950   -2.4610   -4.0240 h1        1 G48      0.100500
     43 HCB2       -1.2570   -1.8780   -4.9210 h1        1 G48      0.100500
     44 HCD1        0.1270   -2.3390   -6.7760 h1        1 G48      0.079000
     45 HCD2        1.4390   -2.6490   -5.9650 h1        1 G48      0.079000
     46 HCD3        1.4150   -1.4710   -6.9850 h1        1 G48      0.079000
@<TRIPOS>BOND
     1    1    2 1   
     2    1    3 1   
     3    1   28 1   
     4    4    5 1   
     5    5    6 1   
     6    5   29 1   
     7    5   30 1   
     8    6    7 1   
     9    6    8 1   
    10    6   31 1   
    11    7   12 1   
    12    8    9 1   
    13    8   10 1   
    14    8   32 1   
    15    9   33 1   
    16   10   11 1   
    17   10   12 1   
    18   10   34 1   
    19   11   24 1   
    20   12   13 1   
    21   12   35 1   
    22   13   14 1   
    23   13   23 1   
    24   14   15 1   
    25   15   16 1   
    26   16   23 1   
    27   17   18 1   
    28   17   19 1   
    29   19   20 1   
    30   19   37 1   
    31   20   21 1   
    32   20   22 1   
    33   21   38 1   
    34   21   39 1   
    35   24   25 1   
    36   24   40 1   
    37   24   41 1   
    38   25   26 1   
    39   25   42 1   
    40   25   43 1   
    41   26   27 1   
    42   27   44 1   
    43   27   45 1   
    44   27   46 1   
@<TRIPOS>SUBSTRUCTURE
     1 G48         1 TEMP              0 ****  ****    0 ROOT
