@<TRIPOS>MOLECULE
G49
   38    40     1     0     0
SMALL
bcc


@<TRIPOS>ATOM
      1 P          -0.0420   -1.4240   -4.8660 p5        1 G49      1.331900
      2 O1P        -1.0960   -2.3490   -4.3310 o         1 G49     -0.930167
      3 O2P        -0.0460   -1.1050   -6.3280 o         1 G49     -0.930167
      4 O3P         1.3120   -1.5790   -4.2000 o         1 G49     -0.930167
      5 O5'        -0.5010    0.0880   -4.1150 os        1 G49     -0.553200
      6 C5'        -0.5910    0.0180   -2.7540 c3        1 G49      0.229400
      7 C4'         0.6700    0.6310   -2.0960 c3        1 G49      0.054100
      8 O4'         0.2930    1.3790   -0.9070 os        1 G49     -0.433600
      9 C3'         1.7270   -0.4120   -1.6820 c3        1 G49      0.158100
     10 O3'         2.9200   -0.2480   -2.4140 oh        1 G49     -0.674800
     11 C2'         2.0220   -0.1290   -0.2010 c3        1 G49     -0.128400
     12 C1'         0.9260    0.8600    0.2470 c3        1 G49      0.252800
     13 N9         -0.0860    0.2690    1.1300 na        1 G49     -0.180900
     14 C8         -1.2900   -0.3640    0.7650 cc        1 G49      0.453400
     15 N7         -2.0320   -0.7550    1.8280 nd        1 G49     -0.632000
     16 C5         -1.2910   -0.3690    2.9420 cd        1 G49      0.199800
     17 C6         -1.5630   -0.5120    4.3560 c         1 G49      0.643000
     18 O6         -2.5500   -1.0240    4.9140 o         1 G49     -0.643500
     19 N1         -0.5460    0.0080    5.1980 n         1 G49     -0.492400
     20 C2          0.6090    0.6330    4.6930 cd        1 G49      0.594800
     21 N2          1.5140    1.1800    5.6880 nh        1 G49     -0.775200
     22 CM2         2.3190    0.1770    6.3430 c3        1 G49      0.150100
     23 N3          0.8970    0.7760    3.3920 nc        1 G49     -0.616100
     24 C4         -0.0670    0.2800    2.5240 cc        1 G49      0.045800
     25 H5'1       -0.7220   -1.0480   -2.4090 h1        1 G49     -0.004300
     26 H5'2       -1.4740    0.6290   -2.3970 h1        1 G49     -0.004300
     27 H4'         1.1190    1.3940   -2.7880 h1        1 G49      0.082700
     28 H3'         1.3350   -1.4570   -1.8330 h1        1 G49      0.106700
     29 HA          2.7330   -0.6420   -3.2990 ho        1 G49      0.502000
     30 H2'1        3.0190    0.3630   -0.0900 hc        1 G49      0.053700
     31 H2'2        2.0270   -1.0710    0.3940 hc        1 G49      0.053700
     32 H1'         1.3530    1.7420    0.8100 h2        1 G49      0.065700
     33 H8         -1.5490   -0.5000   -0.3030 h5        1 G49      0.118100
     34 H1         -0.6960   -0.0260    6.1810 hn        1 G49      0.323500
     35 H2          2.0950    1.8860    5.2690 hn        1 G49      0.395800
     36 HM21        2.9430    0.6940    7.1200 h1        1 G49      0.037700
     37 HM22        1.6530   -0.5670    6.8540 h1        1 G49      0.037700
     38 HM23        3.0020   -0.3810    5.6470 h1        1 G49      0.037700
@<TRIPOS>BOND
     1    1    2 1   
     2    1    3 1   
     3    1    4 1   
     4    1    5 1   
     5    5    6 1   
     6    6    7 1   
     7    6   25 1   
     8    6   26 1   
     9    7    8 1   
    10    7    9 1   
    11    7   27 1   
    12    8   12 1   
    13    9   10 1   
    14    9   11 1   
    15    9   28 1   
    16   10   29 1   
    17   11   12 1   
    18   11   30 1   
    19   11   31 1   
    20   12   13 1   
    21   12   32 1   
    22   13   14 1   
    23   13   24 1   
    24   14   15 2   
    25   14   33 1   
    26   15   16 1   
    27   16   17 1   
    28   16   24 2   
    29   17   18 2   
    30   17   19 1   
    31   19   20 1   
    32   19   34 1   
    33   20   21 1   
    34   20   23 2   
    35   21   22 1   
    36   21   35 1   
    37   22   36 1   
    38   22   37 1   
    39   22   38 1   
    40   23   24 1   
@<TRIPOS>SUBSTRUCTURE
     1 G49         1 TEMP              0 ****  ****    0 ROOT
