@<TRIPOS>MOLECULE
G49
   38    36     1     0     0
SMALL
bcc


@<TRIPOS>ATOM
      1 P          -0.2780    3.0570    5.3990 p3        1 G49      2.517000
      2 O1P        -0.9620    2.8040    6.7720 o         1 G49     -1.244500
      3 O2P        -1.0760    4.0490    4.6210 os        1 G49     -1.238000
      4 O3P         1.1690    3.6150    5.6290 o         1 G49     -1.244500
      5 O5'        -0.1910    1.6630    4.5650 os        1 G49     -0.738000
      6 C5'         0.4230    1.6860    3.2640 c3        1 G49      0.052000
      7 C4'         0.0870    0.4450    2.5380 c3        1 G49     -0.047000
      8 O4'        -0.2870    0.7190    1.3410 os        1 G49     -0.293000
      9 C3'         1.3980   -0.4900    2.4000 c3        1 G49      0.013000
     10 O3'         1.5820   -1.3070    3.6530 oh        1 G49     -0.393000
     11 C2'         1.1890   -1.2270    1.4490 c3        1 G49     -0.197000
     12 C1'         0.1990   -0.4310    0.5210 c3        1 G49      0.162000
     13 N9          0.8300    0.0090   -0.5590 n3        1 G49     -0.145000
     14 C8          1.9650    0.6980   -0.8130 c1        1 G49     -0.016000
     15 N7          2.0530    0.8860   -2.1730 n2        1 G49     -0.114000
     16 C5          0.9600    0.3040   -2.7540 c1        1 G49     -0.207000
     17 C6          0.4800    0.2720   -4.1830 c1        1 G49      0.388000
     18 O6          1.1850    0.7690   -5.0940 o         1 G49     -0.373000
     19 N1         -0.6970   -0.4070   -4.5090 n3        1 G49     -0.330000
     20 C2         -1.4400   -1.0620   -3.4980 c2        1 G49      0.132000
     21 N2         -2.6460   -1.6290   -3.7960 n3        1 G49     -0.259000
     22 CM2        -2.7540   -2.5790   -4.8970 c3        1 G49     -0.126000
     23 N3         -0.9730   -1.0230   -2.1140 n1        1 G49     -0.187000
     24 C4          0.2000   -0.2390   -1.7690 c1        1 G49     -0.023000
     25 H5'1        1.4000    1.7550    3.3620 h1        1 G49      0.055500
     26 H5'2        0.0960    2.4430    2.7700 h1        1 G49      0.055500
     27 H4'        -0.6070   -0.0310    2.9990 h1        1 G49      0.082000
     28 H3'         2.1960    0.0660    2.2320 h1        1 G49      0.196000
     29 HA          2.3930   -1.2430    3.9200 ho        1 G49      0.284000
     30 H2'1        0.7700   -2.0560    1.7550 hc        1 G49      0.090000
     31 H2'2        2.0120   -1.4190    0.9810 hc        1 G49      0.090000
     32 H1'        -0.5490   -1.0010    0.2630 h2        1 G49      0.104000
     33 H8          2.5550    1.0850   -0.1460 DU        1 G49      0.311000
     34 H1         -0.9760   -0.4380   -5.3660 hn        1 G49      0.234000
     35 H2         -3.3790   -1.3980   -3.3280 hn        1 G49      0.186000
     36 HM21       -1.8810   -2.7210   -5.2860 h1        1 G49      0.075000
     37 HM22       -3.0930   -3.4000   -4.5750 h1        1 G49      0.075000
     38 HM23       -3.3570   -2.2220   -5.5750 h1        1 G49      0.075000
@<TRIPOS>BOND
     1    1    2 1   
     2    1    4 1   
     3    1    5 1   
     4    5    6 1   
     5    6    7 1   
     6    6   25 1   
     7    6   26 1   
     8    7    8 1   
     9    7    9 1   
    10    7   27 1   
    11    8   12 1   
    12    9   10 1   
    13    9   11 1   
    14    9   28 1   
    15   10   29 1   
    16   11   12 1   
    17   11   30 1   
    18   11   31 1   
    19   12   13 1   
    20   12   32 1   
    21   13   14 1   
    22   13   24 1   
    23   14   15 1   
    24   15   16 1   
    25   16   24 1   
    26   17   18 1   
    27   17   19 1   
    28   19   20 1   
    29   19   34 1   
    30   20   21 1   
    31   20   23 1   
    32   21   22 1   
    33   21   35 1   
    34   22   36 1   
    35   22   37 1   
    36   22   38 1   
@<TRIPOS>SUBSTRUCTURE
     1 G49         1 TEMP              0 ****  ****    0 ROOT
