@<TRIPOS>MOLECULE
G4D
   23    23     1     0     0
SMALL
bcc


@<TRIPOS>ATOM
      1 C1         -0.7120   -0.6250   -1.3800 c3        1 G4D      0.337900
      2 C2          0.7980   -0.6250   -1.3800 c3        1 G4D      0.139100
      3 C3          1.3620   -0.6250   -0.0070 c3        1 G4D      0.102100
      4 C4          0.7870    0.4560    0.8370 c3        1 G4D     -0.137400
      5 C5         -0.7270    0.4530    0.8260 c3        1 G4D      0.105100
      6 C6         -1.2180    1.6710    1.5440 c3        1 G4D      0.137400
      7 O1         -1.1600   -1.8500   -0.9120 oh        1 G4D     -0.606800
      8 O2          1.2640   -1.8000   -2.0750 oh        1 G4D     -0.583800
      9 O3          2.8020   -0.4420   -0.0900 oh        1 G4D     -0.607800
     10 O5         -1.2780    0.4480   -0.5310 os        1 G4D     -0.465600
     11 O6         -2.6280    1.6570    1.5830 oh        1 G4D     -0.596800
     12 H1         -1.0270   -0.5030   -2.2960 h2        1 G4D      0.085700
     13 H2          1.1150    0.1680   -1.8520 h1        1 G4D      0.060700
     14 H3          1.1750   -1.4870    0.4120 h1        1 G4D      0.069700
     15 H41         1.0970    0.3370    1.7550 hc        1 G4D      0.060700
     16 H42         1.1040    1.3170    0.5050 hc        1 G4D      0.060700
     17 H5         -1.0440   -0.3410    1.2970 h1        1 G4D      0.068700
     18 H61        -0.9140    2.4710    1.0750 h1        1 G4D      0.053700
     19 H62        -0.8680    1.6750    2.4550 h1        1 G4D      0.053700
     20 HO1        -1.8360   -2.1290   -1.4150 ho        1 G4D      0.416000
     21 HO2         1.6210   -1.5620   -2.8520 ho        1 G4D      0.424000
     22 HO3         3.2060   -1.0170    0.4520 ho        1 G4D      0.410000
     23 HO6        -2.9180    2.3540    2.0500 ho        1 G4D      0.413000
@<TRIPOS>BOND
     1    1    2 1   
     2    1    7 1   
     3    1   10 1   
     4    1   12 1   
     5    2    3 1   
     6    2    8 1   
     7    2   13 1   
     8    3    4 1   
     9    3    9 1   
    10    3   14 1   
    11    4    5 1   
    12    4   15 1   
    13    4   16 1   
    14    5    6 1   
    15    5   10 1   
    16    5   17 1   
    17    6   11 1   
    18    6   18 1   
    19    6   19 1   
    20    7   20 1   
    21    8   21 1   
    22    9   22 1   
    23   11   23 1   
@<TRIPOS>SUBSTRUCTURE
     1 G4D         1 TEMP              0 ****  ****    0 ROOT
