@<TRIPOS>MOLECULE
G4D
   23    23     1     0     0
SMALL
bcc


@<TRIPOS>ATOM
      1 C1          1.2890   -0.5300   -0.2380 c3        1 G4D      0.309900
      2 C2          0.3210   -0.6180   -1.4310 c3        1 G4D      0.091100
      3 C3         -0.8660    0.3410   -1.2390 c3        1 G4D      0.118100
      4 C4         -1.4960    0.1190    0.1300 c3        1 G4D     -0.103400
      5 C5         -0.4400    0.2970    1.2080 c3        1 G4D      0.099100
      6 C6         -1.0040   -0.0360    2.5930 c3        1 G4D      0.137400
      7 O1          1.9280    0.7250   -0.2960 oh        1 G4D     -0.637800
      8 O2          0.9860   -0.3470   -2.6470 oh        1 G4D     -0.593800
      9 O3         -1.8670    0.0990   -2.2130 oh        1 G4D     -0.594800
     10 O5          0.6630   -0.6040    1.0230 os        1 G4D     -0.458600
     11 O6         -0.0600    0.2270    3.6070 oh        1 G4D     -0.595800
     12 H1          2.0310   -1.3790   -0.2440 h2        1 G4D      0.083700
     13 H2         -0.0490   -1.6770   -1.5330 h1        1 G4D      0.099700
     14 H3         -0.4990    1.4020   -1.3350 h1        1 G4D      0.050700
     15 H41        -1.9340   -0.9110    0.1770 hc        1 G4D      0.070200
     16 H42        -2.3260    0.8540    0.2840 hc        1 G4D      0.070200
     17 H5         -0.0350    1.3470    1.1940 h1        1 G4D      0.065700
     18 H61        -1.3270   -1.1100    2.6270 h1        1 G4D      0.056700
     19 H62        -1.8730    0.6370    2.8170 h1        1 G4D      0.056700
     20 HO1         2.5100    0.7930    0.4710 ho        1 G4D      0.427000
     21 HO2         1.4350    0.5050   -2.5490 ho        1 G4D      0.421000
     22 HO3        -1.4150    0.0570   -3.0670 ho        1 G4D      0.417000
     23 HO6         0.7120   -0.3240    3.4250 ho        1 G4D      0.411000
@<TRIPOS>BOND
     1    1    2 1   
     2    1    7 1   
     3    1   10 1   
     4    1   12 1   
     5    2    3 1   
     6    2    8 1   
     7    2   13 1   
     8    3    4 1   
     9    3    9 1   
    10    3   14 1   
    11    4    5 1   
    12    4   15 1   
    13    4   16 1   
    14    5    6 1   
    15    5   10 1   
    16    5   17 1   
    17    6   11 1   
    18    6   18 1   
    19    6   19 1   
    20    7   20 1   
    21    8   21 1   
    22    9   22 1   
    23   11   23 1   
@<TRIPOS>SUBSTRUCTURE
     1 G4D         1 TEMP              0 ****  ****    0 ROOT
