@<TRIPOS>MOLECULE
G4G
   78    82     1     0     0
SMALL
bcc


@<TRIPOS>ATOM
      1 C1         -4.2260   -2.6460    0.1920 ca        1 G4G     -0.122500
      2 O2          6.8090   -4.1330   -0.7020 o         1 G4G     -0.596100
      3 N2         -7.6560   -3.5180   -0.4840 n         1 G4G     -0.670500
      4 C2          4.7650   -2.3780    0.3630 ca        1 G4G     -0.122500
      5 O1         -5.8410   -4.6090   -1.3140 o         1 G4G     -0.596100
      6 N1          5.8420   -3.9320   -2.7490 n         1 G4G     -0.670500
      7 C3         -5.8750   -1.1100   -0.6960 ca        1 G4G     -0.122500
      8 C4         -5.4630   -2.4170   -0.4140 ca        1 G4G     -0.078100
      9 C5          3.3150   -3.4820   -1.2320 ca        1 G4G     -0.122500
     10 C6          4.5990   -3.2050   -0.7540 ca        1 G4G     -0.078100
     11 C7         -1.9720    2.4560   -1.4500 c3        1 G4G      0.253600
     12 C8          5.8210   -3.7920   -1.3840 c         1 G4G      0.662200
     13 C9         -6.3150   -3.5910   -0.7710 c         1 G4G      0.662200
     14 S9          1.0020   -1.4340    1.2980 sy        1 G4G      1.503200
     15 O10        -3.6930    2.2000    0.8150 o         1 G4G     -0.654300
     16 O11        -0.1410   -2.0940    0.7850 o         1 G4G     -0.654300
     17 C12        -1.2000    3.6640   -0.9880 ca        1 G4G     -0.112300
     18 C13        -1.7420    4.5090   -0.0130 ca        1 G4G     -0.123250
     19 C14         0.0260    3.9860   -1.5770 ca        1 G4G     -0.123250
     20 C17        -3.4050   -1.5670    0.5230 ca        1 G4G     -0.024000
     21 C18         3.6490   -1.8150    0.9770 ca        1 G4G     -0.024000
     22 C19        -5.0450   -0.0430   -0.3690 ca        1 G4G     -0.024000
     23 C20         2.2080   -2.9130   -0.6080 ca        1 G4G     -0.024000
     24 C21        -0.6150   -0.0960   -2.3770 c3        1 G4G      0.126800
     25 N22         0.7280    0.2880   -2.7880 n3        1 G4G     -0.786200
     26 C23        -0.8460    0.3020   -0.8860 c3        1 G4G      0.182000
     27 C24         0.5940    0.7210   -0.3730 c3        1 G4G      0.182000
     28 C25         1.5340    0.4080   -1.5810 c3        1 G4G      0.126800
     29 C26        -3.8030   -0.2540    0.2450 ca        1 G4G     -0.361500
     30 C27         2.3590   -2.0630    0.4950 ca        1 G4G     -0.361500
     31 N28        -1.8700    1.2780   -0.6270 n3        1 G4G     -0.787500
     32 C29        -1.0630    5.6670    0.3620 ca        1 G4G     -0.128500
     33 C30         0.7020    5.1460   -1.2020 ca        1 G4G     -0.128500
     34 C31         0.1580    5.9880   -0.2310 ca        1 G4G     -0.125500
     35 N32         0.9880    0.1540    0.8920 n3        1 G4G     -0.787500
     36 C33         1.2330    1.1310    1.9350 c3        1 G4G      0.253600
     37 C34         2.3840    2.0740    1.7250 ca        1 G4G     -0.112300
     38 C35         3.5070    1.7510    0.9590 ca        1 G4G     -0.123250
     39 C36         4.5680    2.6510    0.8510 ca        1 G4G     -0.128500
     40 C37         4.5170    3.8780    1.5100 ca        1 G4G     -0.125500
     41 C38         2.3370    3.3110    2.3840 ca        1 G4G     -0.123250
     42 C39         3.3990    4.2050    2.2770 ca        1 G4G     -0.128500
     43 O40         1.2230   -1.5850    2.6830 o         1 G4G     -0.654300
     44 O41        -2.0770    0.7330    1.8060 o         1 G4G     -0.654300
     45 H1         -3.8960   -3.6780    0.3940 ha        1 G4G      0.155500
     46 HN21       -8.2360   -4.2990   -0.6700 hn        1 G4G      0.316250
     47 HN2A       -8.0290   -2.7510    0.0120 hn        1 G4G      0.316250
     48 H2          5.7780   -2.1960    0.7570 ha        1 G4G      0.155500
     49 HN11        6.6460   -4.3090   -3.1860 hn        1 G4G      0.316250
     50 HN12        5.0850   -3.6370   -3.3070 hn        1 G4G      0.316250
     51 H3         -6.8430   -0.9210   -1.1850 ha        1 G4G      0.155500
     52 H5          3.1630   -4.1600   -2.0860 ha        1 G4G      0.155500
     53 H71        -3.0660    2.7450   -1.4960 h1        1 G4G      0.074950
     54 H72        -1.6450    2.2150   -2.5020 h1        1 G4G      0.074950
     55 H13        -2.7120    4.2590    0.4530 ha        1 G4G      0.139500
     56 H14         0.4590    3.3260   -2.3440 ha        1 G4G      0.139500
     57 H17        -2.4300   -1.7620    1.0140 ha        1 G4G      0.165750
     58 H18         3.7830   -1.1790    1.8710 ha        1 G4G      0.165750
     59 H19        -5.3750    0.9910   -0.5790 ha        1 G4G      0.165750
     60 H20         1.1920   -3.1400   -0.9800 ha        1 G4G      0.165750
     61 H211       -1.3930    0.3160   -3.0690 h1        1 G4G      0.064450
     62 H212       -0.6710   -1.2200   -2.4380 h1        1 G4G      0.064450
     63 HN22        0.7020    1.1680   -3.2740 hn        1 G4G      0.348800
     64 H23        -1.1820   -0.6440   -0.3590 h1        1 G4G      0.093700
     65 H24         0.6010    1.8500   -0.2620 h1        1 G4G      0.093700
     66 H251        2.0750   -0.5670   -1.4420 h1        1 G4G      0.064450
     67 H252        2.3030    1.2180   -1.6780 h1        1 G4G      0.064450
     68 H29        -1.4940    6.3290    1.1280 ha        1 G4G      0.133500
     69 H30         1.6650    5.3960   -1.6700 ha        1 G4G      0.133500
     70 H31         0.6910    6.9040    0.0640 ha        1 G4G      0.132500
     71 H331        0.2850    1.7340    2.0810 h1        1 G4G      0.074950
     72 H332        1.4250    0.5880    2.9120 h1        1 G4G      0.074950
     73 H35         3.5650    0.7850    0.4340 ha        1 G4G      0.139500
     74 H36         5.4480    2.3880    0.2460 ha        1 G4G      0.133500
     75 H37         5.3560    4.5850    1.4270 ha        1 G4G      0.132500
     76 H38         1.4560    3.5740    2.9890 ha        1 G4G      0.139500
     77 H39         3.3550    5.1720    2.8010 ha        1 G4G      0.133500
     78 S8         -2.8500    1.0720    0.6760 sy        1 G4G      1.503200
@<TRIPOS>BOND
     1    1    8 ar  
     2    1   20 ar  
     3    1   45 1   
     4    2   12 2   
     5    3   13 1   
     6    3   46 1   
     7    3   47 1   
     8    4   10 ar  
     9    4   21 ar  
    10    4   48 1   
    11    5   13 2   
    12    6   12 1   
    13    6   49 1   
    14    6   50 1   
    15    7    8 ar  
    16    7   22 ar  
    17    7   51 1   
    18    8   13 1   
    19    9   10 ar  
    20    9   23 ar  
    21    9   52 1   
    22   10   12 1   
    23   11   17 1   
    24   11   31 1   
    25   11   53 1   
    26   11   54 1   
    27   14   16 2   
    28   14   30 1   
    29   14   35 1   
    30   14   43 2   
    31   15   78 2   
    32   17   18 ar  
    33   17   19 ar  
    34   18   32 ar  
    35   18   55 1   
    36   19   33 ar  
    37   19   56 1   
    38   20   29 ar  
    39   20   57 1   
    40   21   30 ar  
    41   21   58 1   
    42   22   29 ar  
    43   22   59 1   
    44   23   30 ar  
    45   23   60 1   
    46   24   25 1   
    47   24   26 1   
    48   24   61 1   
    49   24   62 1   
    50   25   28 1   
    51   25   63 1   
    52   26   27 1   
    53   26   31 1   
    54   26   64 1   
    55   27   28 1   
    56   27   35 1   
    57   27   65 1   
    58   28   66 1   
    59   28   67 1   
    60   29   78 1   
    61   31   78 1   
    62   32   34 ar  
    63   32   68 1   
    64   33   34 ar  
    65   33   69 1   
    66   34   70 1   
    67   35   36 1   
    68   36   37 1   
    69   36   71 1   
    70   36   72 1   
    71   37   38 ar  
    72   37   41 ar  
    73   38   39 ar  
    74   38   73 1   
    75   39   40 ar  
    76   39   74 1   
    77   40   42 ar  
    78   40   75 1   
    79   41   42 ar  
    80   41   76 1   
    81   42   77 1   
    82   44   78 2   
@<TRIPOS>SUBSTRUCTURE
     1 G4G         1 TEMP              0 ****  ****    0 ROOT
