@<TRIPOS>MOLECULE
G4S
   27    27     1     0     0
SMALL
bcc


@<TRIPOS>ATOM
      1 C1          2.2690   -1.0710   -3.0970 c3        1 G4S      0.316900
      2 C2          1.4410    0.1940   -3.4050 c3        1 G4S      0.063100
      3 C3          0.9910    0.8720   -2.1030 c3        1 G4S      0.140100
      4 C4          0.2230   -0.1750   -1.2620 c3        1 G4S      0.167100
      5 C5          1.1470   -1.3740   -0.9990 c3        1 G4S      0.104100
      6 C6          0.3980   -2.4950   -0.2740 c3        1 G4S      0.131400
      7 O1          2.4240   -1.8640   -4.2510 oh        1 G4S     -0.621800
      8 O2          2.2610    1.1030   -4.1220 oh        1 G4S     -0.588800
      9 O3          0.2100    2.0130   -2.3580 oh        1 G4S     -0.602800
     10 O4         -0.9140   -0.5710   -1.9480 os        1 G4S     -0.612500
     11 O5          1.6450   -1.9720   -2.2010 os        1 G4S     -0.458600
     12 O6          1.2800   -3.5340    0.1080 oh        1 G4S     -0.619800
     13 S          -2.5260   -0.2090   -1.3830 s6        1 G4S      1.703300
     14 O7         -2.3540   -0.3120   -0.0050 o         1 G4S     -0.745200
     15 O8         -2.6490    1.0810   -1.8910 o         1 G4S     -0.745200
     16 O9         -3.2710   -1.2030   -1.9970 o         1 G4S     -0.745200
     17 H1          3.3070   -0.8070   -2.7500 h2        1 G4S      0.063700
     18 H2          0.5330   -0.0810   -4.0090 h1        1 G4S      0.073700
     19 H3          1.8880    1.2520   -1.5410 h1        1 G4S      0.059700
     20 H4         -0.0550    0.2860   -0.2680 h1        1 G4S      0.063700
     21 H5          2.0310   -1.0340   -0.3900 h1        1 G4S      0.033700
     22 H61        -0.4150   -2.8910   -0.9380 h1        1 G4S      0.075700
     23 H62        -0.0420   -2.1020    0.6790 h1        1 G4S      0.075700
     24 HO1         1.5910   -2.3360   -4.3910 ho        1 G4S      0.424000
     25 HO2         2.4920    0.6540   -4.9460 ho        1 G4S      0.394000
     26 HO3        -0.6960    1.7190   -2.5630 ho        1 G4S      0.446000
     27 HO6         1.6940   -3.8560   -0.7020 ho        1 G4S      0.403000
@<TRIPOS>BOND
     1    1    2 1   
     2    1    7 1   
     3    1   11 1   
     4    1   17 1   
     5    2    3 1   
     6    2    8 1   
     7    2   18 1   
     8    3    4 1   
     9    3    9 1   
    10    3   19 1   
    11    4    5 1   
    12    4   10 1   
    13    4   20 1   
    14    5    6 1   
    15    5   11 1   
    16    5   21 1   
    17    6   12 1   
    18    6   22 1   
    19    6   23 1   
    20    7   24 1   
    21    8   25 1   
    22    9   26 1   
    23   10   13 1   
    24   12   27 1   
    25   13   14 1   
    26   13   15 1   
    27   13   16 1   
@<TRIPOS>SUBSTRUCTURE
     1 G4S         1 TEMP              0 ****  ****    0 ROOT
