@<TRIPOS>MOLECULE
G4S
   27    26     1     0     0
SMALL
bcc


@<TRIPOS>ATOM
      1 C1         -0.9880   -0.5990   -1.6570 c3        1 G4S      0.325900
      2 C2          0.3290   -1.5200   -1.3850 c3        1 G4S      0.067100
      3 C3          1.1430   -1.0620   -0.1910 c3        1 G4S      0.141100
      4 C4          0.3820   -0.2410    0.6620 c3        1 G4S      0.155100
      5 C5         -0.9990   -0.4490    0.9750 c3        1 G4S      0.093100
      6 C6         -1.6030    0.8720    1.4690 c3        1 G4S      0.127400
      7 O1         -0.7200    0.5120   -1.7760 oh        1 G4S     -0.640800
      8 O2         -0.0780   -2.8240   -1.1740 oh        1 G4S     -0.592800
      9 O3          2.3050   -0.2990   -0.6710 oh        1 G4S     -0.609800
     10 O4          0.4820    1.2480    0.0470 os        1 G4S     -0.627600
     11 O5         -1.7550   -0.9080   -0.1980 os        1 G4S     -0.446600
     12 O6         -2.9110    0.6300    2.0130 oh        1 G4S     -0.632800
     13 S           1.6160    2.1350    0.6150 s4        1 G4S      1.889600
     14 O7          1.1290    3.5500    0.8800 o         1 G4S     -0.672900
     15 O8          2.6980    2.3850   -0.4240 o         1 G4S     -0.672900
     16 O9          2.2060    1.4950    1.8950 os        1 G4S     -1.074000
     17 H1         -1.5410   -0.9520   -2.4610 h2        1 G4S      0.081700
     18 H2          0.8960   -1.4930   -2.1750 h1        1 G4S      0.067700
     19 H3          1.4710   -1.8860    0.3310 h1        1 G4S      0.076700
     20 H4          0.8580   -0.2280    1.5240 h1        1 G4S      0.061700
     21 H5         -1.0680   -1.1080    1.6720 h1        1 G4S      0.058700
     22 H61        -1.6730    1.4990    0.7190 h1        1 G4S      0.049200
     23 H62        -1.0400    1.2460    2.1480 h1        1 G4S      0.049200
     24 HO1        -1.0870    0.8330   -2.5480 ho        1 G4S      0.449000
     25 HO2         0.1650   -3.3340   -1.8790 ho        1 G4S      0.388000
     26 HO3         2.9750   -0.8500   -0.8300 ho        1 G4S      0.443000
     27 HO6        -3.1920    1.3470    2.4200 ho        1 G4S      0.446000
@<TRIPOS>BOND
     1    1    2 1   
     2    1    7 1   
     3    1   11 1   
     4    1   17 1   
     5    2    3 1   
     6    2    8 1   
     7    2   18 1   
     8    3    4 1   
     9    3    9 1   
    10    3   19 1   
    11    4    5 1   
    12    4   10 1   
    13    4   20 1   
    14    5    6 1   
    15    5   11 1   
    16    5   21 1   
    17    6   12 1   
    18    6   22 1   
    19    6   23 1   
    20    7   24 1   
    21    8   25 1   
    22    9   26 1   
    23   10   13 1   
    24   12   27 1   
    25   13   14 1   
    26   13   15 1   
@<TRIPOS>SUBSTRUCTURE
     1 G4S         1 TEMP              0 ****  ****    0 ROOT
