@<TRIPOS>MOLECULE
G50
   34    35     1     0     0
SMALL
bcc


@<TRIPOS>ATOM
      1 C1         -0.1450    0.1940    0.1700 ca        1 G50     -0.314000
      2 C2          1.1960   -0.1590   -0.0330 ca        1 G50      0.215100
      3 C3          2.0390   -0.4690    1.0420 ca        1 G50     -0.314000
      4 C4          1.5130   -0.4300    2.3410 ca        1 G50      0.224100
      5 C5          0.1710   -0.0870    2.5910 ca        1 G50     -0.256600
      6 C6         -0.6380    0.2270    1.4810 ca        1 G50      0.224100
      7 C7         -0.3690   -0.0880    3.9720 c         1 G50      0.613700
      8 C8         -0.8080    1.2580    4.4760 c3        1 G50     -0.172400
      9 C9         -1.2920    1.2050    5.9110 c3        1 G50     -0.028100
     10 O1         -1.9430    0.5670    1.7410 oh        1 G50     -0.486100
     11 O2         -0.4420   -1.1190    4.6430 o         1 G50     -0.516100
     12 C10        -1.6850    2.5520    6.4040 ca        1 G50     -0.112300
     13 C11        -0.7010    3.4960    6.7300 ca        1 G50     -0.092000
     14 C12        -1.0480    4.7560    7.2020 ca        1 G50     -0.183500
     15 C13        -2.4080    5.0770    7.3510 ca        1 G50      0.120100
     16 C14        -3.4040    4.1440    7.0320 ca        1 G50     -0.183500
     17 C15        -3.0340    2.8870    6.5610 ca        1 G50     -0.092000
     18 O3         -2.6940    6.3390    7.8210 oh        1 G50     -0.499100
     19 O4          1.6280   -0.1770   -1.3350 oh        1 G50     -0.489100
     20 O5          2.2930   -0.6970    3.4380 oh        1 G50     -0.486100
     21 H3          3.0880   -0.7410    0.8720 ha        1 G50      0.150000
     22 H1         -0.7860    0.4330   -0.6890 ha        1 G50      0.150000
     23 H4          2.5610   -0.4420   -1.3400 ho        1 G50      0.426000
     24 HA         -2.3940    0.7060    0.8940 ho        1 G50      0.429000
     25 H5          3.1600   -0.9990    3.1280 ho        1 G50      0.429000
     26 H8C1       -1.6260    1.6310    3.8020 hc        1 G50      0.076700
     27 H8C2        0.0550    1.9710    4.3880 hc        1 G50      0.076700
     28 H9C1       -0.4760    0.7860    6.5600 hc        1 G50      0.060700
     29 H9C2       -2.1580    0.4930    5.9810 hc        1 G50      0.060700
     30 H11         0.3610    3.2330    6.6130 ha        1 G50      0.135000
     31 H15        -3.8130    2.1510    6.3110 ha        1 G50      0.135000
     32 H12        -0.2840    5.5020    7.4600 ha        1 G50      0.140500
     33 H14        -4.4650    4.4020    7.1540 ha        1 G50      0.140500
     34 HB         -3.6560    6.4210    7.8860 ho        1 G50      0.418000
@<TRIPOS>BOND
     1    1    2 ar  
     2    1    6 ar  
     3    1   22 1   
     4    2    3 ar  
     5    2   19 1   
     6    3    4 ar  
     7    3   21 1   
     8    4    5 ar  
     9    4   20 1   
    10    5    6 ar  
    11    5    7 1   
    12    6   10 1   
    13    7    8 1   
    14    7   11 2   
    15    8    9 1   
    16    8   26 1   
    17    8   27 1   
    18    9   12 1   
    19    9   28 1   
    20    9   29 1   
    21   10   24 1   
    22   12   13 ar  
    23   12   17 ar  
    24   13   14 ar  
    25   13   30 1   
    26   14   15 ar  
    27   14   32 1   
    28   15   16 ar  
    29   15   18 1   
    30   16   17 ar  
    31   16   33 1   
    32   17   31 1   
    33   18   34 1   
    34   19   23 1   
    35   20   25 1   
@<TRIPOS>SUBSTRUCTURE
     1 G50         1 TEMP              0 ****  ****    0 ROOT
