@<TRIPOS>MOLECULE
G50
   34    35     1     0     0
SMALL
bcc


@<TRIPOS>ATOM
      1 C1         -0.2140    0.1270    0.1870 ca        1 G50     -0.314000
      2 C2          1.1390   -0.1500   -0.0520 ca        1 G50      0.215100
      3 C3          2.0320   -0.3840    1.0000 ca        1 G50     -0.314000
      4 C4          1.5460   -0.3470    2.3150 ca        1 G50      0.224100
      5 C5          0.1940   -0.0780    2.6010 ca        1 G50     -0.256600
      6 C6         -0.6660    0.1620    1.5120 ca        1 G50      0.224100
      7 C7         -0.3010   -0.0800    3.9990 c         1 G50      0.613700
      8 C8         -0.8040    1.2490    4.4890 c3        1 G50     -0.172400
      9 C9         -1.2690    1.1920    5.9310 c3        1 G50     -0.028100
     10 O1         -1.9810    0.4300    1.8070 oh        1 G50     -0.486100
     11 O2         -0.2900   -1.0980    4.6940 o         1 G50     -0.516100
     12 C10        -1.7210    2.5260    6.4100 ca        1 G50     -0.112300
     13 C11        -0.7840    3.4890    6.7990 ca        1 G50     -0.091500
     14 C12        -1.1940    4.7380    7.2560 ca        1 G50     -0.183500
     15 C13        -2.5650    5.0250    7.3240 ca        1 G50      0.119100
     16 C14        -3.5190    4.0700    6.9390 ca        1 G50     -0.183500
     17 C15        -3.0870    2.8280    6.4850 ca        1 G50     -0.091500
     18 O3         -3.0500    6.2370    7.7630 oh        1 G50     -0.499100
     19 O4          1.5310   -0.1730   -1.3670 oh        1 G50     -0.489100
     20 O5          2.3740   -0.5410    3.3910 oh        1 G50     -0.486100
     21 H3          3.0900   -0.5980    0.8020 ha        1 G50      0.150000
     22 H1         -0.8940    0.3080   -0.6560 ha        1 G50      0.150000
     23 H4          2.4760   -0.3840   -1.3970 ho        1 G50      0.426000
     24 HA         -2.4660    0.5220    0.9730 ho        1 G50      0.429000
     25 H5          3.2470   -0.8020    3.0600 ho        1 G50      0.429000
     26 H8C1       -1.6490    1.5710    3.8210 hc        1 G50      0.076700
     27 H8C2        0.0200    2.0030    4.3810 hc        1 G50      0.076700
     28 H9C1       -0.4270    0.8200    6.5750 hc        1 G50      0.061200
     29 H9C2       -2.1010    0.4420    6.0200 hc        1 G50      0.061200
     30 H11         0.2910    3.2550    6.7450 ha        1 G50      0.134500
     31 H15        -3.8290    2.0730    6.1840 ha        1 G50      0.134500
     32 H12        -0.4540    5.4900    7.5620 ha        1 G50      0.140500
     33 H14        -4.5890    4.3140    7.0020 ha        1 G50      0.140500
     34 HB         -2.2930    6.7890    8.0050 ho        1 G50      0.418000
@<TRIPOS>BOND
     1    1    2 ar  
     2    1    6 ar  
     3    1   22 1   
     4    2    3 ar  
     5    2   19 1   
     6    3    4 ar  
     7    3   21 1   
     8    4    5 ar  
     9    4   20 1   
    10    5    6 ar  
    11    5    7 1   
    12    6   10 1   
    13    7    8 1   
    14    7   11 2   
    15    8    9 1   
    16    8   26 1   
    17    8   27 1   
    18    9   12 1   
    19    9   28 1   
    20    9   29 1   
    21   10   24 1   
    22   12   13 ar  
    23   12   17 ar  
    24   13   14 ar  
    25   13   30 1   
    26   14   15 ar  
    27   14   32 1   
    28   15   16 ar  
    29   15   18 1   
    30   16   17 ar  
    31   16   33 1   
    32   17   31 1   
    33   18   34 1   
    34   19   23 1   
    35   20   25 1   
@<TRIPOS>SUBSTRUCTURE
     1 G50         1 TEMP              0 ****  ****    0 ROOT
