@<TRIPOS>MOLECULE
G50
   34    30     1     0     0
SMALL
bcc


@<TRIPOS>ATOM
      1 C1         -0.1490   -0.4380   -5.0480 c1        1 G50     -0.261000
      2 C2          1.3400   -0.1680   -5.0190 c1        1 G50      0.139333
      3 C3          2.0440    0.0460   -3.6980 c1        1 G50     -0.261000
      4 C4          1.2570    0.0060   -2.4060 c1        1 G50      0.139333
      5 C5         -0.2310   -0.2640   -2.4350 c1        1 G50     -0.236000
      6 C6         -0.9350   -0.4780   -3.7570 c1        1 G50      0.185000
      7 C7         -1.0090   -0.3510   -1.1400 c2        1 G50      0.304000
      8 C8         -0.2990   -0.1690    0.1830 c3        1 G50     -0.201000
      9 C9         -1.1700   -0.7010    1.3000 c3        1 G50     -0.114000
     10 O1         -2.3240   -0.7030   -3.7860 oh        1 G50     -0.233000
     11 O2         -2.2020   -0.5790   -1.1630 o         1 G50     -0.277000
     12 C10        -0.6990   -0.1320    2.6210 c2        1 G50     -0.105000
     13 C11        -1.2980    1.1540    3.1470 c2        1 G50     -0.088000
     14 C12        -0.8720    1.6910    4.4950 c1        1 G50     -0.212000
     15 C13         0.1670    0.9530    5.3100 c1        1 G50      0.139333
     16 C14         0.7660   -0.3330    4.7840 c1        1 G50     -0.261000
     17 C15         0.3400   -0.8700    3.4350 c1        1 G50     -0.096000
     18 O3          0.5670    1.4540    6.5620 oh        1 G50     -0.247667
     19 O4          2.0710   -0.1270   -6.2210 oh        1 G50     -0.247667
     20 O5          1.9060    0.2380   -1.1800 oh        1 G50     -0.247667
     21 H3          3.0040    0.2200   -3.6790 ha        1 G50      0.149667
     22 H1         -0.6030   -0.5760   -5.9010 ha        1 G50      0.149667
     23 H4          2.2450   -0.9560   -6.4900 ho        1 G50      0.224000
     24 HA         -2.6250   -0.5910   -4.6150 ho        1 G50      0.226000
     25 H5          2.5930    0.7880   -1.3070 ho        1 G50      0.224000
     26 H8C1        0.5480   -0.6580    0.1690 hc        1 G50      0.116000
     27 H8C2       -0.1240    0.7820    0.3310 hc        1 G50      0.116000
     28 H9C1       -1.1080   -1.6770    1.3250 hc        1 G50      0.100000
     29 H9C2       -2.0990   -0.4360    1.1440 hc        1 G50      0.100000
     30 H11        -1.9690    1.6310    2.6210 ha        1 G50      0.135000
     31 H15         0.7270   -1.7000    3.0960 ha        1 G50      0.135000
     32 H12        -1.2590    2.5210    4.8350 ha        1 G50      0.132000
     33 H14         1.4370   -0.8100    5.3090 ha        1 G50      0.149667
     34 HB         -0.0360    1.2310    7.1770 ho        1 G50      0.224000
@<TRIPOS>BOND
     1    1    2 1   
     2    1   22 1   
     3    2   19 1   
     4    3    4 1   
     5    3   21 1   
     6    4   20 1   
     7    5    6 1   
     8    5    7 1   
     9    6   10 1   
    10    7    8 1   
    11    7   11 1   
    12    8    9 1   
    13    8   26 1   
    14    8   27 1   
    15    9   12 1   
    16    9   28 1   
    17    9   29 1   
    18   10   24 1   
    19   12   13 1   
    20   12   17 1   
    21   13   14 1   
    22   13   30 1   
    23   14   32 1   
    24   15   16 1   
    25   15   18 1   
    26   16   33 1   
    27   17   31 1   
    28   18   34 1   
    29   19   23 1   
    30   20   25 1   
@<TRIPOS>SUBSTRUCTURE
     1 G50         1 TEMP              0 ****  ****    0 ROOT
