@<TRIPOS>MOLECULE
G50
   34    35     1     0     0
SMALL
bcc


@<TRIPOS>ATOM
      1 C1          1.0240   -0.3710    1.8900 ca        1 G50     -0.305500
      2 C2          1.4900    0.7320    1.1580 ca        1 G50      0.226100
      3 C3          2.8560    0.9780    1.0130 ca        1 G50     -0.305500
      4 C4          3.7770    0.1010    1.6170 ca        1 G50      0.251100
      5 C5          3.3560   -1.0070    2.3940 ca        1 G50     -0.322600
      6 C6          1.9580   -1.2180    2.4930 ca        1 G50      0.251100
      7 C7          4.3320   -1.8890    3.0510 c         1 G50      0.609700
      8 C8          3.8820   -2.6790    4.2460 c3        1 G50     -0.163400
      9 C9          5.0520   -3.1610    5.0850 c3        1 G50     -0.028100
     10 O1          1.5290   -2.3110    3.2040 oh        1 G50     -0.498100
     11 O2          5.5040   -1.9690    2.6420 o         1 G50     -0.587100
     12 C10         4.5950   -4.0150    6.2150 ca        1 G50     -0.113300
     13 C11         4.6050   -3.5270    7.5250 ca        1 G50     -0.091000
     14 C12         4.1880   -4.3280    8.5850 ca        1 G50     -0.183500
     15 C13         3.7560   -5.6360    8.3270 ca        1 G50      0.121100
     16 C14         3.7420   -6.1430    7.0160 ca        1 G50     -0.183500
     17 C15         4.1620   -5.3260    5.9730 ca        1 G50     -0.091000
     18 O3          3.3280   -6.4880    9.3190 oh        1 G50     -0.498100
     19 O4          0.5330    1.5370    0.5960 oh        1 G50     -0.488100
     20 O5          5.0770    0.4460    1.3960 oh        1 G50     -0.498100
     21 H3          3.2300    1.8330    0.4340 ha        1 G50      0.159000
     22 H1         -0.0550   -0.5520    1.9780 ha        1 G50      0.159000
     23 H4          0.9810    2.2520    0.1170 ho        1 G50      0.430000
     24 HA          0.5600   -2.3460    3.1570 ho        1 G50      0.448000
     25 H5          5.6820   -0.2220    1.7600 ho        1 G50      0.448000
     26 H8C1        3.1910   -2.0530    4.8690 hc        1 G50      0.081700
     27 H8C2        3.2910   -3.5620    3.8770 hc        1 G50      0.081700
     28 H9C1        5.7590   -3.7410    4.4320 hc        1 G50      0.060200
     29 H9C2        5.6200   -2.2730    5.4720 hc        1 G50      0.060200
     30 H11         4.9470   -2.5000    7.7250 ha        1 G50      0.134500
     31 H15         4.1580   -5.7140    4.9430 ha        1 G50      0.134500
     32 H12         4.1990   -3.9400    9.6130 ha        1 G50      0.141500
     33 H14         3.4020   -7.1720    6.8360 ha        1 G50      0.141500
     34 HB          3.4010   -6.0210   10.1640 ho        1 G50      0.418000
@<TRIPOS>BOND
     1    1    2 ar  
     2    1    6 ar  
     3    1   22 1   
     4    2    3 ar  
     5    2   19 1   
     6    3    4 ar  
     7    3   21 1   
     8    4    5 ar  
     9    4   20 1   
    10    5    6 ar  
    11    5    7 1   
    12    6   10 1   
    13    7    8 1   
    14    7   11 2   
    15    8    9 1   
    16    8   26 1   
    17    8   27 1   
    18    9   12 1   
    19    9   28 1   
    20    9   29 1   
    21   10   24 1   
    22   12   13 ar  
    23   12   17 ar  
    24   13   14 ar  
    25   13   30 1   
    26   14   15 ar  
    27   14   32 1   
    28   15   16 ar  
    29   15   18 1   
    30   16   17 ar  
    31   16   33 1   
    32   17   31 1   
    33   18   34 1   
    34   19   23 1   
    35   20   25 1   
@<TRIPOS>SUBSTRUCTURE
     1 G50         1 TEMP              0 ****  ****    0 ROOT
