@<TRIPOS>MOLECULE
G55
   76    71     1     0     0
SMALL
bcc


@<TRIPOS>ATOM
      1 C2         -5.6040   -3.3140    0.0460 c1        1 G55      0.141000
      2 O39        -6.9210   -3.4940   -0.4530 o         1 G55     -0.202000
      3 C40        -7.3860   -4.8350   -0.3820 c3        1 G55     -0.079000
      4 C3         -4.5540   -3.0870   -0.8350 c2        1 G55     -0.181000
      5 C4         -3.2770   -2.8090   -0.3430 c1        1 G55      0.019000
      6 C5         -3.0550   -2.7600    1.0320 c1        1 G55     -0.876000
      7 C6         -4.1070   -2.9880    1.9130 c1        1 G55      0.018000
      8 C7         -5.3830   -3.2650    1.4210 c1        1 G55     -0.240000
      9 S8         -1.3720   -2.6010    1.6640 s4        1 G55      2.063800
     10 O9         -1.1230   -3.5400    2.7300 o         1 G55     -0.546400
     11 O10        -0.4030   -3.0260    0.6860 o         1 G55     -0.546400
     12 N11        -1.0820   -1.0220    2.1620 n2        1 G55     -0.820000
     13 C12        -2.0110   -0.3680    3.0720 c3        1 G55     -0.016000
     14 C13        -1.9270   -1.0360    4.4640 c3        1 G55     -0.135000
     15 C14        -1.2280   -0.0900    5.4410 c3        1 G55     -0.205500
     16 C15        -3.3490   -1.3410    4.9740 c3        1 G55     -0.205500
     17 C16         0.1860   -0.3800    1.8340 c3        1 G55     -0.015000
     18 C17        -0.0360    0.6540    0.7320 c3        1 G55     -0.003000
     19 O18        -0.8650    1.6820    1.2140 oh        1 G55     -0.328000
     20 C19         1.2960    1.2350    0.3090 c3        1 G55     -0.011000
     21 N20         1.1520    1.8820   -0.9530 n         1 G55     -0.332000
     22 C21         1.9710    1.4790   -2.0630 c2        1 G55      0.381000
     23 O22         2.9110    0.7370   -1.8830 o         1 G55     -0.404000
     24 O23         1.6220    1.8710   -3.3760 os        1 G55     -0.279000
     25 C24         2.6170    1.6010   -4.3370 c3        1 G55      0.023000
     26 C25         2.2560    0.3300   -5.0850 c3        1 G55     -0.038000
     27 O26         3.1690    0.0870   -6.1310 os        1 G55     -0.299000
     28 C27         2.6420    0.5040   -7.3660 c3        1 G55      0.102000
     29 O28         2.8090    1.8910   -7.5380 os        1 G55     -0.310000
     30 C29         3.5900    2.4380   -6.5010 c3        1 G55     -0.014000
     31 C30         2.7250    2.7890   -5.2980 c3        1 G55     -0.191000
     32 C32         1.7610    2.2450    1.3450 c3        1 G55     -0.134000
     33 C33         3.7190    3.6430    1.2330 c1        1 G55     -0.135000
     34 C34         4.9830    4.0100    1.6810 c1        1 G55     -0.124500
     35 C35         5.8310    3.0550    2.2290 c1        1 G55     -0.124500
     36 C36         5.4150    1.7310    2.3300 c1        1 G55     -0.124500
     37 C37         4.1530    1.3640    1.8830 c1        1 G55     -0.124500
     38 C38         3.3030    2.3200    1.3340 c1        1 G55     -0.092000
     39 H40        -8.3520   -4.8570   -0.5660 h1        1 G55      0.088667
     40 H40A       -7.2160   -5.1930    0.5150 h1        1 G55      0.088667
     41 H40B       -6.9150   -5.3790   -1.0460 h1        1 G55      0.088667
     42 H3         -4.7110   -3.1220   -1.8070 ha        1 G55      0.166000
     43 H4         -2.5350   -2.6490   -0.9660 ha        1 G55      0.170000
     44 H6         -3.9520   -2.9530    2.8810 ha        1 G55      0.158000
     45 H7         -6.1260   -3.4260    2.0440 ha        1 G55      0.143000
     46 H12        -1.7760    0.5850    3.1500 h1        1 G55      0.095500
     47 H12A       -2.9260   -0.4530    2.7220 h1        1 G55      0.095500
     48 H13        -1.4170   -1.8720    4.3960 hc        1 G55      0.117000
     49 H14        -1.3220   -0.4380    6.3600 hc        1 G55      0.073500
     50 H14A       -1.6390    0.8040    5.3840 hc        1 G55      0.073500
     51 H14B       -0.2740   -0.0270    5.2100 hc        1 G55      0.073500
     52 H15        -3.9150   -2.1470    4.8980 hc        1 G55      0.073500
     53 H15A       -2.8340   -1.9590    5.5420 hc        1 G55      0.073500
     54 H15B       -3.5190   -1.3330    4.0110 hc        1 G55      0.073500
     55 H16         0.8260   -1.0570    1.5230 h1        1 G55      0.114500
     56 H16A        0.5430    0.0650    2.6320 h1        1 G55      0.114500
     57 H17        -0.4650    0.2230   -0.0390 h1        1 G55      0.108000
     58 HO18       -1.3530    2.0020    0.5500 ho        1 G55      0.209000
     59 H19         1.9580    0.5160    0.2340 h1        1 G55      0.109000
     60 HN20        0.4980    2.5250   -1.0710 hn        1 G55      0.238000
     61 H24         3.4790    1.4740   -3.8820 h1        1 G55      0.128000
     62 H25         1.3520    0.4210   -5.4600 h1        1 G55      0.106000
     63 H25A        2.2730   -0.4320   -4.4580 h1        1 G55      0.106000
     64 H27         1.6820    0.2870   -7.3980 h2        1 G55      0.102000
     65 H27A        3.1070    0.0280   -8.0940 h2        1 G55      0.102000
     66 H29         4.0370    3.2520   -6.8280 h1        1 G55      0.096500
     67 H29A        4.2720    1.7810   -6.2290 h1        1 G55      0.096500
     68 H30         1.8230    3.0370   -5.6080 hc        1 G55      0.105500
     69 H30A        3.1260    3.5550   -4.8230 hc        1 G55      0.105500
     70 H32         1.3890    3.1270    1.1320 hc        1 G55      0.111000
     71 H32A        1.4530    1.9660    2.2350 hc        1 G55      0.111000
     72 H33         3.1230    4.3150    0.8480 ha        1 G55      0.132000
     73 H34         5.2760    4.9420    1.6100 ha        1 G55      0.135750
     74 H35         6.7250    3.3140    2.5450 ha        1 G55      0.135750
     75 H36         6.0150    1.0560    2.7170 ha        1 G55      0.135750
     76 H37         3.8600    0.4320    1.9540 ha        1 G55      0.135750
@<TRIPOS>BOND
     1    1    4 1   
     2    1    8 1   
     3    2    3 1   
     4    3   39 1   
     5    3   40 1   
     6    3   41 1   
     7    4    5 1   
     8    4   42 1   
     9    5   43 1   
    10    6    7 1   
    11    6    9 1   
    12    7   44 1   
    13    8   45 1   
    14    9   10 1   
    15    9   11 1   
    16   12   13 1   
    17   12   17 1   
    18   13   14 1   
    19   13   46 1   
    20   13   47 1   
    21   14   15 1   
    22   14   16 1   
    23   14   48 1   
    24   15   49 1   
    25   15   50 1   
    26   15   51 1   
    27   16   52 1   
    28   16   53 1   
    29   16   54 1   
    30   17   18 1   
    31   17   55 1   
    32   17   56 1   
    33   18   19 1   
    34   18   20 1   
    35   18   57 1   
    36   19   58 1   
    37   20   21 1   
    38   20   32 1   
    39   20   59 1   
    40   21   22 1   
    41   21   60 1   
    42   22   23 1   
    43   22   24 1   
    44   24   25 1   
    45   25   26 1   
    46   25   31 1   
    47   25   61 1   
    48   26   27 1   
    49   26   62 1   
    50   26   63 1   
    51   27   28 1   
    52   28   29 1   
    53   28   64 1   
    54   28   65 1   
    55   29   30 1   
    56   30   31 1   
    57   30   66 1   
    58   30   67 1   
    59   31   68 1   
    60   31   69 1   
    61   32   38 1   
    62   32   70 1   
    63   32   71 1   
    64   33   38 1   
    65   33   72 1   
    66   34   35 1   
    67   34   73 1   
    68   35   74 1   
    69   36   37 1   
    70   36   75 1   
    71   37   76 1   
@<TRIPOS>SUBSTRUCTURE
     1 G55         1 TEMP              0 ****  ****    0 ROOT
