@<TRIPOS>MOLECULE
G55
   78    79     1     0     0
SMALL
bcc


@<TRIPOS>ATOM
      1 C2         -0.7370   -2.6580    2.5360 ca        1 G55      0.308100
      2 O39        -1.7570   -3.4510    2.1750 os        1 G55     -0.261900
      3 C40        -2.8610   -3.6110    3.0860 c3        1 G55      0.096700
      4 C3          0.3320   -2.5690    1.5930 ca        1 G55     -0.214000
      5 C4          1.4200   -1.7920    1.8770 ca        1 G55      0.065500
      6 C5          1.5350   -1.0470    3.0970 ca        1 G55     -0.695500
      7 C6          0.4400   -1.1540    4.0110 ca        1 G55      0.065500
      8 C7         -0.6600   -1.9300    3.7530 ca        1 G55     -0.214000
      9 S8          2.7900   -0.2370    3.4210 s4        1 G55      1.692300
     10 O9          2.8910    0.3800    4.6270 o         1 G55     -0.444400
     11 O10         3.8670   -0.3460    2.5950 o         1 G55     -0.444400
     12 N11         2.4460    2.0140    2.2700 n7        1 G55     -0.889200
     13 C12         1.1650    2.7040    2.4430 c3        1 G55      0.115800
     14 C13         0.5180    2.5700    3.8290 c3        1 G55     -0.062700
     15 C14         1.2900    3.2880    4.9130 c3        1 G55     -0.104100
     16 C15        -0.8960    3.1130    3.7390 c3        1 G55     -0.104100
     17 C16         3.6270    2.7850    2.6290 c3        1 G55      0.100800
     18 C17         3.9270    4.0220    1.7630 c3        1 G55      0.095100
     19 O18         3.1280    5.1400    2.0840 oh        1 G55     -0.598800
     20 C19         5.4290    4.4050    1.8690 c3        1 G55      0.104500
     21 N20         5.7060    5.6220    1.0200 ny        1 G55     -0.641800
     22 C21         5.8390    5.3010   -0.4360 c         1 G55      0.627100
     23 O22         5.5490    4.2070   -0.9010 o         1 G55     -0.443000
     24 O23         6.2960    6.3700   -1.1030 os        1 G55     -0.402900
     25 C24         6.4030    6.2360   -2.5690 c3        1 G55      0.134100
     26 C25         6.2000    7.6670   -3.0950 c3        1 G55      0.126400
     27 O26         5.5800    7.5830   -4.3620 os        1 G55     -0.415600
     28 C27         6.4400    7.2110   -5.4270 c3        1 G55      0.305200
     29 O28         6.8510    5.8870   -5.1730 os        1 G55     -0.427600
     30 C29         8.0410    5.7470   -4.4080 c3        1 G55      0.128400
     31 C30         7.7620    5.6600   -2.9080 c3        1 G55     -0.142400
     32 C32         5.8570    4.6630    3.3200 c3        1 G55     -0.052100
     33 C33         7.5050    6.5250    3.6150 ca        1 G55     -0.132000
     34 C34         8.8140    6.9860    3.7440 ca        1 G55     -0.110000
     35 C35         9.8820    6.0890    3.6740 ca        1 G55     -0.090000
     36 C36         9.6380    4.7290    3.4760 ca        1 G55     -0.110000
     37 C37         8.3290    4.2640    3.3480 ca        1 G55     -0.132000
     38 C38         7.2560    5.1600    3.4130 ca        1 G55     -0.173300
     39 H40        -2.5040   -4.0620    4.0430 h1        1 G55      0.084033
     40 H40A       -3.3640   -2.6290    3.2520 h1        1 G55      0.084033
     41 H40B       -3.5290   -4.3210    2.5280 h1        1 G55      0.084033
     42 H3          0.2580   -3.1430    0.6520 ha        1 G55      0.193000
     43 H4          2.2550   -1.7390    1.1510 ha        1 G55      0.173500
     44 H6          0.4990   -0.5970    4.9680 ha        1 G55      0.173500
     45 H7         -1.4800   -1.9960    4.4880 ha        1 G55      0.193000
     46 H12         0.4470    2.2650    1.6890 h1        1 G55      0.074200
     47 H12A        1.2630    3.8030    2.2040 h1        1 G55      0.074200
     48 H13         0.4610    1.4760    4.0990 hc        1 G55      0.022700
     49 H14         2.1840    2.6920    5.2260 hc        1 G55      0.051533
     50 H14A        1.6200    4.2960    4.5650 hc        1 G55      0.051533
     51 H14B        0.6440    3.4290    5.8150 hc        1 G55      0.051533
     52 H15        -1.4150    2.9890    4.7200 hc        1 G55      0.051533
     53 H15A       -0.8830    4.2010    3.4850 hc        1 G55      0.051533
     54 H15B       -1.4820    2.5720    2.9580 hc        1 G55      0.051533
     55 H16         4.5090    2.0820    2.5510 h1        1 G55      0.092200
     56 H16A        3.5240    3.1110    3.7050 h1        1 G55      0.092200
     57 H17         3.6880    3.8110    0.6750 h1        1 G55      0.112700
     58 HO18        3.0270    5.1920    3.0460 ho        1 G55      0.431000
     59 H19         6.0480    3.5580    1.4410 hx        1 G55      0.127700
     60 HN20        6.5780    6.0770    1.3470 hn        1 G55      0.488300
     61 H24         5.5750    5.5670   -2.9370 h1        1 G55      0.117700
     62 H25         7.1790    8.2090   -3.1450 h1        1 G55      0.075700
     63 H25A        5.4730    8.2330   -2.4540 h1        1 G55      0.075700
     64 H27         7.2950    7.9270   -5.5400 h2        1 G55      0.090700
     65 H27A        5.7720    7.1640   -6.3320 h2        1 G55      0.090700
     66 H29         8.4840    4.7780   -4.7690 h1        1 G55      0.073700
     67 H29A        8.7570    6.5850   -4.6200 h1        1 G55      0.073700
     68 H30         8.5640    6.2100   -2.3510 hc        1 G55      0.066700
     69 H30A        7.7920    4.5880   -2.5820 hc        1 G55      0.066700
     70 H32         5.7670    3.6850    3.8690 hc        1 G55      0.083200
     71 H32A        5.1500    5.3900    3.8030 hc        1 G55      0.083200
     72 H35        10.9160    6.4530    3.7880 ha        1 G55      0.166000
     73 H36        10.4790    4.0180    3.4350 ha        1 G55      0.162000
     74 H37         8.1430    3.1880    3.2130 ha        1 G55      0.135000
     75 H33         6.6680    7.2330    3.7160 ha        1 G55      0.135000
     76 H111        2.5280    1.7540    1.2960 hn        1 G55      0.385800
     77 H202        4.9260    6.2900    1.1330 hn        1 G55      0.488300
     78 H34         9.0050    8.0570    3.9180 ha        1 G55      0.162000
@<TRIPOS>BOND
     1    1    2 1   
     2    1    4 ar  
     3    1    8 ar  
     4    2    3 1   
     5    3   39 1   
     6    3   40 1   
     7    3   41 1   
     8    4    5 ar  
     9    4   42 1   
    10    5    6 ar  
    11    5   43 1   
    12    6    7 ar  
    13    6    9 1   
    14    7    8 ar  
    15    7   44 1   
    16    8   45 1   
    17    9   10 1   
    18    9   11 1   
    19   12   13 1   
    20   12   17 1   
    21   12   76 1   
    22   13   14 1   
    23   13   46 1   
    24   13   47 1   
    25   14   15 1   
    26   14   16 1   
    27   14   48 1   
    28   15   49 1   
    29   15   50 1   
    30   15   51 1   
    31   16   52 1   
    32   16   53 1   
    33   16   54 1   
    34   17   18 1   
    35   17   55 1   
    36   17   56 1   
    37   18   19 1   
    38   18   20 1   
    39   18   57 1   
    40   19   58 1   
    41   20   21 1   
    42   20   32 1   
    43   20   59 1   
    44   21   22 1   
    45   21   60 1   
    46   21   77 1   
    47   22   23 2   
    48   22   24 1   
    49   24   25 1   
    50   25   26 1   
    51   25   31 1   
    52   25   61 1   
    53   26   27 1   
    54   26   62 1   
    55   26   63 1   
    56   27   28 1   
    57   28   29 1   
    58   28   64 1   
    59   28   65 1   
    60   29   30 1   
    61   30   31 1   
    62   30   66 1   
    63   30   67 1   
    64   31   68 1   
    65   31   69 1   
    66   32   38 1   
    67   32   70 1   
    68   32   71 1   
    69   33   34 ar  
    70   33   38 ar  
    71   33   75 1   
    72   34   35 ar  
    73   34   78 1   
    74   35   36 ar  
    75   35   72 1   
    76   36   37 ar  
    77   36   73 1   
    78   37   38 ar  
    79   37   74 1   
@<TRIPOS>SUBSTRUCTURE
     1 G55         1 TEMP              0 ****  ****    0 ROOT
