@<TRIPOS>MOLECULE
G55
   76    78     1     0     0
SMALL
bcc


@<TRIPOS>ATOM
      1 C2          2.0640   -3.7040   -0.7200 ca        1 G55      0.189100
      2 O39         1.5860   -4.9820   -0.5580 os        1 G55     -0.316900
      3 C40         2.5550   -5.9980   -0.3110 c3        1 G55      0.109700
      4 C3          1.0820   -2.7310   -0.9980 ca        1 G55     -0.211000
      5 C4          1.4700   -1.4120   -1.1750 ca        1 G55      0.019000
      6 C5          2.8170   -1.0260   -1.0770 ca        1 G55     -0.436500
      7 C6          3.7730   -2.0110   -0.7980 ca        1 G55      0.019000
      8 C7          3.4160   -3.3420   -0.6190 ca        1 G55     -0.211000
      9 S8          3.2880    0.5620   -1.3360 sy        1 G55      1.510200
     10 O9          4.6970    0.5980   -1.4430 o         1 G55     -0.656300
     11 O10         2.5700    1.1020   -2.4280 o         1 G55     -0.656300
     12 N11         2.8120    1.3280    0.0350 n3        1 G55     -0.799500
     13 C12         3.5010    1.1170    1.2820 c3        1 G55      0.220800
     14 C13         4.7720    1.9610    1.4890 c3        1 G55     -0.096700
     15 C14         4.4550    3.4350    1.6000 c3        1 G55     -0.087100
     16 C15         5.4710    1.4740    2.7420 c3        1 G55     -0.087100
     17 C16         1.6740    2.2000    0.0590 c3        1 G55      0.194800
     18 C17         0.4370    1.6280    0.7870 c3        1 G55      0.077100
     19 O18         0.4660    1.9030    2.1740 oh        1 G55     -0.592800
     20 C19        -0.8690    2.1560    0.1280 c3        1 G55      0.072700
     21 N20        -2.0520    1.4620    0.5970 n         1 G55     -0.504900
     22 C21        -2.2280    0.1380    0.2410 c         1 G55      0.735100
     23 O22        -1.6370   -0.5050   -0.6460 o         1 G55     -0.602000
     24 O23        -3.2280   -0.4800    0.9650 os        1 G55     -0.441900
     25 C24        -3.6630   -1.7660    0.4770 c3        1 G55      0.130100
     26 C25        -2.7210   -2.8370    1.0340 c3        1 G55      0.103400
     27 O26        -3.2590   -4.1430    0.8860 os        1 G55     -0.421600
     28 C27        -4.2380   -4.4930    1.8370 c3        1 G55      0.321200
     29 O28        -5.5150   -4.3300    1.2600 os        1 G55     -0.449600
     30 C29        -5.7190   -3.1910    0.4360 c3        1 G55      0.143400
     31 C30        -5.0970   -1.9140    0.9690 c3        1 G55     -0.123400
     32 C32        -0.9960    3.6750    0.3330 c3        1 G55     -0.042100
     33 C33        -3.2190    4.8090    0.1070 ca        1 G55     -0.121500
     34 C34        -4.2200    5.3850   -0.6740 ca        1 G55     -0.125500
     35 C35        -4.0880    5.4300   -2.0610 ca        1 G55     -0.126000
     36 C36        -2.9500    4.8970   -2.6670 ca        1 G55     -0.125500
     37 C37        -1.9470    4.3220   -1.8900 ca        1 G55     -0.121500
     38 C38        -2.0760    4.2730   -0.4960 ca        1 G55     -0.083300
     39 H40         3.0910   -5.8020    0.6490 h1        1 G55      0.050033
     40 H40A        1.9370   -6.9290   -0.2370 h1        1 G55      0.050033
     41 H40B        3.2770   -6.0680   -1.1600 h1        1 G55      0.050033
     42 H3          0.0240   -3.0250   -1.0750 ha        1 G55      0.156000
     43 H4          0.6930   -0.6570   -1.4030 ha        1 G55      0.162500
     44 H6          4.8380   -1.7220   -0.7310 ha        1 G55      0.162500
     45 H7          4.1890   -4.0930   -0.4080 ha        1 G55      0.156000
     46 H12         2.7930    1.3120    2.1390 h1        1 G55      0.054700
     47 H12A        3.7990    0.0270    1.3290 h1        1 G55      0.054700
     48 H13         5.4590    1.8030    0.6080 hc        1 G55      0.081700
     49 H14         4.0860    3.8340    0.6250 hc        1 G55      0.033867
     50 H14A        3.6750    3.6140    2.3780 hc        1 G55      0.033867
     51 H14B        5.3730    4.0050    1.8840 hc        1 G55      0.033867
     52 H15         5.7380    0.3940    2.6480 hc        1 G55      0.033867
     53 H15A        6.4090    2.0560    2.9070 hc        1 G55      0.033867
     54 H15B        4.8140    1.6010    3.6360 hc        1 G55      0.033867
     55 H16         1.9640    3.1670    0.5680 h1        1 G55      0.068200
     56 H16A        1.3870    2.4430   -1.0070 h1        1 G55      0.068200
     57 H17         0.4320    0.4980    0.7370 h1        1 G55      0.098700
     58 HO18        0.5950    2.8530    2.2840 ho        1 G55      0.398000
     59 H19        -0.7880    1.9430   -0.9830 h1        1 G55      0.096700
     60 HN20       -2.4310    1.7500    1.4710 hn        1 G55      0.322500
     61 H24        -3.6280   -1.7760   -0.6480 h1        1 G55      0.086700
     62 H25        -1.7740   -2.8580    0.4260 h1        1 G55      0.067700
     63 H25A       -2.4800   -2.6200    2.1070 h1        1 G55      0.067700
     64 H27        -4.1330   -5.6000    2.0110 h2        1 G55      0.058700
     65 H27A       -4.1570   -3.9010    2.7870 h2        1 G55      0.058700
     66 H29        -5.3290   -3.4220   -0.5920 h1        1 G55      0.056700
     67 H29A       -6.8390   -3.0980    0.4010 h1        1 G55      0.056700
     68 H30        -5.1200   -1.9040    2.0890 hc        1 G55      0.066700
     69 H30A       -5.6920   -1.0330    0.6110 hc        1 G55      0.066700
     70 H32        -1.1680    3.9020    1.4190 hc        1 G55      0.056200
     71 H32A       -0.0130    4.1380    0.0430 hc        1 G55      0.056200
     72 H34        -5.1160    5.8040   -0.1920 ha        1 G55      0.134000
     73 H35        -4.8780    5.8840   -2.6760 ha        1 G55      0.133000
     74 H36        -2.8420    4.9300   -3.7620 ha        1 G55      0.134000
     75 H37        -1.0510    3.9020   -2.3720 ha        1 G55      0.132000
     76 H33        -3.3300    4.7760    1.2010 ha        1 G55      0.132000
@<TRIPOS>BOND
     1    1    2 1   
     2    1    4 ar  
     3    1    8 ar  
     4    2    3 1   
     5    3   39 1   
     6    3   40 1   
     7    3   41 1   
     8    4    5 ar  
     9    4   42 1   
    10    5    6 ar  
    11    5   43 1   
    12    6    7 ar  
    13    6    9 1   
    14    7    8 ar  
    15    7   44 1   
    16    8   45 1   
    17    9   10 2   
    18    9   11 2   
    19    9   12 1   
    20   12   13 1   
    21   12   17 1   
    22   13   14 1   
    23   13   46 1   
    24   13   47 1   
    25   14   15 1   
    26   14   16 1   
    27   14   48 1   
    28   15   49 1   
    29   15   50 1   
    30   15   51 1   
    31   16   52 1   
    32   16   53 1   
    33   16   54 1   
    34   17   18 1   
    35   17   55 1   
    36   17   56 1   
    37   18   19 1   
    38   18   20 1   
    39   18   57 1   
    40   19   58 1   
    41   20   21 1   
    42   20   32 1   
    43   20   59 1   
    44   21   22 1   
    45   21   60 1   
    46   22   23 2   
    47   22   24 1   
    48   24   25 1   
    49   25   26 1   
    50   25   31 1   
    51   25   61 1   
    52   26   27 1   
    53   26   62 1   
    54   26   63 1   
    55   27   28 1   
    56   28   29 1   
    57   28   64 1   
    58   28   65 1   
    59   29   30 1   
    60   30   31 1   
    61   30   66 1   
    62   30   67 1   
    63   31   68 1   
    64   31   69 1   
    65   32   38 1   
    66   32   70 1   
    67   32   71 1   
    68   33   34 ar  
    69   33   38 ar  
    70   33   76 1   
    71   34   35 ar  
    72   34   72 1   
    73   35   36 ar  
    74   35   73 1   
    75   36   37 ar  
    76   36   74 1   
    77   37   38 ar  
    78   37   75 1   
@<TRIPOS>SUBSTRUCTURE
     1 G55         1 TEMP              0 ****  ****    0 ROOT
