@<TRIPOS>MOLECULE
G55
   78    79     1     0     0
SMALL
bcc


@<TRIPOS>ATOM
      1 C2         -0.6870   -2.7020    2.5170 ca        1 G55      0.308100
      2 O39        -1.7030   -3.5000    2.1560 os        1 G55     -0.261900
      3 C40        -2.8010   -3.6750    3.0700 c3        1 G55      0.096700
      4 C3          0.3770   -2.5990    1.5690 ca        1 G55     -0.214000
      5 C4          1.4600   -1.8160    1.8530 ca        1 G55      0.065500
      6 C5          1.5750   -1.0780    3.0770 ca        1 G55     -0.695500
      7 C6          0.4860   -1.1990    3.9960 ca        1 G55      0.065500
      8 C7         -0.6100   -1.9810    3.7380 ca        1 G55     -0.214000
      9 S8          2.8270   -0.2610    3.4000 s4        1 G55      1.692300
     10 O9          2.9290    0.3480    4.6100 o         1 G55     -0.444400
     11 O10         3.9000   -0.3570    2.5680 o         1 G55     -0.444400
     12 N11         2.4610    1.9950    2.2660 n3        1 G55     -0.889200
     13 C12         1.1770    2.6740    2.4490 c3        1 G55      0.115800
     14 C13         0.5350    2.5260    3.8350 c3        1 G55     -0.062700
     15 C14         1.3060    3.2410    4.9220 c3        1 G55     -0.104100
     16 C15        -0.8830    3.0600    3.7550 c3        1 G55     -0.104100
     17 C16         3.6380    2.7720    2.6270 c3        1 G55      0.100800
     18 C17         3.9250    4.0180    1.7690 c3        1 G55      0.095100
     19 O18         3.1200    5.1280    2.1030 oh        1 G55     -0.598800
     20 C19         5.4250    4.4100    1.8700 c3        1 G55      0.104500
     21 N20         5.6900    5.6370    1.0310 n4        1 G55     -0.641800
     22 C21         5.8170    5.3290   -0.4280 c         1 G55      0.627100
     23 O22         5.5360    4.2350   -0.9010 o         1 G55     -0.443000
     24 O23         6.2580    6.4080   -1.0900 os        1 G55     -0.402900
     25 C24         6.3570    6.2880   -2.5570 c3        1 G55      0.134100
     26 C25         6.1280    7.7180   -3.0710 c3        1 G55      0.126400
     27 O26         5.5020    7.6340   -4.3350 os        1 G55     -0.415600
     28 C27         6.3610    7.2850   -5.4080 c3        1 G55      0.305200
     29 O28         6.7960    5.9660   -5.1670 os        1 G55     -0.427600
     30 C29         7.9930    5.8400   -4.4090 c3        1 G55      0.128400
     31 C30         7.7240    5.7370   -2.9090 c3        1 G55     -0.142400
     32 C32         5.8590    4.6590    3.3220 c3        1 G55     -0.052100
     33 C33         7.4960    6.5290    3.6250 ca        1 G55     -0.132000
     34 C34         8.8020    6.9970    3.7520 ca        1 G55     -0.110000
     35 C35         9.8760    6.1090    3.6670 ca        1 G55     -0.090000
     36 C36         9.6400    4.7490    3.4570 ca        1 G55     -0.110000
     37 C37         8.3340    4.2770    3.3320 ca        1 G55     -0.132000
     38 C38         7.2550    5.1650    3.4120 ca        1 G55     -0.173300
     39 H40        -2.4370   -4.1280    4.0230 h1        1 G55      0.084033
     40 H40A       -3.3110   -2.6970    3.2450 h1        1 G55      0.084033
     41 H40B       -3.4670   -4.3850    2.5120 h1        1 G55      0.084033
     42 H3          0.3020   -3.1680    0.6250 ha        1 G55      0.193000
     43 H4          2.2910   -1.7530    1.1230 ha        1 G55      0.173500
     44 H6          0.5450   -0.6480    4.9560 ha        1 G55      0.173500
     45 H7         -1.4250   -2.0580    4.4760 ha        1 G55      0.193000
     46 H12         1.2660    3.7760    2.2170 h1        1 G55      0.074200
     47 H12A        0.4580    2.2360    1.6940 h1        1 G55      0.074200
     48 H13         0.4870    1.4300    4.0980 hc        1 G55      0.022700
     49 H14         2.2050    2.6510    5.2280 hc        1 G55      0.051533
     50 H14A        0.6620    3.3710    5.8280 hc        1 G55      0.051533
     51 H14B        1.6270    4.2550    4.5810 hc        1 G55      0.051533
     52 H15        -1.4680    2.5200    2.9710 hc        1 G55      0.051533
     53 H15A       -0.8790    4.1490    3.5080 hc        1 G55      0.051533
     54 H15B       -1.3980    2.9240    4.7370 hc        1 G55      0.051533
     55 H16         4.5250    2.0760    2.5390 h1        1 G55      0.092200
     56 H16A        3.5380    3.0880    3.7050 h1        1 G55      0.092200
     57 H17         3.6830    3.8140    0.6800 h1        1 G55      0.112700
     58 HO18        3.0230    5.1710    3.0660 ho        1 G55      0.431000
     59 H19         6.0480    3.5710    1.4320 hx        1 G55      0.127700
     60 HN20        4.9060    6.2980    1.1530 hn        1 G55      0.488300
     61 H24         5.5390    5.6080   -2.9250 h1        1 G55      0.117700
     62 H25         5.3960    8.2670   -2.4220 h1        1 G55      0.075700
     63 H25A        7.0980    8.2770   -3.1230 h1        1 G55      0.075700
     64 H27         7.2030    8.0160   -5.5210 h2        1 G55      0.090700
     65 H27A        5.6880    7.2330   -6.3090 h2        1 G55      0.090700
     66 H29         8.6930    6.6910   -4.6200 h1        1 G55      0.073700
     67 H29A        8.4500    4.8810   -4.7810 h1        1 G55      0.073700
     68 H30         8.5210    6.2950   -2.3520 hc        1 G55      0.066700
     69 H30A        7.7740    4.6620   -2.5910 hc        1 G55      0.066700
     70 H32         5.7780    3.6760    3.8630 hc        1 G55      0.083200
     71 H32A        5.1500    5.3770    3.8140 hc        1 G55      0.083200
     72 H35        10.9080    6.4790    3.7780 ha        1 G55      0.166000
     73 H36        10.4860    4.0450    3.4040 ha        1 G55      0.162000
     74 H37         8.1540    3.2000    3.1880 ha        1 G55      0.135000
     75 H33         6.6540    7.2300    3.7380 ha        1 G55      0.135000
     76 H111        2.5420    1.7420    1.2900 hn        1 G55      0.385800
     77 H202        6.5610    6.0940    1.3570 hn        1 G55      0.488300
     78 H34         8.9870    8.0680    3.9360 ha        1 G55      0.162000
@<TRIPOS>BOND
     1    1    2 1   
     2    1    4 ar  
     3    1    8 ar  
     4    2    3 1   
     5    3   39 1   
     6    3   40 1   
     7    3   41 1   
     8    4    5 ar  
     9    4   42 1   
    10    5    6 ar  
    11    5   43 1   
    12    6    7 ar  
    13    6    9 1   
    14    7    8 ar  
    15    7   44 1   
    16    8   45 1   
    17    9   10 1   
    18    9   11 1   
    19   12   13 1   
    20   12   17 1   
    21   12   76 1   
    22   13   14 1   
    23   13   46 1   
    24   13   47 1   
    25   14   15 1   
    26   14   16 1   
    27   14   48 1   
    28   15   49 1   
    29   15   50 1   
    30   15   51 1   
    31   16   52 1   
    32   16   53 1   
    33   16   54 1   
    34   17   18 1   
    35   17   55 1   
    36   17   56 1   
    37   18   19 1   
    38   18   20 1   
    39   18   57 1   
    40   19   58 1   
    41   20   21 1   
    42   20   32 1   
    43   20   59 1   
    44   21   22 1   
    45   21   60 1   
    46   21   77 1   
    47   22   23 2   
    48   22   24 1   
    49   24   25 1   
    50   25   26 1   
    51   25   31 1   
    52   25   61 1   
    53   26   27 1   
    54   26   62 1   
    55   26   63 1   
    56   27   28 1   
    57   28   29 1   
    58   28   64 1   
    59   28   65 1   
    60   29   30 1   
    61   30   31 1   
    62   30   66 1   
    63   30   67 1   
    64   31   68 1   
    65   31   69 1   
    66   32   38 1   
    67   32   70 1   
    68   32   71 1   
    69   33   34 ar  
    70   33   38 ar  
    71   33   75 1   
    72   34   35 ar  
    73   34   78 1   
    74   35   36 ar  
    75   35   72 1   
    76   36   37 ar  
    77   36   73 1   
    78   37   38 ar  
    79   37   74 1   
@<TRIPOS>SUBSTRUCTURE
     1 G55         1 TEMP              0 ****  ****    0 ROOT
