@<TRIPOS>MOLECULE
G55
   78    79     1     0     0
SMALL
bcc


@<TRIPOS>ATOM
      1 C2         -0.8890   -2.5590    2.3720 ca        1 G55      0.308100
      2 O39        -1.9300   -3.3110    1.9820 os        1 G55     -0.261900
      3 C40        -3.0410   -3.4700    2.8820 c3        1 G55      0.096700
      4 C3          0.1860   -2.4710    1.4360 ca        1 G55     -0.214000
      5 C4          1.2940   -1.7350    1.7500 ca        1 G55      0.065500
      6 C5          1.4250   -1.0340    2.9940 ca        1 G55     -0.694500
      7 C6          0.3240   -1.1390    3.9000 ca        1 G55      0.065500
      8 C7         -0.7970   -1.8750    3.6120 ca        1 G55     -0.214000
      9 S8          2.7020   -0.2720    3.3490 s4        1 G55      1.692300
     10 O9          2.8150    0.3000    4.5760 o         1 G55     -0.443900
     11 O10         3.7780   -0.3840    2.5230 o         1 G55     -0.443900
     12 N11         2.4180    2.0210    2.2700 n3        1 G55     -0.889200
     13 C12         1.1620    2.7450    2.4780 c3        1 G55      0.115800
     14 C13         0.5250    2.5920    3.8660 c3        1 G55     -0.062700
     15 C14         1.3320    3.2530    4.9620 c3        1 G55     -0.104100
     16 C15        -0.8720    3.1820    3.8080 c3        1 G55     -0.104100
     17 C16         3.6260    2.7440    2.6370 c3        1 G55      0.099800
     18 C17         3.9560    3.9930    1.8000 c3        1 G55      0.094100
     19 O18         3.2020    5.1290    2.1620 oh        1 G55     -0.598800
     20 C19         5.4730    4.3210    1.8930 c3        1 G55      0.105500
     21 N20         5.7820    5.5470    1.0670 n4        1 G55     -0.642800
     22 C21         5.9020    5.2460   -0.3950 c         1 G55      0.627100
     23 O22         5.4660    4.2160   -0.8910 o         1 G55     -0.440000
     24 O23         6.5390    6.2460   -1.0180 os        1 G55     -0.404900
     25 C24         6.6970    6.1300   -2.4820 c3        1 G55      0.133100
     26 C25         5.6520    7.0520   -3.1250 c3        1 G55      0.114400
     27 O26         5.3090    6.5280   -4.3920 os        1 G55     -0.418600
     28 C27         6.2620    6.7640   -5.4150 c3        1 G55      0.307200
     29 O28         7.4300    6.0650   -5.0540 os        1 G55     -0.426600
     30 C29         8.3550    6.7870   -4.2500 c3        1 G55      0.126400
     31 C30         8.1260    6.5610   -2.7570 c3        1 G55     -0.125400
     32 C32         5.9280    4.5310    3.3440 c3        1 G55     -0.052100
     33 C33         7.6490    6.3210    3.6640 ca        1 G55     -0.131500
     34 C34         8.9760    6.7280    3.7860 ca        1 G55     -0.110000
     35 C35        10.0080    5.7940    3.6750 ca        1 G55     -0.090000
     36 C36         9.7100    4.4500    3.4440 ca        1 G55     -0.110000
     37 C37         8.3830    4.0390    3.3230 ca        1 G55     -0.131500
     38 C38         7.3450    4.9730    3.4290 ca        1 G55     -0.173300
     39 H40        -3.5180   -2.4800    3.0790 h1        1 G55      0.084033
     40 H40A       -2.7020   -3.9610    3.8260 h1        1 G55      0.084033
     41 H40B       -3.7270   -4.1410    2.3000 h1        1 G55      0.084033
     42 H3          0.1000   -3.0120    0.4770 ha        1 G55      0.193000
     43 H4          2.1340   -1.6830    1.0290 ha        1 G55      0.173500
     44 H6          0.3940   -0.6160    4.8750 ha        1 G55      0.173500
     45 H7         -1.6220   -1.9410    4.3420 ha        1 G55      0.193000
     46 H12         0.4220    2.3530    1.7190 h1        1 G55      0.073700
     47 H12A        1.2940    3.8470    2.2700 h1        1 G55      0.073700
     48 H13         0.4370    1.4930    4.1070 hc        1 G55      0.022700
     49 H14         2.2080    2.6210    5.2480 hc        1 G55      0.051200
     50 H14A        1.6900    4.2610    4.6390 hc        1 G55      0.051200
     51 H14B        0.6990    3.3900    5.8750 hc        1 G55      0.051200
     52 H15        -0.8270    4.2750    3.5850 hc        1 G55      0.051200
     53 H15A       -1.4820    2.6820    3.0180 hc        1 G55      0.051200
     54 H15B       -1.3840    3.0450    4.7920 hc        1 G55      0.051200
     55 H16         4.4850    2.0160    2.5320 h1        1 G55      0.092200
     56 H16A        3.5440    3.0450    3.7220 h1        1 G55      0.092200
     57 H17         3.6950    3.8200    0.7100 h1        1 G55      0.115700
     58 HO18        3.1160    5.1590    3.1270 ho        1 G55      0.431000
     59 H19         6.0550    3.4630    1.4390 hx        1 G55      0.126700
     60 HN20        5.0200    6.2320    1.1940 hn        1 G55      0.487800
     61 H24         6.5240    5.0650   -2.8030 h1        1 G55      0.122700
     62 H25         4.6940    7.0380   -2.5410 h1        1 G55      0.067700
     63 H25A        6.0410    8.1000   -3.2010 h1        1 G55      0.067700
     64 H27         5.8490    6.2380   -6.3200 h2        1 G55      0.090200
     65 H27A        6.4340    7.8610   -5.5760 h2        1 G55      0.090200
     66 H29         8.3250    7.8830   -4.4860 h1        1 G55      0.074200
     67 H29A        9.3580    6.3700   -4.5450 h1        1 G55      0.074200
     68 H30         8.3580    7.5060   -2.1990 hc        1 G55      0.070700
     69 H30A        8.8250    5.7680   -2.3840 hc        1 G55      0.070700
     70 H32         5.8070    3.5460    3.8740 hc        1 G55      0.083200
     71 H32A        5.2550    5.2740    3.8510 hc        1 G55      0.083200
     72 H35        11.0570    6.1160    3.7820 ha        1 G55      0.166000
     73 H36        10.5230    3.7100    3.3690 ha        1 G55      0.162000
     74 H37         8.1530    2.9740    3.1620 ha        1 G55      0.135000
     75 H33         6.8410    7.0560    3.7980 ha        1 G55      0.135000
     76 H111        2.4810    1.7860    1.2880 hn        1 G55      0.385800
     77 H202        6.6670    5.9700    1.4010 hn        1 G55      0.487800
     78 H34         9.2100    7.7860    3.9860 ha        1 G55      0.162000
@<TRIPOS>BOND
     1    1    2 1   
     2    1    4 ar  
     3    1    8 ar  
     4    2    3 1   
     5    3   39 1   
     6    3   40 1   
     7    3   41 1   
     8    4    5 ar  
     9    4   42 1   
    10    5    6 ar  
    11    5   43 1   
    12    6    7 ar  
    13    6    9 1   
    14    7    8 ar  
    15    7   44 1   
    16    8   45 1   
    17    9   10 1   
    18    9   11 1   
    19   12   13 1   
    20   12   17 1   
    21   12   76 1   
    22   13   14 1   
    23   13   46 1   
    24   13   47 1   
    25   14   15 1   
    26   14   16 1   
    27   14   48 1   
    28   15   49 1   
    29   15   50 1   
    30   15   51 1   
    31   16   52 1   
    32   16   53 1   
    33   16   54 1   
    34   17   18 1   
    35   17   55 1   
    36   17   56 1   
    37   18   19 1   
    38   18   20 1   
    39   18   57 1   
    40   19   58 1   
    41   20   21 1   
    42   20   32 1   
    43   20   59 1   
    44   21   22 1   
    45   21   60 1   
    46   21   77 1   
    47   22   23 2   
    48   22   24 1   
    49   24   25 1   
    50   25   26 1   
    51   25   31 1   
    52   25   61 1   
    53   26   27 1   
    54   26   62 1   
    55   26   63 1   
    56   27   28 1   
    57   28   29 1   
    58   28   64 1   
    59   28   65 1   
    60   29   30 1   
    61   30   31 1   
    62   30   66 1   
    63   30   67 1   
    64   31   68 1   
    65   31   69 1   
    66   32   38 1   
    67   32   70 1   
    68   32   71 1   
    69   33   34 ar  
    70   33   38 ar  
    71   33   75 1   
    72   34   35 ar  
    73   34   78 1   
    74   35   36 ar  
    75   35   72 1   
    76   36   37 ar  
    77   36   73 1   
    78   37   38 ar  
    79   37   74 1   
@<TRIPOS>SUBSTRUCTURE
     1 G55         1 TEMP              0 ****  ****    0 ROOT
