@<TRIPOS>MOLECULE
G58
   60    63     1     0     0
SMALL
bcc


@<TRIPOS>ATOM
      1 C1          0.2140    0.3100   -0.4780 c3        1 G58     -0.005400
      2 F1          4.9010    2.4950   -2.3260 f         1 G58     -0.120900
      3 N1          1.5520   -0.0100   -0.0770 na        1 G58     -0.168900
      4 O1          5.6250   -2.2040    0.1150 o         1 G58     -0.577800
      5 S1          5.2190   -1.0120   -0.4450 sy        1 G58      1.443800
      6 CL1         6.4510    2.8010    2.5190 cl        1 G58     -0.074400
      7 C2          1.9890   -0.2170    1.2610 cc        1 G58      0.440400
      8 N2          3.2820   -0.5330    1.3050 nd        1 G58     -0.591000
      9 O2          5.5030   -0.7440   -1.7710 o         1 G58     -0.577800
     10 S2         12.5530   -3.0280   -5.7970 sy        1 G58      1.396300
     11 C3          3.7390   -0.5480   -0.0400 cd        1 G58     -0.177800
     12 N3          6.2120    0.2770    0.5490 n4        1 G58     -0.609300
     13 O3         11.1740   -3.0520   -6.0510 o         1 G58     -0.651300
     14 C4          2.6400   -0.2060   -0.8870 cc        1 G58     -0.011600
     15 O4         13.3900   -2.4460   -6.7550 o         1 G58     -0.651300
     16 C5          7.4200   -0.3290    1.2000 c3        1 G58      0.166100
     17 C6          8.5720   -0.5980    0.2900 ca        1 G58     -0.170300
     18 C7          9.6110    0.3340    0.1740 ca        1 G58     -0.103500
     19 C8         10.7130    0.0620   -0.6310 ca        1 G58     -0.116500
     20 C9         10.8000   -1.1520   -1.3310 cp        1 G58      0.015000
     21 C10         9.7720   -2.0950   -1.1870 ca        1 G58     -0.116500
     22 C11         8.6710   -1.8240   -0.3790 ca        1 G58     -0.103500
     23 C12        11.9410   -1.4250   -2.2010 cp        1 G58     -0.091000
     24 C13        13.2380   -1.0440   -1.8250 ca        1 G58     -0.051000
     25 C14        14.3140   -1.2870   -2.6760 ca        1 G58     -0.150000
     26 C15        14.1050   -1.9090   -3.9050 ca        1 G58     -0.004000
     27 C16        12.8210   -2.3090   -4.2950 ca        1 G58     -0.373500
     28 C17        11.7480   -2.0610   -3.4330 ca        1 G58     -0.005000
     29 C18        13.0880   -4.5960   -5.4670 c3        1 G58     -0.365300
     30 C19         6.5570    1.4880   -0.2460 c3        1 G58      0.155100
     31 C20         5.6260    2.6410   -0.0460 ca        1 G58     -0.190300
     32 C21         4.8680    3.1320   -1.1330 ca        1 G58      0.157900
     33 C22         4.0760    4.2880   -0.9950 ca        1 G58     -0.159000
     34 C23         4.0310    4.9490    0.2260 ca        1 G58     -0.067000
     35 C24         4.7630    4.4740    1.3150 ca        1 G58     -0.126000
     36 C25         5.5550    3.3330    1.1740 ca        1 G58      0.044400
     37 H1         -0.4640   -0.5580   -0.2530 h1        1 G58      0.085700
     38 H1A         0.1860    0.5280   -1.5790 h1        1 G58      0.085700
     39 H1B        -0.1410    1.2130    0.0900 h1        1 G58      0.085700
     40 H2          1.3090   -0.1230    2.1210 h5        1 G58      0.101100
     41 H4          2.6150   -0.1120   -1.9800 h4        1 G58      0.224000
     42 H5          7.7550    0.3720    2.0210 hx        1 G58      0.107200
     43 H5A         7.0800   -1.2960    1.6810 hx        1 G58      0.107200
     44 H7          9.5740    1.2820    0.7330 ha        1 G58      0.147500
     45 H8         11.5190    0.8060   -0.7240 ha        1 G58      0.155000
     46 H10         9.8380   -3.0630   -1.7110 ha        1 G58      0.155000
     47 H11         7.8850   -2.5900   -0.2570 ha        1 G58      0.147500
     48 H13        13.4070   -0.5550   -0.8520 ha        1 G58      0.142000
     49 H14        15.3290   -0.9820   -2.3800 ha        1 G58      0.153000
     50 H15        14.9560   -2.0750   -4.5900 ha        1 G58      0.159000
     51 H17        10.7290   -2.3530   -3.7480 ha        1 G58      0.163000
     52 H18        13.1100   -5.2190   -6.3990 h1        1 G58      0.119033
     53 H18A       12.4320   -5.1430   -4.7460 h1        1 G58      0.119033
     54 H18B       14.1230   -4.6340   -5.0490 h1        1 G58      0.119033
     55 H19         6.5890    1.1920   -1.3410 hx        1 G58      0.125700
     56 H19A        7.6000    1.8310    0.0290 hx        1 G58      0.125700
     57 H22         3.5120    4.6630   -1.8650 ha        1 G58      0.172000
     58 H23         3.4190    5.8600    0.3350 ha        1 G58      0.167000
     59 H24         4.7260    5.0080    2.2800 ha        1 G58      0.174000
     60 H31         5.6220    0.5870    1.3280 hn        1 G58      0.452800
@<TRIPOS>BOND
     1    1    3 1   
     2    1   37 1   
     3    1   38 1   
     4    1   39 1   
     5    2   32 1   
     6    3    7 1   
     7    3   14 1   
     8    4    5 2   
     9    5    9 2   
    10    5   11 1   
    11    5   12 1   
    12    6   36 1   
    13    7    8 2   
    14    7   40 1   
    15    8   11 1   
    16   10   13 2   
    17   10   15 2   
    18   10   27 1   
    19   10   29 1   
    20   11   14 2   
    21   12   16 1   
    22   12   30 1   
    23   12   60 1   
    24   14   41 1   
    25   16   17 1   
    26   16   42 1   
    27   16   43 1   
    28   17   18 ar  
    29   17   22 ar  
    30   18   19 ar  
    31   18   44 1   
    32   19   20 ar  
    33   19   45 1   
    34   20   21 ar  
    35   20   23 1   
    36   21   22 ar  
    37   21   46 1   
    38   22   47 1   
    39   23   24 ar  
    40   23   28 ar  
    41   24   25 ar  
    42   24   48 1   
    43   25   26 ar  
    44   25   49 1   
    45   26   27 ar  
    46   26   50 1   
    47   27   28 ar  
    48   28   51 1   
    49   29   52 1   
    50   29   53 1   
    51   29   54 1   
    52   30   31 1   
    53   30   55 1   
    54   30   56 1   
    55   31   32 ar  
    56   31   36 ar  
    57   32   33 ar  
    58   33   34 ar  
    59   33   57 1   
    60   34   35 ar  
    61   34   58 1   
    62   35   36 ar  
    63   35   59 1   
@<TRIPOS>SUBSTRUCTURE
     1 G58         1 TEMP              0 ****  ****    0 ROOT
