@<TRIPOS>MOLECULE
G58
   59    49     1     0     0
SMALL
bcc


@<TRIPOS>ATOM
      1 C1         -7.3320   -1.9270    1.1910 c3        1 G58     -0.084000
      2 F1         -3.6910    4.5870   -0.2440 f         1 G58     -0.093000
      3 N1         -6.0640   -1.2640    1.1440 n3        1 G58     -0.154000
      4 O1         -2.4550   -0.5670   -1.3260 o         1 G58     -0.936500
      5 S1         -3.0040    0.4770   -0.5030 ss        1 G58      2.871000
      6 CL1        -0.3840    2.8360    3.4710 cl        1 G58     -0.007000
      7 C2         -5.1640   -1.4150    2.1490 c1        1 G58     -0.097000
      8 N2         -4.0470   -0.7340    1.8160 n2        1 G58     -0.063000
      9 O2         -3.5940    1.3370   -1.5000 o         1 G58     -0.936500
     10 S2          6.9360   -3.5980   -1.2890 ss        1 G58      2.871000
     11 C3         -4.2490   -0.1680    0.6240 c1        1 G58     -0.861000
     12 N3         -1.8020    1.2730    0.3500 n2        1 G58     -0.809000
     13 O3          6.6610   -3.8320    0.1070 o         1 G58     -0.936500
     14 C4         -5.5100   -0.5000    0.2070 c1        1 G58      0.002000
     15 O4          6.9140   -4.9450   -1.8080 o         1 G58     -0.936500
     16 C5         -0.8740    0.5170    1.1730 c3        1 G58      0.014000
     17 C6          0.2910    0.0080    0.3020 c2        1 G58     -0.102000
     18 C7          1.4290    0.7920    0.1370 c2        1 G58     -0.118000
     19 C8          2.5200    0.2940   -0.5680 c1        1 G58     -0.124000
     20 C9          2.4720   -0.9850   -1.1100 c1        1 G58     -0.042000
     21 C10         1.3360   -1.7670   -0.9460 c1        1 G58     -0.119000
     22 C11         0.2440   -1.2690   -0.2390 c1        1 G58     -0.110000
     23 C12         3.5420   -1.4580   -1.8860 c1        1 G58     -0.054000
     24 C13         3.5960   -1.1700   -3.2430 c1        1 G58     -0.112000
     25 C14         4.6810   -1.5920   -4.0000 c1        1 G58     -0.112000
     26 C15         5.7140   -2.3030   -3.3980 c1        1 G58     -0.021000
     27 C16         5.6600   -2.5910   -2.0420 c1        1 G58     -0.833000
     28 C17         4.5730   -2.1690   -1.2850 c2        1 G58     -0.011000
     29 C18         8.5360   -2.8410   -1.5170 c2        1 G58     -0.935000
     30 C19        -1.5980    2.7100    0.1530 c3        1 G58      0.024000
     31 C20        -2.2760    3.4890    1.3000 c2        1 G58     -0.122000
     32 C21        -3.3040    4.3910    1.0180 c2        1 G58      0.105000
     33 C22        -3.8570    5.1600    2.0420 c1        1 G58     -0.171000
     34 C23        -3.3850    5.0280    3.3440 c1        1 G58     -0.112000
     35 C24        -2.3590    4.1290    3.6260 c1        1 G58     -0.112000
     36 C25        -1.8050    3.3580    2.6000 c1        1 G58     -0.023000
     37 H1         -7.2010   -2.8680    1.4450 h1        1 G58      0.101000
     38 H1A        -7.9090   -1.4850    1.8560 h1        1 G58      0.101000
     39 H1B        -7.7570   -1.8820    0.3090 h1        1 G58      0.101000
     40 H2         -5.3000   -1.9280    2.9690 DU        1 G58      0.206000
     41 H4         -5.9370   -0.2010   -0.6120 DU        1 G58      0.206000
     42 H5         -0.5220    1.0940    1.8840 h1        1 G58      0.112000
     43 H5A        -1.3360   -0.2410    1.5700 h1        1 G58      0.112000
     44 H7          1.4630    1.6880    0.5170 ha        1 G58      0.133000
     45 H8          3.3180    0.8440   -0.6840 ha        1 G58      0.132000
     46 H10         1.3030   -2.6700   -1.3280 ha        1 G58      0.137000
     47 H11        -0.5640   -1.8260   -0.1220 ha        1 G58      0.175000
     48 H13         2.8680   -0.6690   -3.6670 ha        1 G58      0.146250
     49 H14         4.7200   -1.3880   -4.9600 ha        1 G58      0.146250
     50 H15         6.4780   -2.6000   -3.9310 ha        1 G58      0.154000
     51 H17         4.5540   -2.3370   -0.3210 ha        1 G58      0.160000
     52 H18         9.2360   -3.4670   -1.2390 ha        1 G58      0.151667
     53 H18A        8.6580   -2.6140   -2.4610 ha        1 G58      0.151667
     54 H18B        8.5930   -2.0250   -0.9750 ha        1 G58      0.151667
     55 H19        -1.9910    2.9800   -0.7000 h1        1 G58      0.119500
     56 H19A       -0.6430    2.9060    0.1480 h1        1 G58      0.119500
     57 H22        -4.5800    5.7950    1.8430 ha        1 G58      0.151000
     58 H23        -3.7750    5.5700    4.0660 ha        1 G58      0.146250
     59 H24        -2.0280    4.0370    4.5400 ha        1 G58      0.146250
@<TRIPOS>BOND
     1    1    3 1   
     2    1   37 1   
     3    1   38 1   
     4    1   39 1   
     5    2   32 1   
     6    3    7 1   
     7    3   14 1   
     8    4    5 1   
     9    5    9 1   
    10    6   36 1   
    11    7    8 1   
    12    8   11 1   
    13   10   13 1   
    14   10   15 1   
    15   11   14 1   
    16   12   16 1   
    17   12   30 1   
    18   16   17 1   
    19   16   42 1   
    20   16   43 1   
    21   17   18 1   
    22   17   22 1   
    23   18   19 1   
    24   18   44 1   
    25   19   45 1   
    26   20   21 1   
    27   21   46 1   
    28   22   47 1   
    29   23   28 1   
    30   24   25 1   
    31   24   48 1   
    32   25   49 1   
    33   26   27 1   
    34   26   50 1   
    35   27   28 1   
    36   28   51 1   
    37   29   52 1   
    38   29   53 1   
    39   29   54 1   
    40   30   31 1   
    41   30   55 1   
    42   30   56 1   
    43   31   32 1   
    44   31   36 1   
    45   32   33 1   
    46   33   57 1   
    47   34   35 1   
    48   34   58 1   
    49   35   59 1   
@<TRIPOS>SUBSTRUCTURE
     1 G58         1 TEMP              0 ****  ****    0 ROOT
