@<TRIPOS>MOLECULE
G58
   60    63     1     0     0
SMALL
bcc


@<TRIPOS>ATOM
      1 C1          0.2190    0.2820   -0.4230 c3        1 G58     -0.005400
      2 F1          4.8770    2.4670   -2.3370 f         1 G58     -0.120900
      3 N1          1.5620   -0.0260   -0.0290 na        1 G58     -0.168900
      4 O1          5.6470   -2.1970    0.1590 o         1 G58     -0.577800
      5 S1          5.2310   -1.0140   -0.4140 sy        1 G58      1.443800
      6 Cl1         6.4670    2.8440    2.4910 cl        1 G58     -0.074400
      7 C2          2.0100   -0.2130    1.3080 cc        1 G58      0.440400
      8 N2          3.3050   -0.5220    1.3460 nd        1 G58     -0.591000
      9 O2          5.5030   -0.7620   -1.7450 o         1 G58     -0.577800
     10 S2         12.5290   -3.0670   -5.7990 sy        1 G58      1.396300
     11 C3          3.7520   -0.5520   -0.0030 cd        1 G58     -0.177800
     12 N3          6.2240    0.2930    0.5560 nx        1 G58     -0.609300
     13 O3         11.1480   -3.1020   -6.0420 o         1 G58     -0.651300
     14 C4          2.6440   -0.2270   -0.8450 cc        1 G58     -0.011600
     15 O4         13.3540   -2.4940   -6.7720 o         1 G58     -0.651300
     16 C5          7.4410   -0.2970    1.2040 c3        1 G58      0.166100
     17 C6          8.5870   -0.5740    0.2880 ca        1 G58     -0.170300
     18 C7          9.6200    0.3620    0.1500 ca        1 G58     -0.103500
     19 C8         10.7160    0.0850   -0.6610 ca        1 G58     -0.116500
     20 C9         10.8040   -1.1380   -1.3440 cp        1 G58      0.015000
     21 C10         9.7820   -2.0840   -1.1790 ca        1 G58     -0.116500
     22 C11         8.6870   -1.8080   -0.3660 ca        1 G58     -0.103500
     23 C12        11.9390   -1.4170   -2.2210 cp        1 G58     -0.091000
     24 C13        13.2370   -1.0230   -1.8610 ca        1 G58     -0.051000
     25 C14        14.3070   -1.2720   -2.7180 ca        1 G58     -0.150000
     26 C15        14.0900   -1.9130   -3.9370 ca        1 G58     -0.004000
     27 C16        12.8060   -2.3260   -4.3090 ca        1 G58     -0.373500
     28 C17        11.7390   -2.0700   -3.4420 ca        1 G58     -0.005000
     29 C18        13.0740   -4.6270   -5.4520 c3        1 G58     -0.365300
     30 C19         6.5560    1.4960   -0.2590 c3        1 G58      0.155100
     31 C20         5.6210    2.6460   -0.0650 ca        1 G58     -0.190300
     32 C21         4.8510    3.1200   -1.1520 ca        1 G58      0.157900
     33 C22         4.0540    4.2730   -1.0220 ca        1 G58     -0.159000
     34 C23         4.0160    4.9490    0.1920 ca        1 G58     -0.067000
     35 C24         4.7600    4.4930    1.2800 ca        1 G58     -0.126000
     36 C25         5.5560    3.3530    1.1470 ca        1 G58      0.044400
     37 H1         -0.4540   -0.5860   -0.1810 h1        1 G58      0.085700
     38 H1A         0.1800    0.4830   -1.5270 h1        1 G58      0.085700
     39 H1B        -0.1360    1.1910    0.1340 h1        1 G58      0.085700
     40 H2          1.3370   -0.1120    2.1720 h5        1 G58      0.101100
     41 H4          2.6090   -0.1470   -1.9400 h4        1 G58      0.224000
     42 H5          7.7800    0.4150    2.0130 hx        1 G58      0.107200
     43 H5A         7.1100   -1.2600    1.7010 hx        1 G58      0.107200
     44 H7          9.5830    1.3180    0.6970 ha        1 G58      0.147500
     45 H8         11.5180    0.8320   -0.7710 ha        1 G58      0.155000
     46 H10         9.8480   -3.0580   -1.6900 ha        1 G58      0.155000
     47 H11         7.9060   -2.5760   -0.2260 ha        1 G58      0.147500
     48 H13        13.4110   -0.5200   -0.8970 ha        1 G58      0.142000
     49 H14        15.3230   -0.9580   -2.4350 ha        1 G58      0.153000
     50 H15        14.9360   -2.0840   -4.6260 ha        1 G58      0.159000
     51 H17        10.7180   -2.3720   -3.7440 ha        1 G58      0.163000
     52 H18        13.0920   -5.2630   -6.3750 h1        1 G58      0.119033
     53 H18A       12.4290   -5.1670   -4.7180 h1        1 G58      0.119033
     54 H18B       14.1140   -4.6530   -5.0420 h1        1 G58      0.119033
     55 H19         6.5810    1.1860   -1.3490 hx        1 G58      0.125700
     56 H19A        7.6000    1.8480    0.0040 hx        1 G58      0.125700
     57 H22         3.4810    4.6330   -1.8910 ha        1 G58      0.172000
     58 H23         3.4000    5.8580    0.2940 ha        1 G58      0.167000
     59 H24         4.7280    5.0380    2.2380 ha        1 G58      0.174000
     60 H31         5.6390    0.6100    1.3350 hn        1 G58      0.452800
@<TRIPOS>BOND
     1    1    3 1   
     2    1   37 1   
     3    1   38 1   
     4    1   39 1   
     5    2   32 1   
     6    3    7 1   
     7    3   14 1   
     8    4    5 2   
     9    5    9 2   
    10    5   11 1   
    11    5   12 1   
    12    6   36 1   
    13    7    8 2   
    14    7   40 1   
    15    8   11 1   
    16   10   13 2   
    17   10   15 2   
    18   10   27 1   
    19   10   29 1   
    20   11   14 2   
    21   12   16 1   
    22   12   30 1   
    23   12   60 1   
    24   14   41 1   
    25   16   17 1   
    26   16   42 1   
    27   16   43 1   
    28   17   18 ar  
    29   17   22 ar  
    30   18   19 ar  
    31   18   44 1   
    32   19   20 ar  
    33   19   45 1   
    34   20   21 ar  
    35   20   23 1   
    36   21   22 ar  
    37   21   46 1   
    38   22   47 1   
    39   23   24 ar  
    40   23   28 ar  
    41   24   25 ar  
    42   24   48 1   
    43   25   26 ar  
    44   25   49 1   
    45   26   27 ar  
    46   26   50 1   
    47   27   28 ar  
    48   28   51 1   
    49   29   52 1   
    50   29   53 1   
    51   29   54 1   
    52   30   31 1   
    53   30   55 1   
    54   30   56 1   
    55   31   32 ar  
    56   31   36 ar  
    57   32   33 ar  
    58   33   34 ar  
    59   33   57 1   
    60   34   35 ar  
    61   34   58 1   
    62   35   36 ar  
    63   35   59 1   
@<TRIPOS>SUBSTRUCTURE
     1 G58         1 TEMP              0 ****  ****    0 ROOT
