@<TRIPOS>MOLECULE
G58
   59    62     1     0     0
SMALL
bcc


@<TRIPOS>ATOM
      1 C1          7.1690    3.4070    0.5850 c3        1 G58      0.014600
      2 F1          4.9150   -0.3760   -2.1470 f         1 G58     -0.125900
      3 N1          5.8440    2.8830    0.6200 na        1 G58     -0.198900
      4 O1          1.3810    2.6540   -0.4500 o         1 G58     -0.655800
      5 S1          2.4070    1.7480   -0.7870 sy        1 G58      1.467800
      6 CL1         2.3390   -3.1370    1.3020 cl        1 G58     -0.087400
      7 C2          5.0970    2.5740    1.7820 cc        1 G58      0.391400
      8 N2          3.8700    2.1350    1.4680 nd        1 G58     -0.589000
      9 O2          2.7550    1.7100   -2.1550 o         1 G58     -0.655800
     10 S2         -7.9110    0.9290    0.5870 sy        1 G58      1.397300
     11 C3          3.7910    2.1540    0.0650 cd        1 G58     -0.015800
     12 N3          2.0230    0.2510   -0.2520 n3        1 G58     -0.788500
     13 O3         -7.3620    2.2100    0.7390 o         1 G58     -0.657800
     14 C4          5.0210    2.6180   -0.4600 cc        1 G58     -0.087600
     15 O4         -9.1000    0.8180   -0.1500 o         1 G58     -0.657800
     16 C5          1.1580    0.1110    0.8950 c3        1 G58      0.259100
     17 C6         -0.2910   -0.1340    0.5630 ca        1 G58     -0.109300
     18 C7         -0.8180   -1.4280    0.5910 ca        1 G58     -0.115000
     19 C8         -2.1670   -1.6450    0.3210 ca        1 G58     -0.122000
     20 C9         -3.0110   -0.5670    0.0170 cp        1 G58     -0.045000
     21 C10        -2.4780    0.7290   -0.0150 ca        1 G58     -0.122000
     22 C11        -1.1280    0.9430    0.2520 ca        1 G58     -0.115000
     23 C12        -4.4270   -0.7950   -0.2640 cp        1 G58     -0.054000
     24 C13        -4.8320   -1.8880   -1.0430 ca        1 G58     -0.058000
     25 C14        -6.1840   -2.0960   -1.3120 ca        1 G58     -0.155000
     26 C15        -7.1400   -1.2240   -0.8010 ca        1 G58     -0.021000
     27 C16        -6.7600   -0.1300   -0.0120 ca        1 G58     -0.386500
     28 C17        -5.3990    0.0770    0.2400 ca        1 G58     -0.010000
     29 C18        -8.1550    0.2550    2.1220 c3        1 G58     -0.357300
     30 C19         2.4090   -0.9520   -0.9390 c3        1 G58      0.268100
     31 C20         3.6920   -1.6060   -0.4850 ca        1 G58     -0.129300
     32 C21         4.9060   -1.2770   -1.1360 ca        1 G58      0.140900
     33 C22         6.1220   -1.8810   -0.7660 ca        1 G58     -0.171000
     34 C23         6.1360   -2.8270    0.2520 ca        1 G58     -0.094000
     35 C24         4.9520   -3.1880    0.8890 ca        1 G58     -0.144000
     36 C25         3.7440   -2.5880    0.5130 ca        1 G58      0.056400
     37 H1          7.1590    4.5010    0.8440 h1        1 G58      0.061700
     38 H1A         7.8110    2.8630    1.3290 h1        1 G58      0.061700
     39 H1B         7.6030    3.2790   -0.4420 h1        1 G58      0.061700
     40 H2          5.5060    2.6920    2.7900 h5        1 G58      0.070100
     41 H4          5.3240    2.7510   -1.5020 h4        1 G58      0.205000
     42 H5          1.5330   -0.7280    1.5480 h1        1 G58      0.072200
     43 H5A         1.2230    1.0660    1.5010 h1        1 G58      0.072200
     44 H7         -0.1680   -2.2820    0.8320 ha        1 G58      0.154000
     45 H8         -2.5740   -2.6670    0.3530 ha        1 G58      0.137500
     46 H10        -3.1270    1.5840   -0.2630 ha        1 G58      0.137500
     47 H11        -0.7110    1.9660    0.2130 ha        1 G58      0.154000
     48 H13        -4.0760   -2.5770   -1.4520 ha        1 G58      0.142000
     49 H14        -6.4950   -2.9490   -1.9350 ha        1 G58      0.143000
     50 H15        -8.2100   -1.3790   -1.0280 ha        1 G58      0.157000
     51 H17        -5.0890    0.9520    0.8400 ha        1 G58      0.158000
     52 H18        -7.2170    0.1870    2.7240 h1        1 G58      0.113033
     53 H18A       -8.8690    0.8720    2.7230 h1        1 G58      0.113033
     54 H18B       -8.5850   -0.7750    2.0830 h1        1 G58      0.113033
     55 H19         1.5730   -1.7070   -0.8470 h1        1 G58      0.080200
     56 H19A        2.5240   -0.7030   -2.0390 h1        1 G58      0.080200
     57 H22         7.0460   -1.6010   -1.2920 ha        1 G58      0.151000
     58 H23         7.0850   -3.2990    0.5500 ha        1 G58      0.144000
     59 H24         4.9650   -3.9490    1.6840 ha        1 G58      0.153000
@<TRIPOS>BOND
     1    1    3 1   
     2    1   37 1   
     3    1   38 1   
     4    1   39 1   
     5    2   32 1   
     6    3    7 1   
     7    3   14 1   
     8    4    5 2   
     9    5    9 2   
    10    5   11 1   
    11    5   12 1   
    12    6   36 1   
    13    7    8 2   
    14    7   40 1   
    15    8   11 1   
    16   10   13 2   
    17   10   15 2   
    18   10   27 1   
    19   10   29 1   
    20   11   14 2   
    21   12   16 1   
    22   12   30 1   
    23   14   41 1   
    24   16   17 1   
    25   16   42 1   
    26   16   43 1   
    27   17   18 ar  
    28   17   22 ar  
    29   18   19 ar  
    30   18   44 1   
    31   19   20 ar  
    32   19   45 1   
    33   20   21 ar  
    34   20   23 1   
    35   21   22 ar  
    36   21   46 1   
    37   22   47 1   
    38   23   24 ar  
    39   23   28 ar  
    40   24   25 ar  
    41   24   48 1   
    42   25   26 ar  
    43   25   49 1   
    44   26   27 ar  
    45   26   50 1   
    46   27   28 ar  
    47   28   51 1   
    48   29   52 1   
    49   29   53 1   
    50   29   54 1   
    51   30   31 1   
    52   30   55 1   
    53   30   56 1   
    54   31   32 ar  
    55   31   36 ar  
    56   32   33 ar  
    57   33   34 ar  
    58   33   57 1   
    59   34   35 ar  
    60   34   58 1   
    61   35   36 ar  
    62   35   59 1   
@<TRIPOS>SUBSTRUCTURE
     1 G58         1 TEMP              0 ****  ****    0 ROOT
