@<TRIPOS>MOLECULE
G58
   60    63     1     0     0
SMALL
bcc


@<TRIPOS>ATOM
      1 C1          0.2120    0.3490   -0.5450 c3        1 G58     -0.005400
      2 F1          4.9250    2.5190   -2.3340 f         1 G58     -0.120900
      3 N1          1.5440    0.0190   -0.1340 na        1 G58     -0.168900
      4 O1          5.6030   -2.2000    0.0840 o         1 G58     -0.577800
      5 S1          5.2090   -1.0020   -0.4730 sy        1 G58      1.443800
      6 CL1         6.4340    2.7860    2.5270 cl        1 G58     -0.074400
      7 C2          1.9670   -0.1990    1.2080 cc        1 G58      0.440400
      8 N2          3.2580   -0.5230    1.2620 nd        1 G58     -0.591000
      9 O2          5.5070   -0.7270   -1.7940 o         1 G58     -0.577800
     10 S2         12.5770   -3.0320   -5.7690 sy        1 G58      1.396300
     11 C3          3.7280   -0.5320   -0.0780 cd        1 G58     -0.177800
     12 N3          6.1990    0.2760    0.5390 n4        1 G58     -0.609300
     13 O3         11.2000   -3.0470   -6.0360 o         1 G58     -0.651300
     14 C4          2.6390   -0.1790   -0.9340 cc        1 G58     -0.011600
     15 O4         13.4250   -2.4500   -6.7170 o         1 G58     -0.651300
     16 C5          7.3980   -0.3410    1.1970 c3        1 G58      0.166100
     17 C6          8.5570   -0.6120    0.2960 ca        1 G58     -0.170300
     18 C7          9.6020    0.3160    0.1940 ca        1 G58     -0.103500
     19 C8         10.7090    0.0420   -0.6030 ca        1 G58     -0.116500
     20 C9         10.7960   -1.1680   -1.3090 cp        1 G58      0.015000
     21 C10         9.7610   -2.1070   -1.1790 ca        1 G58     -0.116500
     22 C11         8.6550   -1.8340   -0.3790 ca        1 G58     -0.103500
     23 C12        11.9430   -1.4430   -2.1710 cp        1 G58     -0.091000
     24 C13        13.2390   -1.0700   -1.7820 ca        1 G58     -0.051000
     25 C14        14.3200   -1.3140   -2.6250 ca        1 G58     -0.150000
     26 C15        14.1180   -1.9290   -3.8590 ca        1 G58     -0.004000
     27 C16        12.8360   -2.3220   -4.2610 ca        1 G58     -0.373500
     28 C17        11.7570   -2.0720   -3.4070 ca        1 G58     -0.005000
     29 C18        13.1000   -4.6040   -5.4420 c3        1 G58     -0.365300
     30 C19         6.5580    1.4900   -0.2460 c3        1 G58      0.155100
     31 C20         5.6310    2.6460   -0.0460 ca        1 G58     -0.190300
     32 C21         4.8860    3.1490   -1.1370 ca        1 G58      0.157900
     33 C22         4.0980    4.3080   -0.9990 ca        1 G58     -0.159000
     34 C23         4.0460    4.9620    0.2270 ca        1 G58     -0.067000
     35 C24         4.7660    4.4760    1.3190 ca        1 G58     -0.126000
     36 C25         5.5530    3.3310    1.1780 ca        1 G58      0.044400
     37 H1          0.1950    0.5720   -1.6450 h1        1 G58      0.085700
     38 H1A        -0.4740   -0.5170   -0.3320 h1        1 G58      0.085700
     39 H1B        -0.1430    1.2500    0.0240 h1        1 G58      0.085700
     40 H2          1.2800   -0.1070    2.0620 h5        1 G58      0.101100
     41 H4          2.6240   -0.0780   -2.0270 h4        1 G58      0.224000
     42 H5          7.7300    0.3530    2.0250 hx        1 G58      0.107200
     43 H5A         7.0480   -1.3090    1.6690 hx        1 G58      0.107200
     44 H7          9.5650    1.2620    0.7570 ha        1 G58      0.147500
     45 H8         11.5200    0.7830   -0.6860 ha        1 G58      0.155000
     46 H10         9.8260   -3.0720   -1.7070 ha        1 G58      0.155000
     47 H11         7.8640   -2.5960   -0.2680 ha        1 G58      0.147500
     48 H13        13.4010   -0.5870   -0.8050 ha        1 G58      0.142000
     49 H14        15.3350   -1.0160   -2.3190 ha        1 G58      0.153000
     50 H15        14.9740   -2.0970   -4.5370 ha        1 G58      0.159000
     51 H17        10.7390   -2.3570   -3.7330 ha        1 G58      0.163000
     52 H18        13.1270   -5.2230   -6.3760 h1        1 G58      0.119033
     53 H18A       14.1320   -4.6490   -5.0150 h1        1 G58      0.119033
     54 H18B       12.4360   -5.1510   -4.7290 h1        1 G58      0.119033
     55 H19         7.6010    1.8260    0.0420 hx        1 G58      0.125700
     56 H19A        6.5980    1.2010   -1.3410 hx        1 G58      0.125700
     57 H22         3.5440    4.6910   -1.8710 ha        1 G58      0.172000
     58 H23         3.4380    5.8750    0.3360 ha        1 G58      0.167000
     59 H24         4.7230    5.0030    2.2870 ha        1 G58      0.174000
     60 H31         5.6040    0.5840    1.3150 hn        1 G58      0.452800
@<TRIPOS>BOND
     1    1    3 1   
     2    1   37 1   
     3    1   38 1   
     4    1   39 1   
     5    2   32 1   
     6    3    7 1   
     7    3   14 1   
     8    4    5 2   
     9    5    9 2   
    10    5   11 1   
    11    5   12 1   
    12    6   36 1   
    13    7    8 2   
    14    7   40 1   
    15    8   11 1   
    16   10   13 2   
    17   10   15 2   
    18   10   27 1   
    19   10   29 1   
    20   11   14 2   
    21   12   16 1   
    22   12   30 1   
    23   12   60 1   
    24   14   41 1   
    25   16   17 1   
    26   16   42 1   
    27   16   43 1   
    28   17   18 ar  
    29   17   22 ar  
    30   18   19 ar  
    31   18   44 1   
    32   19   20 ar  
    33   19   45 1   
    34   20   21 ar  
    35   20   23 1   
    36   21   22 ar  
    37   21   46 1   
    38   22   47 1   
    39   23   24 ar  
    40   23   28 ar  
    41   24   25 ar  
    42   24   48 1   
    43   25   26 ar  
    44   25   49 1   
    45   26   27 ar  
    46   26   50 1   
    47   27   28 ar  
    48   28   51 1   
    49   29   52 1   
    50   29   53 1   
    51   29   54 1   
    52   30   31 1   
    53   30   55 1   
    54   30   56 1   
    55   31   32 ar  
    56   31   36 ar  
    57   32   33 ar  
    58   33   34 ar  
    59   33   57 1   
    60   34   35 ar  
    61   34   58 1   
    62   35   36 ar  
    63   35   59 1   
@<TRIPOS>SUBSTRUCTURE
     1 G58         1 TEMP              0 ****  ****    0 ROOT
