@<TRIPOS>MOLECULE
G5A
   46    49     1     0     0
SMALL
bcc


@<TRIPOS>ATOM
      1 C        -180.8950    0.3460  899.6300 c2        1 G5A      0.315000
      2 N        -181.9920    0.9830  897.4190 n4        1 G5A      0.048000
      3 O        -181.5390    0.4160  899.6450 oh        1 G5A     -0.277000
      4 S          64.0010 -430.1340 -316.4040 s6        1 G5A      2.805000
      5 N1         65.0810 -435.8060 -314.9490 n2        1 G5A     -0.196000
      6 C2         66.0260 -434.8720 -315.0640 c2        1 G5A      0.068000
      7 N3         66.2750 -433.9970 -316.1150 n2        1 G5A     -0.183000
      8 C4         65.4140 -434.1670 -317.1200 c2        1 G5A      0.087000
      9 C5         64.3370 -435.1390 -317.1570 c2        1 G5A     -0.278000
     10 C6         64.1780 -435.9790 -316.0070 c2        1 G5A      0.279000
     11 N6         63.2020 -436.9120 -315.9380 nh        1 G5A     -0.299000
     12 N7         63.6190 -435.0410 -318.3700 n2        1 G5A      0.033000
     13 C8         64.1800 -434.0840 -319.0730 c2        1 G5A     -0.080000
     14 N9         65.3310 -433.4500 -318.3890 na        1 G5A     -0.069000
     15 CA       -181.1570    0.3490  898.4760 DU        1 G5A     -0.476000
     16 C1'        66.1040 -432.4720 -318.7820 c2        1 G5A      0.191000
     17 O1S        63.3280 -431.2970 -316.2210 o         1 G5A     -0.896500
     18 C2'        65.9660 -431.7380 -320.0980 c3        1 G5A     -0.026000
     19 O2'        67.1350 -430.9770 -320.3090 oh        1 G5A     -0.298000
     20 O2S        64.6620 -429.4110 -315.4760 o         1 G5A     -0.896500
     21 C3'        64.7920 -430.7210 -320.0180 c3        1 G5A      0.037000
     22 O3'        64.7030 -430.0270 -321.2340 oh        1 G5A     -0.285000
     23 N3S      -179.9880    0.9960  900.5700 n3        1 G5A     -0.376000
     24 C4'        64.9850 -429.7580 -318.8330 c3        1 G5A     -0.009000
     25 O4'        65.0920 -430.5220 -317.6530 os        1 G5A     -0.740000
     26 C5'        63.7730 -428.8150 -318.6580 c3        1 G5A     -0.002000
     27 O5'        63.1640 -429.1400 -317.4280 os        1 G5A     -0.681000
     28 HN       -182.5250    0.2740  896.9090 hn        1 G5A      0.249667
     29 HNA      -182.6410    0.6590  897.8660 hn        1 G5A      0.249667
     30 HN6        63.0960 -437.4850 -315.1300 hn        1 G5A      0.270000
     31 HN6A       62.5580 -437.0080 -316.6890 hn        1 G5A      0.270000
     32 HA       -180.1890    0.0020  898.0140 hx        1 G5A      0.207000
     33 HAA      -181.7130    0.4570  898.8900 DU        1 G5A      0.274000
     34 H1'        66.9290 -432.1220 -318.1070 h4        1 G5A      0.238000
     35 H2'        65.7760 -432.4510 -320.9510 h1        1 G5A      0.144000
     36 HO2'       67.7570 -431.5070 -320.8280 ho        1 G5A      0.241000
     37 HN3S     -179.8220    0.6150  901.3340 hn        1 G5A      0.267500
     38 H4'        65.9430 -429.1800 -318.9630 h1        1 G5A      0.150000
     39 H5'        63.0040 -428.9640 -319.4620 h1        1 G5A      0.141500
     40 H5'A       64.0920 -427.7400 -318.6160 h1        1 G5A      0.141500
     41 H16        63.8210 -431.2840 -319.9260 h1        1 G5A      0.138000
     42 H17        65.5190 -429.5150 -321.3520 ho        1 G5A      0.235000
     43 H2         66.7230 -434.7630 -314.1990 h5        1 G5A      0.231000
     44 HN3      -181.4000    0.5040  896.7640 hn        1 G5A      0.249667
     45 H3S2     -179.5020    0.1340  900.5410 hn        1 G5A      0.267500
     46 H8         63.8830 -433.7270 -320.0700 h5        1 G5A      0.237000
@<TRIPOS>BOND
     1    1   15 1   
     2    1   23 1   
     3    1   33 1   
     4    2   15 1   
     5    2   28 1   
     6    2   29 1   
     7    2   44 1   
     8    3   15 1   
     9    3   33 1   
    10    4   17 1   
    11    4   20 1   
    12    4   25 1   
    13    4   27 1   
    14    5    6 1   
    15    5   10 1   
    16    6    7 1   
    17    6   43 1   
    18    7    8 1   
    19    8    9 1   
    20    8   14 1   
    21    9   10 1   
    22    9   12 1   
    23   10   11 1   
    24   11   30 1   
    25   11   31 1   
    26   12   13 1   
    27   13   14 1   
    28   13   46 1   
    29   14   16 1   
    30   15   32 1   
    31   15   33 1   
    32   16   18 1   
    33   16   34 1   
    34   18   19 1   
    35   18   21 1   
    36   18   35 1   
    37   19   36 1   
    38   21   22 1   
    39   21   24 1   
    40   21   41 1   
    41   22   42 1   
    42   23   37 1   
    43   23   45 1   
    44   24   25 1   
    45   24   26 1   
    46   24   38 1   
    47   26   27 1   
    48   26   39 1   
    49   26   40 1   
@<TRIPOS>SUBSTRUCTURE
     1 G5A         1 TEMP              0 ****  ****    0 ROOT
