@<TRIPOS>MOLECULE
G5A
   44    36     1     0     0
SMALL
bcc


@<TRIPOS>ATOM
      1 C          -1.0120    4.5980   -4.1300 c1        1 G5A      0.333000
      2 N          -2.0740    6.7120   -4.7100 n3        1 G5A     -0.369000
      3 O          -1.6590    3.7190   -4.7120 o         1 G5A     -0.327000
      4 S          -0.9450    3.1570   -1.9020 ss        1 G5A      2.820000
      5 N1          2.3970   -5.3590    4.2140 n1        1 G5A     -0.269000
      6 C2          2.6890   -5.2820    2.8830 c1        1 G5A      0.026000
      7 N3          2.1080   -4.3260    2.1120 n2        1 G5A     -0.205000
      8 C4          1.2340   -3.4440    2.6670 c1        1 G5A      0.084000
      9 C5          0.9450   -3.5200    3.9780 c1        1 G5A     -0.247000
     10 C6          1.5380   -4.4940    4.7600 c1        1 G5A      0.240000
     11 N6          1.2100   -4.7910    6.1320 n3        1 G5A     -0.356000
     12 N7          0.1130   -2.4840    4.2860 n1        1 G5A     -0.154500
     13 C8         -0.1090   -1.7700    3.1540 c1        1 G5A     -0.058000
     14 N9          0.5770   -2.3530    2.1520 n1        1 G5A     -0.154500
     15 CA         -0.8280    5.9670   -4.7840 c3        1 G5A     -0.087000
     16 C1'         0.6980   -1.8430    0.8680 c2        1 G5A      0.116000
     17 O1S        -1.9330    3.7700   -0.9280 o         1 G5A     -0.937500
     18 C2'        -0.3990   -2.0780    0.1840 c3        1 G5A      0.016000
     19 O2'        -0.2530   -3.3180   -0.6080 oh        1 G5A     -0.294000
     20 O2S        -1.8430    2.1640   -2.6540 o         1 G5A     -0.937500
     21 C3'        -0.5520   -0.8590   -0.7550 c3        1 G5A     -0.027000
     22 O3'        -0.2640   -1.2010   -1.9960 oh        1 G5A     -0.327000
     23 N3S        -0.3320    4.2930   -2.9200 n1        1 G5A     -0.862000
     24 C4'         0.4810    0.2200   -0.2280 c3        1 G5A     -0.052000
     25 O4'         0.8640   -0.2140    0.9200 os        1 G5A     -0.258000
     26 C5'        -0.2000    1.5790   -0.0800 c3        1 G5A      0.013000
     27 O5'         0.1940    2.4290   -1.1620 o         1 G5A     -0.717000
     28 HN         -1.9340    7.5010   -4.2550 hn        1 G5A      0.169500
     29 HNA        -2.3730    6.8990   -5.5680 hn        1 G5A      0.169500
     30 H2          3.3180   -5.9160    2.4840 DU        1 G5A      0.195500
     31 HN6         1.5000   -4.2240    6.8140 hn        1 G5A      0.242500
     32 HN6A        0.7570   -5.5690    6.3390 hn        1 G5A      0.242500
     33 H8         -0.6390   -0.9610    3.0850 DU        1 G5A      0.195500
     34 HA         -0.5750    5.8490   -5.7210 h1        1 G5A      0.113500
     35 HAA        -0.1170    6.4660   -4.3110 h1        1 G5A      0.113500
     36 H1'         1.4770   -2.2490    0.4120 h4        1 G5A      0.175000
     37 H2'        -1.1780   -2.1470    0.7930 h1        1 G5A      0.140000
     38 HO2'       -1.0420   -3.6850   -0.7250 ho        1 G5A      0.228000
     39 HN3S        0.4950    4.6660   -2.7500 hn        1 G5A      0.285000
     40 H4'         1.2350    0.2850   -0.8320 h1        1 G5A      0.143000
     41 H5'         0.0720    1.9960    0.7860 h1        1 G5A      0.115000
     42 H5'A       -1.1650    1.4600   -0.0950 h1        1 G5A      0.115000
     43 H16        -1.4850   -0.4980   -0.7020 h1        1 G5A      0.097000
     44 H17        -0.9920   -1.1450   -2.4930 ho        1 G5A      0.249000
@<TRIPOS>BOND
     1    1    3 1   
     2    1   15 1   
     3    2   15 1   
     4    2   28 1   
     5    2   29 1   
     6    4   17 1   
     7    4   20 1   
     8    5    6 1   
     9    6    7 1   
    10    7    8 1   
    11    9   10 1   
    12   10   11 1   
    13   11   31 1   
    14   11   32 1   
    15   12   13 1   
    16   13   14 1   
    17   15   34 1   
    18   15   35 1   
    19   16   18 1   
    20   16   25 1   
    21   16   36 1   
    22   18   19 1   
    23   18   21 1   
    24   18   37 1   
    25   19   38 1   
    26   21   22 1   
    27   21   24 1   
    28   21   43 1   
    29   22   44 1   
    30   23   39 1   
    31   24   25 1   
    32   24   26 1   
    33   24   40 1   
    34   26   27 1   
    35   26   41 1   
    36   26   42 1   
@<TRIPOS>SUBSTRUCTURE
     1 G5A         1 TEMP              0 ****  ****    0 ROOT
