@<TRIPOS>MOLECULE
G5A
   46    47     1     0     0
SMALL
bcc


@<TRIPOS>ATOM
      1 C          79.6820  782.2800    0.2660 cu        1 G5A      0.315000
      2 N          81.9530  782.2020    0.2950 n8        1 G5A      0.048000
      3 O          80.1780  781.5390    0.3920 os        1 G5A     -0.277000
      4 S         -27.0240 -279.5110 -424.3640 s6        1 G5A      2.805000
      5 N1        -31.8120 -282.8260 -425.5930 n2        1 G5A     -0.196000
      6 C2        -30.7800 -283.2450 -424.8600 c2        1 G5A      0.068000
      7 N3        -29.4220 -283.2200 -425.1570 n2        1 G5A     -0.183000
      8 C4        -29.1840 -282.6930 -426.3600 c2        1 G5A      0.087000
      9 C5        -30.1900 -282.1990 -427.2810 c2        1 G5A     -0.278000
     10 C6        -31.5560 -282.2710 -426.8550 c2        1 G5A      0.279000
     11 N6        -32.5690 -281.8310 -427.6360 nv        1 G5A     -0.299000
     12 N7        -29.5870 -281.7050 -428.4600 n2        1 G5A      0.033000
     13 C8        -28.2900 -281.8640 -428.3240 c2        1 G5A     -0.080000
     14 N9        -27.9070 -282.4820 -427.0340 na        1 G5A     -0.069000
     15 CA         80.5440  782.6340    0.5020 DU        1 G5A     -0.476000
     16 C1'       -26.7220 -282.7700 -426.5620 c2        1 G5A      0.191000
     17 O1S       -28.1930 -279.4260 -425.0460 o         1 G5A     -0.896500
     18 C2'       -25.4180 -282.5080 -427.2850 c3        1 G5A     -0.026000
     19 O2'       -24.3910 -283.2160 -426.6250 oh        1 G5A     -0.298000
     20 O2S       -26.8570 -279.6270 -423.0310 o         1 G5A     -0.896500
     21 C3'       -25.0470 -281.0010 -427.1780 c3        1 G5A      0.037000
     22 O3'       -23.8220 -280.7830 -427.8250 oh        1 G5A     -0.285000
     23 N3S        78.4280  782.7840    0.2070 n8        1 G5A     -0.376000
     24 C4'       -24.9950 -280.5560 -425.7060 c3        1 G5A     -0.009000
     25 O4'       -26.2450 -280.8280 -425.1150 os        1 G5A     -0.740000
     26 C5'       -24.7490 -279.0350 -425.5760 c3        1 G5A     -0.002000
     27 O5'       -25.9080 -278.4710 -425.0030 os        1 G5A     -0.681000
     28 HN         81.9570  781.3420    0.7130 hn        1 G5A      0.251000
     29 HNA        82.4750  782.9240    0.7890 hn        1 G5A      0.251000
     30 HN6       -32.3680 -281.4230 -428.5190 hn        1 G5A      0.270000
     31 HN6A      -33.5140 -281.8800 -427.3250 hn        1 G5A      0.270000
     32 HA         80.5290  783.7440    0.6990 ha        1 G5A      0.240500
     33 HAA        80.1260  782.0910    0.3990 ha        1 G5A      0.240500
     34 H1'       -26.6360 -283.2350 -425.5450 h4        1 G5A      0.238000
     35 H2'       -25.4850 -282.7930 -428.3740 h1        1 G5A      0.144000
     36 HO2'      -24.2930 -284.0800 -427.0500 ho        1 G5A      0.241000
     37 HN3S       77.8500  782.5480    0.4300 hn        1 G5A      0.267500
     38 H4'       -24.2120 -281.1500 -425.1550 h1        1 G5A      0.150000
     39 H5'       -24.5960 -278.5460 -426.5740 h1        1 G5A      0.141500
     40 H5'A      -23.8830 -278.8170 -424.8960 h1        1 G5A      0.141500
     41 H16       -25.8000 -280.3930 -427.7560 h1        1 G5A      0.138000
     42 H17       -23.1370 -281.2820 -427.3520 ho        1 G5A      0.235000
     43 H2        -31.0250 -283.6780 -423.8610 h5        1 G5A      0.231000
     44 HN3        82.4070  782.0160    0.1930 DU        1 G5A      0.247000
     45 H3S2       78.0550  783.3580    0.9220 hn        1 G5A      0.267500
     46 H8        -27.5050 -281.5890 -429.0430 h5        1 G5A      0.237000
@<TRIPOS>BOND
     1    1    3 1   
     2    1   15 1   
     3    1   23 1   
     4    2   15 1   
     5    2   28 1   
     6    2   29 1   
     7    3   15 1   
     8    4   17 1   
     9    4   20 1   
    10    4   25 1   
    11    4   27 1   
    12    5    6 1   
    13    5   10 1   
    14    6    7 1   
    15    6   43 1   
    16    7    8 1   
    17    8    9 1   
    18    8   14 1   
    19    9   10 1   
    20    9   12 1   
    21   10   11 1   
    22   11   30 1   
    23   11   31 1   
    24   12   13 1   
    25   13   14 1   
    26   13   46 1   
    27   14   16 1   
    28   15   32 1   
    29   15   33 1   
    30   16   18 1   
    31   16   34 1   
    32   18   19 1   
    33   18   21 1   
    34   18   35 1   
    35   19   36 1   
    36   21   22 1   
    37   21   24 1   
    38   21   41 1   
    39   22   42 1   
    40   23   37 1   
    41   23   45 1   
    42   24   25 1   
    43   24   26 1   
    44   24   38 1   
    45   26   27 1   
    46   26   39 1   
    47   26   40 1   
@<TRIPOS>SUBSTRUCTURE
     1 G5A         1 TEMP              0 ****  ****    0 ROOT
