@<TRIPOS>MOLECULE
G5A
   44    46     1     0     0
SMALL
bcc


@<TRIPOS>ATOM
      1 C          -2.5490    2.3210    0.2200 c         1 G5A      0.635100
      2 N          -1.3060    4.4970    0.0780 n3        1 G5A     -0.894800
      3 O          -2.3210    2.0600   -0.9710 o         1 G5A     -0.560100
      4 S          -3.8400   -0.0630    0.5560 s6        1 G5A      1.700100
      5 N1          4.8450    1.6130    0.8900 nb        1 G5A     -0.790000
      6 C2          4.8740    0.2730    0.6690 ca        1 G5A      0.688900
      7 N3          3.9050   -0.5590    0.2170 nb        1 G5A     -0.756000
      8 C4          2.7350    0.0980   -0.0500 ca        1 G5A      0.448800
      9 C5          2.5460    1.5310    0.1380 ca        1 G5A     -0.225200
     10 C6          3.6670    2.2780    0.6360 ca        1 G5A      0.756200
     11 N6          3.5450    3.6210    0.8910 nh        1 G5A     -0.950500
     12 N7          1.2450    1.8950   -0.2390 nc        1 G5A     -0.574100
     13 C8          0.6600    0.7560   -0.6390 cd        1 G5A      0.425700
     14 N9          1.5070   -0.3750   -0.5340 na        1 G5A     -0.293000
     15 CA         -2.1460    3.6530    0.8690 c3        1 G5A      0.107800
     16 C1'         1.2220   -1.7350   -0.9370 c3        1 G5A      0.217800
     17 O1S        -4.1400   -0.7800    1.7110 o         1 G5A     -0.634300
     18 C2'         1.5300   -2.8020    0.1680 c3        1 G5A      0.081100
     19 O2'         2.3130   -3.8300   -0.3970 oh        1 G5A     -0.589800
     20 O2S        -4.7520    0.0370   -0.4710 o         1 G5A     -0.634300
     21 C3'         0.1530   -3.3920    0.5540 c3        1 G5A      0.128100
     22 O3'         0.0300   -4.7670    0.2930 oh        1 G5A     -0.570800
     23 N3S        -3.2000    1.3710    1.0180 n         1 G5A     -0.704300
     24 C4'        -0.8730   -2.5660   -0.2550 c3        1 G5A      0.093100
     25 O4'        -0.1590   -1.8670   -1.2810 os        1 G5A     -0.382600
     26 C5'        -1.6120   -1.5860    0.6590 c3        1 G5A      0.160400
     27 O5'        -2.5590   -0.9010   -0.1230 os        1 G5A     -0.548500
     28 HN         -0.4100    4.0770   -0.0840 hn        1 G5A      0.374800
     29 HNA        -1.7310    4.7120   -0.8030 hn        1 G5A      0.374800
     30 HN6         2.7420    4.0890    0.5510 hn        1 G5A      0.444800
     31 HN6A        4.3470    4.1540    1.1250 hn        1 G5A      0.444800
     32 H8         -0.3680    0.6530   -1.0280 h5        1 G5A      0.109800
     33 HA         -3.1020    4.2070    1.0990 h1        1 G5A      0.079200
     34 HAA        -1.6170    3.4320    1.8400 h1        1 G5A      0.079200
     35 H1'         1.7950   -1.9610   -1.8870 h2        1 G5A      0.107700
     36 H2'         2.0340   -2.3610    1.0660 h1        1 G5A      0.084700
     37 HO2'        3.2290   -3.5220   -0.3860 ho        1 G5A      0.433000
     38 HN3S       -3.2530    1.6280    1.9810 hn        1 G5A      0.341500
     39 H4'        -1.6070   -3.2150   -0.8070 h1        1 G5A      0.115700
     40 H5'        -2.1290   -2.1520    1.4820 h1        1 G5A      0.051200
     41 H5'A       -0.8930   -0.8370    1.0900 h1        1 G5A      0.051200
     42 H16        -0.0230   -3.2980    1.6600 h1        1 G5A      0.092700
     43 H17         0.4070   -4.9450   -0.5790 ho        1 G5A      0.427000
     44 H2          5.8490   -0.2110    0.8950 h5        1 G5A      0.053100
@<TRIPOS>BOND
     1    1    3 2   
     2    1   15 1   
     3    1   23 1   
     4    2   15 1   
     5    2   28 1   
     6    2   29 1   
     7    4   17 2   
     8    4   20 2   
     9    4   23 1   
    10    4   27 1   
    11    5    6 ar  
    12    5   10 ar  
    13    6    7 ar  
    14    6   44 1   
    15    7    8 ar  
    16    8    9 ar  
    17    8   14 1   
    18    9   10 ar  
    19    9   12 1   
    20   10   11 1   
    21   11   30 1   
    22   11   31 1   
    23   12   13 2   
    24   13   14 1   
    25   13   32 1   
    26   14   16 1   
    27   15   33 1   
    28   15   34 1   
    29   16   18 1   
    30   16   25 1   
    31   16   35 1   
    32   18   19 1   
    33   18   21 1   
    34   18   36 1   
    35   19   37 1   
    36   21   22 1   
    37   21   24 1   
    38   21   42 1   
    39   22   43 1   
    40   23   38 1   
    41   24   25 1   
    42   24   26 1   
    43   24   39 1   
    44   26   27 1   
    45   26   40 1   
    46   26   41 1   
@<TRIPOS>SUBSTRUCTURE
     1 G5A         1 TEMP              0 ****  ****    0 ROOT
