@<TRIPOS>MOLECULE
G5A
   44    46     1     0     0
SMALL
bcc


@<TRIPOS>ATOM
      1 C           0.1380   -0.8180    0.5560 c         1 G5A      0.635100
      2 N           0.6340   -1.2170    2.9850 n3        1 G5A     -0.894800
      3 O           1.3410   -0.8600    0.2560 o         1 G5A     -0.560100
      4 S          -0.5650   -0.4850   -2.0620 s6        1 G5A      1.700100
      5 N1          1.2070   -7.9970    2.2720 nb        1 G5A     -0.790000
      6 C2          1.3870   -8.4180    0.9930 ca        1 G5A      0.688900
      7 N3          1.5730   -7.7040   -0.1430 nb        1 G5A     -0.756000
      8 C4          1.5760   -6.3550    0.0830 ca        1 G5A      0.448800
      9 C5          1.3940   -5.7490    1.3970 ca        1 G5A     -0.225200
     10 C6          1.1960   -6.6410    2.5040 ca        1 G5A      0.756200
     11 N6          0.9610   -6.1420    3.7610 nh        1 G5A     -0.950500
     12 N7          1.4640   -4.3520    1.2930 nc        1 G5A     -0.574100
     13 C8          1.6800   -4.1040   -0.0070 cd        1 G5A      0.425700
     14 N9          1.7430   -5.2760   -0.7990 na        1 G5A     -0.293000
     15 CA         -0.3570   -0.8900    2.0080 c3        1 G5A      0.107800
     16 C1'         2.0260   -5.3750   -2.2140 c3        1 G5A      0.217800
     17 O1S        -1.7800   -0.6910   -2.7120 o         1 G5A     -0.634300
     18 C2'         0.9930   -6.2440   -3.0090 c3        1 G5A      0.081100
     19 O2'         1.6940   -7.1830   -3.7930 oh        1 G5A     -0.589800
     20 O2S         0.2210    0.6050   -2.3610 o         1 G5A     -0.634300
     21 C3'         0.2760   -5.2530   -3.9560 c3        1 G5A      0.128100
     22 O3'         0.4580   -5.5370   -5.3190 oh        1 G5A     -0.570800
     23 N3S        -0.8200   -0.7010   -0.4600 n         1 G5A     -0.704300
     24 C4'         0.8440   -3.8660   -3.5820 c3        1 G5A      0.093100
     25 O4'         2.0310   -4.0750   -2.8070 os        1 G5A     -0.382600
     26 C5'        -0.1870   -3.0580   -2.7920 c3        1 G5A      0.160400
     27 O5'         0.3700   -1.7950   -2.5240 os        1 G5A     -0.548500
     28 HN          0.9900   -2.1450    2.8520 hn        1 G5A      0.374800
     29 HNA         1.3970   -0.5680    2.9620 hn        1 G5A      0.374800
     30 HN6         1.1160   -5.1760    3.9160 hn        1 G5A      0.444800
     31 HN6A        0.9390   -6.7540    4.5400 hn        1 G5A      0.444800
     32 H8          1.8130   -3.1080   -0.4670 h5        1 G5A      0.109800
     33 HA         -1.1830   -1.6550    2.0680 h1        1 G5A      0.079200
     34 HAA        -0.7890    0.1230    2.2570 h1        1 G5A      0.079200
     35 H1'         3.0770   -5.7750   -2.3490 h2        1 G5A      0.107700
     36 H2'         0.2520   -6.7550   -2.3400 h1        1 G5A      0.084700
     37 HO2'        1.9090   -7.9270   -3.2150 ho        1 G5A      0.433000
     38 HN3S       -1.7600   -0.7730   -0.1320 hn        1 G5A      0.341500
     39 H4'         1.1880   -3.2870   -4.4820 h1        1 G5A      0.115700
     40 H5'        -0.4140   -3.5650   -1.8140 h1        1 G5A      0.051200
     41 H5'A       -1.1260   -2.9440   -3.4010 h1        1 G5A      0.051200
     42 H16        -0.8380   -5.2960   -3.8050 h1        1 G5A      0.092700
     43 H17         1.3890   -5.7570   -5.4620 ho        1 G5A      0.427000
     44 H2          1.3830   -9.5220    0.8650 h5        1 G5A      0.053100
@<TRIPOS>BOND
     1    1    3 2   
     2    1   15 1   
     3    1   23 1   
     4    2   15 1   
     5    2   28 1   
     6    2   29 1   
     7    4   17 2   
     8    4   20 2   
     9    4   23 1   
    10    4   27 1   
    11    5    6 ar  
    12    5   10 ar  
    13    6    7 ar  
    14    6   44 1   
    15    7    8 ar  
    16    8    9 ar  
    17    8   14 1   
    18    9   10 ar  
    19    9   12 1   
    20   10   11 1   
    21   11   30 1   
    22   11   31 1   
    23   12   13 2   
    24   13   14 1   
    25   13   32 1   
    26   14   16 1   
    27   15   33 1   
    28   15   34 1   
    29   16   18 1   
    30   16   25 1   
    31   16   35 1   
    32   18   19 1   
    33   18   21 1   
    34   18   36 1   
    35   19   37 1   
    36   21   22 1   
    37   21   24 1   
    38   21   42 1   
    39   22   43 1   
    40   23   38 1   
    41   24   25 1   
    42   24   26 1   
    43   24   39 1   
    44   26   27 1   
    45   26   40 1   
    46   26   41 1   
@<TRIPOS>SUBSTRUCTURE
     1 G5A         1 TEMP              0 ****  ****    0 ROOT
