@<TRIPOS>MOLECULE
G5K
   61    65     1     0     0
SMALL
bcc


@<TRIPOS>ATOM
      1 C1          0.7010   -2.2860   -0.1930 c2        1 G5K     -0.064000
      2 C2          1.7810   -1.6260   -0.6290 ce        1 G5K     -0.260200
      3 C3          2.6990   -0.9590    0.3040 c         1 G5K      0.660300
      4 O4          2.5670   -0.9810    1.5500 o         1 G5K     -0.655100
      5 N5          3.7850   -0.2100   -0.2650 n         1 G5K     -0.404800
      6 C6          4.8520   -1.0250   -0.8570 c3        1 G5K      0.038000
      7 C7          6.0490   -1.0280    0.1260 c3        1 G5K     -0.133400
      8 C8          5.6860   -0.0080    1.2300 c3        1 G5K      0.093500
      9 C9          4.4420    0.7280    0.6350 c3        1 G5K      0.022000
     10 N10         5.3240   -0.6910    2.5310 n4        1 G5K     -0.758700
     11 C11         5.6220    0.1670    3.7150 ca        1 G5K      0.759900
     12 N12         6.9300    0.1690    4.1550 nb        1 G5K     -0.653000
     13 C13         7.2030    0.9260    5.2350 ca        1 G5K      0.510600
     14 C14         8.6400    0.9870    5.7550 c3        1 G5K      0.109500
     15 N15         8.6630    0.9590    7.2020 n3        1 G5K     -0.764600
     16 C16         9.4470    2.0440    7.7860 c3        1 G5K      0.129800
     17 C17         9.4990    1.9690    9.3190 c3        1 G5K      0.125400
     18 O18         9.9230    0.6880    9.7590 os        1 G5K     -0.384600
     19 C19         9.0830   -0.3510    9.2770 c3        1 G5K      0.125400
     20 C20         9.0220   -0.3500    7.7430 c3        1 G5K      0.129800
     21 C21         6.1870    1.6900    5.8920 ca        1 G5K     -0.230600
     22 C22         4.8910    1.6030    5.3620 ca        1 G5K      0.515200
     23 N23         3.7720    2.3410    6.0060 n4        1 G5K     -0.648700
     24 C24         3.7740    3.7580    5.6570 cc        1 G5K      0.226100
     25 N25         4.8280    4.5470    5.9630 nd        1 G5K     -0.465100
     26 C26         4.5380    5.8330    5.5670 ca        1 G5K     -0.037900
     27 C27         5.3550    6.9910    5.7160 ca        1 G5K     -0.016000
     28 C28         4.8600    8.1900    5.2560 ca        1 G5K     -0.218300
     29 C29         3.5660    8.2450    4.6490 ca        1 G5K      0.482200
     30 N30         2.7690    7.1870    4.4890 nb        1 G5K     -0.617000
     31 C31         3.2370    5.9980    4.9410 ca        1 G5K      0.399600
     32 S32         2.4370    4.5160    4.8850 ss        1 G5K      0.145500
     33 N33         4.5770    0.8530    4.2590 nb        1 G5K     -0.670000
     34 H1          0.4490   -2.3740    0.8760 ha        1 G5K      0.148000
     35 H2          0.0040   -2.7760   -0.8910 ha        1 G5K      0.148000
     36 H3          2.0110   -1.5330   -1.7040 ha        1 G5K      0.170000
     37 H4          4.5020   -2.0680   -1.0810 h1        1 G5K      0.099700
     38 H5          5.1530   -0.5400   -1.8270 h1        1 G5K      0.099700
     39 H6          6.9770   -0.6780   -0.3970 hc        1 G5K      0.095700
     40 H7          6.2500   -2.0580    0.5090 hc        1 G5K      0.095700
     41 H8          6.5370    0.6990    1.4280 hx        1 G5K      0.124700
     42 H9          3.7400    1.1260    1.4140 h1        1 G5K      0.106700
     43 H10         4.8220    1.5890    0.0140 h1        1 G5K      0.106700
     44 H11         4.3020   -0.9220    2.5170 hn        1 G5K      0.495800
     45 H12         9.2350    0.1390    5.3000 h1        1 G5K      0.095700
     46 H13         9.0660    1.9540    5.3510 h1        1 G5K      0.095700
     47 H15         8.9660    3.0180    7.4900 h1        1 G5K      0.051200
     48 H16        10.5060    2.0400    7.3950 h1        1 G5K      0.051200
     49 H17        10.2790    2.6750    9.7100 h1        1 G5K      0.069200
     50 H18         8.4980    2.2130    9.7620 h1        1 G5K      0.069200
     51 H19         9.5680   -1.2960    9.6410 h1        1 G5K      0.069200
     52 H20         8.0560   -0.2480    9.7160 h1        1 G5K      0.069200
     53 H21        10.0230   -0.6940    7.3490 h1        1 G5K      0.051200
     54 H22         8.2420   -1.0890    7.4130 h1        1 G5K      0.051200
     55 H23         6.4440    2.3090    6.7710 ha        1 G5K      0.230000
     56 H24         3.8860    2.2420    7.0310 hn        1 G5K      0.490800
     57 H25         6.3460    6.9120    6.1940 ha        1 G5K      0.179000
     58 H26         5.4440    9.1210    5.3500 ha        1 G5K      0.188000
     59 H27         3.1630    9.2100    4.2770 h4        1 G5K      0.071100
     60 H102        5.8640   -1.5640    2.6220 hn        1 G5K      0.495800
     61 H232        2.8620    1.9380    5.7260 hn        1 G5K      0.490800
@<TRIPOS>BOND
     1    1    2 2   
     2    1   34 1   
     3    1   35 1   
     4    2    3 1   
     5    2   36 1   
     6    3    4 2   
     7    3    5 1   
     8    5    6 1   
     9    5    9 1   
    10    6    7 1   
    11    6   37 1   
    12    6   38 1   
    13    7    8 1   
    14    7   39 1   
    15    7   40 1   
    16    8    9 1   
    17    8   10 1   
    18    8   41 1   
    19    9   42 1   
    20    9   43 1   
    21   10   11 1   
    22   10   44 1   
    23   10   60 1   
    24   11   12 ar  
    25   11   33 ar  
    26   12   13 ar  
    27   13   14 1   
    28   13   21 ar  
    29   14   15 1   
    30   14   45 1   
    31   14   46 1   
    32   15   16 1   
    33   15   20 1   
    34   16   17 1   
    35   16   47 1   
    36   16   48 1   
    37   17   18 1   
    38   17   49 1   
    39   17   50 1   
    40   18   19 1   
    41   19   20 1   
    42   19   51 1   
    43   19   52 1   
    44   20   53 1   
    45   20   54 1   
    46   21   22 ar  
    47   21   55 1   
    48   22   23 1   
    49   22   33 ar  
    50   23   24 1   
    51   23   56 1   
    52   23   61 1   
    53   24   25 2   
    54   24   32 1   
    55   25   26 1   
    56   26   27 ar  
    57   26   31 ar  
    58   27   28 ar  
    59   27   57 1   
    60   28   29 ar  
    61   28   58 1   
    62   29   30 ar  
    63   29   59 1   
    64   30   31 ar  
    65   31   32 1   
@<TRIPOS>SUBSTRUCTURE
     1 G5K         1 TEMP              0 ****  ****    0 ROOT
