@<TRIPOS>MOLECULE
G5K
   59    63     1     0     0
SMALL
bcc


@<TRIPOS>ATOM
      1 C1          0.7570   -2.5570    0.3440 c2        1 G5K     -0.136000
      2 C2          2.0340   -2.1860    0.4430 ce        1 G5K     -0.233200
      3 C3          2.4790   -1.2660    1.5220 c         1 G5K      0.656300
      4 O4          1.7860   -1.0560    2.5390 o         1 G5K     -0.600100
      5 N5          3.7350   -0.6790    1.4140 n         1 G5K     -0.468800
      6 C6          4.4510   -0.5690    0.1600 c3        1 G5K      0.083000
      7 C7          5.4310    0.6070    0.2760 c3        1 G5K     -0.099400
      8 C8          5.4020    1.0580    1.7590 c3        1 G5K      0.200500
      9 C9          4.1520    0.3370    2.3610 c3        1 G5K      0.054000
     10 N10         6.6480    0.7550    2.4280 nu        1 G5K     -0.814900
     11 C11         6.9650    1.3540    3.6630 ca        1 G5K      0.909900
     12 N12         7.9090    0.6950    4.4470 nb        1 G5K     -0.751000
     13 C13         8.2950    1.3240    5.5730 ca        1 G5K      0.511600
     14 C14         9.3380    0.6540    6.4570 c3        1 G5K      0.119500
     15 N15         8.7280   -0.2800    7.3890 n3        1 G5K     -0.725600
     16 C16         8.1190    0.3790    8.5370 c3        1 G5K      0.134800
     17 C17         7.5100   -0.6210    9.5260 c3        1 G5K      0.126900
     18 O18         8.4570   -1.6100    9.9160 os        1 G5K     -0.415600
     19 C19         8.9920   -2.3070    8.7970 c3        1 G5K      0.126900
     20 C20         9.6330   -1.3510    7.7840 c3        1 G5K      0.134800
     21 C21         7.7890    2.5740    5.9720 ca        1 G5K     -0.461600
     22 C22         6.8180    3.1790    5.1200 ca        1 G5K      0.720200
     23 N23         6.2980    4.4260    5.4740 nu        1 G5K     -0.790900
     24 C24         5.3530    5.1330    4.7400 cc        1 G5K      0.564100
     25 N25         4.8660    6.3150    5.1710 nd        1 G5K     -0.594100
     26 C26         3.9600    6.8010    4.2360 ca        1 G5K      0.004100
     27 C27         3.2310    8.0090    4.3140 ca        1 G5K     -0.053000
     28 C28         2.3730    8.3170    3.2740 ca        1 G5K     -0.241300
     29 C29         2.2510    7.4250    2.1760 ca        1 G5K      0.392200
     30 N30         2.9200    6.2740    2.0620 nb        1 G5K     -0.621000
     31 C31         3.7630    5.9620    3.0750 ca        1 G5K      0.333600
     32 S32         4.7290    4.5730    3.2000 ss        1 G5K      0.013500
     33 N33         6.3890    2.5720    3.9730 nb        1 G5K     -0.814000
     34 H1         -0.0120   -2.2000    1.0440 ha        1 G5K      0.129000
     35 H2          0.4090   -3.2420   -0.4410 ha        1 G5K      0.129000
     36 H3          2.8040   -2.5560   -0.2520 ha        1 G5K      0.135000
     37 H4          3.7440   -0.4080   -0.7010 h1        1 G5K      0.045700
     38 H5          5.0080   -1.5300   -0.0270 h1        1 G5K      0.045700
     39 H6          5.0940    1.4580   -0.3660 hc        1 G5K      0.067200
     40 H7          6.4490    0.3030   -0.0670 hc        1 G5K      0.067200
     41 H8          5.2280    2.1730    1.8000 h1        1 G5K      0.098700
     42 H9          4.3730   -0.1540    3.3480 h1        1 G5K      0.068200
     43 H10         3.3280    1.0850    2.5310 h1        1 G5K      0.068200
     44 H11         6.9250   -0.2050    2.3560 hn        1 G5K      0.431800
     45 H12         9.9110    1.4730    6.9850 h1        1 G5K      0.054700
     46 H13        10.0680    0.0940    5.8030 h1        1 G5K      0.054700
     47 H15         8.8660    1.0200    9.0920 h1        1 G5K      0.041700
     48 H16         7.3040    1.0520    8.1500 h1        1 G5K      0.041700
     49 H17         6.6070   -1.1170    9.0840 h1        1 G5K      0.056950
     50 H18         7.2380   -0.1010   10.4810 h1        1 G5K      0.056950
     51 H19         8.1840   -2.9150    8.3110 h1        1 G5K      0.056950
     52 H20         9.7740   -2.9820    9.2360 h1        1 G5K      0.056950
     53 H21        10.5880   -0.9450    8.2300 h1        1 G5K      0.041700
     54 H22         9.8990   -1.9370    6.8610 h1        1 G5K      0.041700
     55 H23         8.1300    3.0510    6.8960 ha        1 G5K      0.155000
     56 H24         6.6050    4.8110    6.3430 hn        1 G5K      0.468800
     57 H25         3.3520    8.6750    5.1810 ha        1 G5K      0.154000
     58 H26         1.7830    9.2430    3.2850 ha        1 G5K      0.145000
     59 H27         1.5680    7.6630    1.3410 h4        1 G5K      0.024100
@<TRIPOS>BOND
     1    1    2 2   
     2    1   34 1   
     3    1   35 1   
     4    2    3 1   
     5    2   36 1   
     6    3    4 2   
     7    3    5 1   
     8    5    6 1   
     9    5    9 1   
    10    6    7 1   
    11    6   37 1   
    12    6   38 1   
    13    7    8 1   
    14    7   39 1   
    15    7   40 1   
    16    8    9 1   
    17    8   10 1   
    18    8   41 1   
    19    9   42 1   
    20    9   43 1   
    21   10   11 1   
    22   10   44 1   
    23   11   12 ar  
    24   11   33 ar  
    25   12   13 ar  
    26   13   14 1   
    27   13   21 ar  
    28   14   15 1   
    29   14   45 1   
    30   14   46 1   
    31   15   16 1   
    32   15   20 1   
    33   16   17 1   
    34   16   47 1   
    35   16   48 1   
    36   17   18 1   
    37   17   49 1   
    38   17   50 1   
    39   18   19 1   
    40   19   20 1   
    41   19   51 1   
    42   19   52 1   
    43   20   53 1   
    44   20   54 1   
    45   21   22 ar  
    46   21   55 1   
    47   22   23 1   
    48   22   33 ar  
    49   23   24 1   
    50   23   56 1   
    51   24   25 2   
    52   24   32 1   
    53   25   26 1   
    54   26   27 ar  
    55   26   31 ar  
    56   27   28 ar  
    57   27   57 1   
    58   28   29 ar  
    59   28   58 1   
    60   29   30 ar  
    61   29   59 1   
    62   30   31 ar  
    63   31   32 1   
@<TRIPOS>SUBSTRUCTURE
     1 G5K         1 TEMP              0 ****  ****    0 ROOT
