@<TRIPOS>MOLECULE
G5K
   59    63     1     0     0
SMALL
bcc


@<TRIPOS>ATOM
      1 C1          0.7720   -2.5580    0.3290 c2        1 G5K     -0.136000
      2 C2          2.0490   -2.1880    0.4320 ce        1 G5K     -0.233200
      3 C3          2.4910   -1.2690    1.5130 c         1 G5K      0.656300
      4 O4          1.7960   -1.0590    2.5290 o         1 G5K     -0.600100
      5 N5          3.7470   -0.6810    1.4080 n         1 G5K     -0.467800
      6 C6          4.4660   -0.5710    0.1550 c3        1 G5K      0.083000
      7 C7          5.4450    0.6060    0.2740 c3        1 G5K     -0.099400
      8 C8          5.4120    1.0570    1.7560 c3        1 G5K      0.200500
      9 C9          4.1630    0.3350    2.3570 c3        1 G5K      0.054000
     10 N10         6.6570    0.7570    2.4280 nh        1 G5K     -0.813900
     11 C11         6.9700    1.3560    3.6640 ca        1 G5K      0.909900
     12 N12         7.9130    0.7000    4.4510 nb        1 G5K     -0.751000
     13 C13         8.2950    1.3290    5.5780 ca        1 G5K      0.511600
     14 C14         9.3370    0.6610    6.4640 c3        1 G5K      0.119500
     15 N15         8.7270   -0.2720    7.3960 n3        1 G5K     -0.725600
     16 C16         8.1140    0.3870    8.5420 c3        1 G5K      0.134800
     17 C17         7.5060   -0.6140    9.5310 c3        1 G5K      0.126900
     18 O18         8.4530   -1.6010    9.9230 os        1 G5K     -0.415600
     19 C19         8.9920   -2.2980    8.8070 c3        1 G5K      0.126900
     20 C20         9.6330   -1.3410    7.7940 c3        1 G5K      0.134800
     21 C21         7.7850    2.5790    5.9760 ca        1 G5K     -0.461600
     22 C22         6.8150    3.1810    5.1210 ca        1 G5K      0.720200
     23 N23         6.2910    4.4270    5.4730 nh        1 G5K     -0.790900
     24 C24         5.3440    5.1300    4.7390 cc        1 G5K      0.564100
     25 N25         4.8480    6.3080    5.1720 nd        1 G5K     -0.594100
     26 C26         3.9420    6.7910    4.2350 ca        1 G5K      0.004100
     27 C27         3.2060    7.9950    4.3150 ca        1 G5K     -0.053000
     28 C28         2.3490    8.3000    3.2720 ca        1 G5K     -0.241300
     29 C29         2.2360    7.4100    2.1720 ca        1 G5K      0.392200
     30 N30         2.9120    6.2630    2.0580 nb        1 G5K     -0.621000
     31 C31         3.7530    5.9540    3.0720 ca        1 G5K      0.333600
     32 S32         4.7270    4.5710    3.1960 ss        1 G5K      0.013500
     33 N33         6.3900    2.5730    3.9740 nb        1 G5K     -0.814000
     34 H1          0.0000   -2.1990    1.0270 ha        1 G5K      0.129000
     35 H2          0.4250   -3.2420   -0.4570 ha        1 G5K      0.129000
     36 H3          2.8210   -2.5590   -0.2590 ha        1 G5K      0.135000
     37 H4          5.0240   -1.5320   -0.0300 h1        1 G5K      0.045700
     38 H5          3.7620   -0.4110   -0.7070 h1        1 G5K      0.045700
     39 H6          5.1100    1.4560   -0.3690 hc        1 G5K      0.067200
     40 H7          6.4650    0.3020   -0.0660 hc        1 G5K      0.067200
     41 H8          5.2360    2.1720    1.7970 h1        1 G5K      0.098700
     42 H9          4.3830   -0.1570    3.3430 h1        1 G5K      0.068200
     43 H10         3.3370    1.0810    2.5260 h1        1 G5K      0.068200
     44 H11         6.9370   -0.2020    2.3570 hn        1 G5K      0.431800
     45 H12         9.9080    1.4820    6.9930 h1        1 G5K      0.054700
     46 H13        10.0690    0.1020    5.8130 h1        1 G5K      0.054700
     47 H15         8.8590    1.0290    9.0980 h1        1 G5K      0.041700
     48 H16         7.2980    1.0580    8.1530 h1        1 G5K      0.041700
     49 H17         6.6040   -1.1120    9.0880 h1        1 G5K      0.056950
     50 H18         7.2310   -0.0940   10.4860 h1        1 G5K      0.056950
     51 H19         8.1850   -2.9070    8.3190 h1        1 G5K      0.056950
     52 H20         9.7730   -2.9710    9.2470 h1        1 G5K      0.056950
     53 H21        10.5860   -0.9330    8.2410 h1        1 G5K      0.041700
     54 H22         9.9010   -1.9280    6.8710 h1        1 G5K      0.041700
     55 H23         8.1220    3.0560    6.9010 ha        1 G5K      0.155000
     56 H24         6.5930    4.8110    6.3440 hn        1 G5K      0.468800
     57 H25         3.3200    8.6590    5.1840 ha        1 G5K      0.154000
     58 H26         1.7530    9.2230    3.2840 ha        1 G5K      0.145000
     59 H27         1.5530    7.6470    1.3350 h4        1 G5K      0.024100
@<TRIPOS>BOND
     1    1    2 2   
     2    1   34 1   
     3    1   35 1   
     4    2    3 1   
     5    2   36 1   
     6    3    4 2   
     7    3    5 1   
     8    5    6 1   
     9    5    9 1   
    10    6    7 1   
    11    6   37 1   
    12    6   38 1   
    13    7    8 1   
    14    7   39 1   
    15    7   40 1   
    16    8    9 1   
    17    8   10 1   
    18    8   41 1   
    19    9   42 1   
    20    9   43 1   
    21   10   11 1   
    22   10   44 1   
    23   11   12 ar  
    24   11   33 ar  
    25   12   13 ar  
    26   13   14 1   
    27   13   21 ar  
    28   14   15 1   
    29   14   45 1   
    30   14   46 1   
    31   15   16 1   
    32   15   20 1   
    33   16   17 1   
    34   16   47 1   
    35   16   48 1   
    36   17   18 1   
    37   17   49 1   
    38   17   50 1   
    39   18   19 1   
    40   19   20 1   
    41   19   51 1   
    42   19   52 1   
    43   20   53 1   
    44   20   54 1   
    45   21   22 ar  
    46   21   55 1   
    47   22   23 1   
    48   22   33 ar  
    49   23   24 1   
    50   23   56 1   
    51   24   25 2   
    52   24   32 1   
    53   25   26 1   
    54   26   27 ar  
    55   26   31 ar  
    56   27   28 ar  
    57   27   57 1   
    58   28   29 ar  
    59   28   58 1   
    60   29   30 ar  
    61   29   59 1   
    62   30   31 ar  
    63   31   32 1   
@<TRIPOS>SUBSTRUCTURE
     1 G5K         1 TEMP              0 ****  ****    0 ROOT
