@<TRIPOS>MOLECULE
G5K
   59    63     1     0     0
SMALL
bcc


@<TRIPOS>ATOM
      1 C1          4.1370    5.8950    2.0340 c2        1 G5K     -0.136000
      2 C2          3.3460    5.4260    1.0700 ce        1 G5K     -0.233200
      3 C3          2.6610    4.1150    1.2160 c         1 G5K      0.656300
      4 O4          2.5330    3.5560    2.3250 o         1 G5K     -0.600100
      5 N5          2.0940    3.5350    0.0870 n         1 G5K     -0.468800
      6 C6          2.4720    3.9000   -1.2630 c3        1 G5K      0.083000
      7 C7          2.1470    2.7130   -2.1820 c3        1 G5K     -0.099400
      8 C8          1.3530    1.6960   -1.3220 c3        1 G5K      0.200500
      9 C9          1.5470    2.1930    0.1470 c3        1 G5K      0.055000
     10 N10        -0.0270    1.6090   -1.7470 nh        1 G5K     -0.814900
     11 C11        -0.8400    0.5350   -1.3340 ca        1 G5K      0.909900
     12 N12        -2.2160    0.7460   -1.3810 nb        1 G5K     -0.751000
     13 C13        -2.9930   -0.3160   -1.0950 ca        1 G5K      0.511600
     14 C14        -4.5050   -0.1430   -1.1490 c3        1 G5K      0.119500
     15 N15        -5.0300    0.3660    0.1060 n3        1 G5K     -0.725600
     16 C16        -5.1420   -0.6590    1.1340 c3        1 G5K      0.134800
     17 C17        -5.7290   -0.1120    2.4410 c3        1 G5K      0.126900
     18 O18        -6.9640    0.5580    2.2160 os        1 G5K     -0.415600
     19 C19        -6.8350    1.6130    1.2700 c3        1 G5K      0.126900
     20 C20        -6.2700    1.1130   -0.0650 c3        1 G5K      0.134800
     21 C21        -2.4800   -1.5800   -0.7540 ca        1 G5K     -0.461600
     22 C22        -1.0600   -1.7120   -0.7180 ca        1 G5K      0.720200
     23 N23        -0.5090   -2.9530   -0.3940 nh        1 G5K     -0.790900
     24 C24         0.8520   -3.2280   -0.3270 cc        1 G5K      0.564100
     25 N25         1.3080   -4.4460    0.0330 nd        1 G5K     -0.594100
     26 C26         2.6970   -4.4400   -0.0040 ca        1 G5K      0.004100
     27 C27         3.5550   -5.5200    0.3040 ca        1 G5K     -0.053000
     28 C28         4.9190   -5.3120    0.2050 ca        1 G5K     -0.241300
     29 C29         5.4100   -4.0410   -0.1960 ca        1 G5K      0.392200
     30 N30         4.6340   -2.9950   -0.4950 nb        1 G5K     -0.621000
     31 C31         3.2970   -3.1860   -0.4020 ca        1 G5K      0.333600
     32 S32         2.0840   -2.0430   -0.7140 ss        1 G5K      0.013500
     33 N33        -0.2330   -0.6590   -0.9900 nb        1 G5K     -0.814000
     34 H1          4.3190    5.3380    2.9660 ha        1 G5K      0.129000
     35 H2          4.6460    6.8650    1.9500 ha        1 G5K      0.129000
     36 H3          3.1540    5.9920    0.1450 ha        1 G5K      0.135000
     37 H4          1.8850    4.8100   -1.5730 h1        1 G5K      0.045700
     38 H5          3.5650    4.1570   -1.3260 h1        1 G5K      0.045700
     39 H6          1.5810    3.0580   -3.0810 hc        1 G5K      0.067200
     40 H7          3.0890    2.2270   -2.5360 hc        1 G5K      0.067200
     41 H8          1.8300    0.6780   -1.4230 h1        1 G5K      0.098700
     42 H9          2.2490    1.5030    0.6920 h1        1 G5K      0.068200
     43 H10         0.5820    2.2190    0.7240 h1        1 G5K      0.068200
     44 H11        -0.5000    2.4910   -1.7780 hn        1 G5K      0.431800
     45 H12        -4.7620    0.5820   -1.9750 h1        1 G5K      0.054700
     46 H13        -4.9500   -1.1450   -1.4240 h1        1 G5K      0.054700
     47 H15        -5.7830   -1.5240    0.7900 h1        1 G5K      0.041700
     48 H16        -4.1070   -1.0540    1.3360 h1        1 G5K      0.041700
     49 H17        -5.9890   -0.9570    3.1300 h1        1 G5K      0.056950
     50 H18        -5.0060    0.5860    2.9390 h1        1 G5K      0.056950
     51 H19        -7.8820    1.9890    1.1270 h1        1 G5K      0.056950
     52 H20        -6.1860    2.4230    1.6960 h1        1 G5K      0.056950
     53 H21        -6.0490    2.0060   -0.7140 h1        1 G5K      0.041700
     54 H22        -7.0610    0.4920   -0.5780 h1        1 G5K      0.041700
     55 H23        -3.1470   -2.4180   -0.5270 ha        1 G5K      0.155000
     56 H24        -1.1490   -3.6820   -0.1580 hn        1 G5K      0.468800
     57 H25         3.1380   -6.4900    0.6110 ha        1 G5K      0.154000
     58 H26         5.6310   -6.1170    0.4330 ha        1 G5K      0.145000
     59 H27         6.4980   -3.8660   -0.2770 h4        1 G5K      0.024100
@<TRIPOS>BOND
     1    1    2 2   
     2    1   34 1   
     3    1   35 1   
     4    2    3 1   
     5    2   36 1   
     6    3    4 2   
     7    3    5 1   
     8    5    6 1   
     9    5    9 1   
    10    6    7 1   
    11    6   37 1   
    12    6   38 1   
    13    7    8 1   
    14    7   39 1   
    15    7   40 1   
    16    8    9 1   
    17    8   10 1   
    18    8   41 1   
    19    9   42 1   
    20    9   43 1   
    21   10   11 1   
    22   10   44 1   
    23   11   12 ar  
    24   11   33 ar  
    25   12   13 ar  
    26   13   14 1   
    27   13   21 ar  
    28   14   15 1   
    29   14   45 1   
    30   14   46 1   
    31   15   16 1   
    32   15   20 1   
    33   16   17 1   
    34   16   47 1   
    35   16   48 1   
    36   17   18 1   
    37   17   49 1   
    38   17   50 1   
    39   18   19 1   
    40   19   20 1   
    41   19   51 1   
    42   19   52 1   
    43   20   53 1   
    44   20   54 1   
    45   21   22 ar  
    46   21   55 1   
    47   22   23 1   
    48   22   33 ar  
    49   23   24 1   
    50   23   56 1   
    51   24   25 2   
    52   24   32 1   
    53   25   26 1   
    54   26   27 ar  
    55   26   31 ar  
    56   27   28 ar  
    57   27   57 1   
    58   28   29 ar  
    59   28   58 1   
    60   29   30 ar  
    61   29   59 1   
    62   30   31 ar  
    63   31   32 1   
@<TRIPOS>SUBSTRUCTURE
     1 G5K         1 TEMP              0 ****  ****    0 ROOT
