@<TRIPOS>MOLECULE
G61
   93    94     1     0     0
SMALL
bcc


@<TRIPOS>ATOM
      1 O39         1.0510    1.9800   -0.3910 os        1 G61     -0.260900
      2 C40         2.4150    1.5180   -0.3830 c3        1 G61      0.096700
      3 C2          0.2210    1.5470    0.5690 ca        1 G61      0.307100
      4 C3          0.5790    0.6690    1.6240 ca        1 G61     -0.210500
      5 C4         -0.3650    0.2930    2.5460 ca        1 G61      0.059000
      6 C5         -1.7170    0.7540    2.4880 ca        1 G61     -0.687500
      7 C6         -2.0410    1.6430    1.4140 ca        1 G61      0.059000
      8 C7         -1.1200    2.0340    0.4830 ca        1 G61     -0.210500
      9 S8         -2.7700    0.2630    3.4930 s4        1 G61      1.691300
     10 O9         -4.0980    0.5520    3.2500 o         1 G61     -0.485400
     11 O10        -2.4560   -0.7470    4.3490 o         1 G61     -0.485400
     12 N11        -2.4980    1.9910    4.9960 n3        1 G61     -0.915200
     13 C12        -1.9730    1.5330    6.2930 c3        1 G61      0.099800
     14 C13        -0.7660    2.3210    6.8220 c3        1 G61     -0.078700
     15 C14        -1.1230    3.7640    7.1010 c3        1 G61     -0.103600
     16 C15        -0.2670    1.6430    8.0820 c3        1 G61     -0.103600
     17 C16        -3.7340    2.7760    5.1060 c3        1 G61      0.119800
     18 C17        -4.9350    1.9690    5.6610 c3        1 G61      0.148100
     19 O18        -5.0000    2.2900    7.0300 oh        1 G61     -0.576800
     20 C19        -6.2380    2.3730    4.9140 c3        1 G61      0.111500
     21 N20        -6.9400    1.1810    4.3150 n4        1 G61     -0.652800
     22 C21        -7.3850    0.1560    5.3240 c         1 G61      0.641100
     23 O22        -6.9250    0.1260    6.4600 o         1 G61     -0.479000
     24 O23        -8.2810   -0.6540    4.7670 os        1 G61     -0.421900
     25 C24        -8.9820   -1.6880    5.6100 c3        1 G61      0.207800
     26 C25        -9.7860   -0.9690    6.6680 c3        1 G61     -0.134100
     27 C26        -9.8630   -2.3550    4.5680 c3        1 G61     -0.134100
     28 C27        -7.9550   -2.6380    6.1830 c3        1 G61     -0.134100
     29 C32        -7.1870    3.1950    5.7980 c3        1 G61     -0.048100
     30 C33        -9.5250    2.9180    4.9580 ca        1 G61     -0.153000
     31 C34       -10.6430    3.3800    4.2530 cp        1 G61     -0.004000
     32 C35       -10.5750    4.6210    3.6000 ca        1 G61     -0.089000
     33 C36        -9.4110    5.3840    3.6630 ca        1 G61     -0.109000
     34 C37        -8.3010    4.9210    4.3690 ca        1 G61     -0.117000
     35 C38        -8.3540    3.6820    5.0160 ca        1 G61     -0.158300
     36 C51       -11.8710    2.5850    4.2060 cp        1 G61     -0.002000
     37 C52       -11.7990    1.1920    4.0770 ca        1 G61     -0.191000
     38 C53       -12.9850    0.4440    4.0210 ca        1 G61      0.174100
     39 C54       -14.2410    1.0590    4.0980 ca        1 G61     -0.261000
     40 C55       -14.2890    2.4510    4.2330 ca        1 G61      0.174100
     41 C56       -13.1100    3.2210    4.2870 ca        1 G61     -0.191000
     42 O61       -12.8000   -0.9190    3.8990 os        1 G61     -0.332400
     43 C62       -13.9770   -1.7050    3.7170 c3        1 G61      0.109700
     44 O63       -15.4490    3.1830    4.3220 os        1 G61     -0.332400
     45 C64       -16.6750    2.4550    4.2750 c3        1 G61      0.109700
     46 H1          2.8450    2.0290   -1.2860 h1        1 G61      0.085700
     47 H2          2.9260    1.8530    0.5510 h1        1 G61      0.085700
     48 H3          2.4430    0.4080   -0.4970 h1        1 G61      0.085700
     49 H4          1.6110    0.2850    1.6980 ha        1 G61      0.194500
     50 H5         -0.0800   -0.4020    3.3610 ha        1 G61      0.167500
     51 H6         -3.0820    2.0100    1.3340 ha        1 G61      0.167500
     52 H7         -1.3820    2.7150   -0.3460 ha        1 G61      0.194500
     53 H8         -1.6680    0.4530    6.1640 h1        1 G61      0.092700
     54 H9         -2.7900    1.5700    7.0720 h1        1 G61      0.092700
     55 H10         0.0580    2.2930    6.0530 hc        1 G61      0.047700
     56 H11        -1.3610    4.3120    6.1580 hc        1 G61      0.053200
     57 H12        -2.0020    3.8300    7.7870 hc        1 G61      0.053200
     58 H13        -0.2600    4.2810    7.5920 hc        1 G61      0.053200
     59 H14         0.6420    2.1710    8.4620 hc        1 G61      0.053200
     60 H15        -1.0470    1.6690    8.8810 hc        1 G61      0.053200
     61 H16         0.0020    0.5780    7.8790 hc        1 G61      0.053200
     62 H17        -3.9730    3.1570    4.0740 h1        1 G61      0.091200
     63 H18        -3.5780    3.6650    5.7900 h1        1 G61      0.091200
     64 H19        -4.7570    0.8600    5.5430 h1        1 G61      0.049700
     65 H20        -5.6130    1.6700    7.4580 ho        1 G61      0.449000
     66 H21        -5.9740    3.0100    4.0130 hx        1 G61      0.103700
     67 H22        -7.7850    1.5200    3.8220 hn        1 G61      0.486300
     68 H23       -10.4050   -1.7170    7.2230 hc        1 G61      0.076367
     69 H24        -9.1150   -0.4520    7.3980 hc        1 G61      0.076367
     70 H25       -10.4720   -0.2200    6.1990 hc        1 G61      0.076367
     71 H26       -10.6200   -1.6360    4.1640 hc        1 G61      0.076367
     72 H27        -9.2480   -2.7520    3.7250 hc        1 G61      0.076367
     73 H28       -10.4000   -3.2040    5.0590 hc        1 G61      0.076367
     74 H29        -7.3030   -3.0480    5.3750 hc        1 G61      0.076367
     75 H30        -7.3200   -2.1320    6.9500 hc        1 G61      0.076367
     76 H31        -8.4890   -3.4900    6.6750 hc        1 G61      0.076367
     77 H32        -7.5260    2.5840    6.6790 hc        1 G61      0.099700
     78 H33        -6.5900    4.0560    6.2080 hc        1 G61      0.099700
     79 H36        -9.3710    6.3660    3.1620 ha        1 G61      0.160000
     80 H37        -7.3950    5.5420    4.4350 ha        1 G61      0.138000
     81 H38       -10.8330    0.6760    4.0020 ha        1 G61      0.142500
     82 H39       -15.1650    0.4660    4.0530 ha        1 G61      0.159000
     83 H40       -13.1890    4.3120    4.4040 ha        1 G61      0.142500
     84 H41       -13.5770   -2.7410    3.5770 h1        1 G61      0.055867
     85 H42       -14.5370   -1.3730    2.8100 h1        1 G61      0.055867
     86 H43       -14.6250   -1.6520    4.6250 h1        1 G61      0.055867
     87 H44       -17.4500    3.2590    4.3670 h1        1 G61      0.055867
     88 H45       -16.7410    1.7420    5.1320 h1        1 G61      0.055867
     89 H46       -16.7750    1.9180    3.3010 h1        1 G61      0.055867
     90 H34        -9.5950    1.9670    5.5120 ha        1 G61      0.128000
     91 H111       -1.8030    2.5910    4.5650 hn        1 G61      0.406800
     92 H202       -6.3120    0.7190    3.6420 hn        1 G61      0.486300
     93 H35       -11.4510    4.9940    3.0430 ha        1 G61      0.167000
@<TRIPOS>BOND
     1    1    2 1   
     2    1    3 1   
     3    2   46 1   
     4    2   47 1   
     5    2   48 1   
     6    3    4 ar  
     7    3    8 ar  
     8    4    5 ar  
     9    4   49 1   
    10    5    6 ar  
    11    5   50 1   
    12    6    7 ar  
    13    6    9 1   
    14    7    8 ar  
    15    7   51 1   
    16    8   52 1   
    17    9   10 1   
    18    9   11 1   
    19   12   13 1   
    20   12   17 1   
    21   12   91 1   
    22   13   14 1   
    23   13   53 1   
    24   13   54 1   
    25   14   15 1   
    26   14   16 1   
    27   14   55 1   
    28   15   56 1   
    29   15   57 1   
    30   15   58 1   
    31   16   59 1   
    32   16   60 1   
    33   16   61 1   
    34   17   18 1   
    35   17   62 1   
    36   17   63 1   
    37   18   19 1   
    38   18   20 1   
    39   18   64 1   
    40   19   65 1   
    41   20   21 1   
    42   20   29 1   
    43   20   66 1   
    44   21   22 1   
    45   21   67 1   
    46   21   92 1   
    47   22   23 2   
    48   22   24 1   
    49   24   25 1   
    50   25   26 1   
    51   25   27 1   
    52   25   28 1   
    53   26   68 1   
    54   26   69 1   
    55   26   70 1   
    56   27   71 1   
    57   27   72 1   
    58   27   73 1   
    59   28   74 1   
    60   28   75 1   
    61   28   76 1   
    62   29   35 1   
    63   29   77 1   
    64   29   78 1   
    65   30   31 ar  
    66   30   35 ar  
    67   30   90 1   
    68   31   32 ar  
    69   31   36 1   
    70   32   33 ar  
    71   32   93 1   
    72   33   34 ar  
    73   33   79 1   
    74   34   35 ar  
    75   34   80 1   
    76   36   37 ar  
    77   36   41 ar  
    78   37   38 ar  
    79   37   81 1   
    80   38   39 ar  
    81   38   42 1   
    82   39   40 ar  
    83   39   82 1   
    84   40   41 ar  
    85   40   44 1   
    86   41   83 1   
    87   42   43 1   
    88   43   84 1   
    89   43   85 1   
    90   43   86 1   
    91   44   45 1   
    92   45   87 1   
    93   45   88 1   
    94   45   89 1   
@<TRIPOS>SUBSTRUCTURE
     1 G61         1 TEMP              0 ****  ****    0 ROOT
