@<TRIPOS>MOLECULE
G61
   93    94     1     0     0
SMALL
bcc


@<TRIPOS>ATOM
      1 O39         1.0230    1.8950   -0.4380 os        1 G61     -0.260900
      2 C40         2.3880    1.4340   -0.4310 c3        1 G61      0.096700
      3 C2          0.1990    1.4780    0.5340 ca        1 G61      0.307100
      4 C3          0.5630    0.6160    1.6010 ca        1 G61     -0.210500
      5 C4         -0.3750    0.2560    2.5340 ca        1 G61      0.059000
      6 C5         -1.7280    0.7150    2.4770 ca        1 G61     -0.687500
      7 C6         -2.0580    1.5870    1.3900 ca        1 G61      0.059000
      8 C7         -1.1430    1.9640    0.4480 ca        1 G61     -0.210500
      9 S8         -2.7750    0.2410    3.4950 s4        1 G61      1.691300
     10 O9         -4.1040    0.5250    3.2550 o         1 G61     -0.485400
     11 O10        -2.4560   -0.7560    4.3650 o         1 G61     -0.485400
     12 N11        -2.4950    1.9920    4.9690 n7        1 G61     -0.915200
     13 C12        -1.9640    1.5550    6.2710 c3        1 G61      0.099800
     14 C13        -0.7540    2.3500    6.7820 c3        1 G61     -0.078700
     15 C14        -1.1080    3.7980    7.0380 c3        1 G61     -0.103600
     16 C15        -0.2500    1.6920    8.0500 c3        1 G61     -0.103600
     17 C16        -3.7290    2.7800    5.0720 c3        1 G61      0.119800
     18 C17        -4.9280    1.9840    5.6450 c3        1 G61      0.148100
     19 O18        -4.9870    2.3280    7.0100 oh        1 G61     -0.576800
     20 C19        -6.2340    2.3760    4.8970 c3        1 G61      0.111500
     21 N20        -6.9400    1.1740    4.3230 ny        1 G61     -0.652800
     22 C21        -7.3820    0.1680    5.3510 c         1 G61      0.641100
     23 O22        -6.9170    0.1570    6.4860 o         1 G61     -0.479000
     24 O23        -8.2820   -0.6510    4.8140 os        1 G61     -0.421900
     25 C24        -8.9800   -1.6680    5.6780 c3        1 G61      0.207800
     26 C25        -9.7780   -0.9290    6.7270 c3        1 G61     -0.134100
     27 C26        -9.8670   -2.3530    4.6520 c3        1 G61     -0.134100
     28 C27        -7.9520   -2.6100    6.2630 c3        1 G61     -0.134100
     29 C32        -7.1780    3.2140    5.7710 c3        1 G61     -0.048100
     30 C33        -9.5210    2.9260    4.9460 ca        1 G61     -0.153000
     31 C34       -10.6410    3.3770    4.2370 cp        1 G61     -0.004000
     32 C35       -10.5730    4.6060    3.5620 ca        1 G61     -0.089000
     33 C36        -9.4080    5.3690    3.6060 ca        1 G61     -0.109000
     34 C37        -8.2960    4.9160    4.3160 ca        1 G61     -0.117000
     35 C38        -8.3480    3.6900    4.9850 ca        1 G61     -0.158300
     36 C51       -11.8700    2.5830    4.2090 cp        1 G61     -0.002000
     37 C52       -11.8000    1.1880    4.1060 ca        1 G61     -0.191000
     38 C53       -12.9880    0.4410    4.0680 ca        1 G61      0.174100
     39 C54       -14.2430    1.0590    4.1380 ca        1 G61     -0.261000
     40 C55       -14.2880    2.4540    4.2480 ca        1 G61      0.174100
     41 C56       -13.1080    3.2230    4.2840 ca        1 G61     -0.191000
     42 O61       -12.8050   -0.9250    3.9700 os        1 G61     -0.332400
     43 C62       -13.9840   -1.7120    3.8070 c3        1 G61      0.109700
     44 O63       -15.4470    3.1880    4.3290 os        1 G61     -0.332400
     45 C64       -16.6740    2.4620    4.3000 c3        1 G61      0.109700
     46 H1          2.9040    1.7830    0.4950 h1        1 G61      0.085700
     47 H2          2.8120    1.9300   -1.3440 h1        1 G61      0.085700
     48 H3          2.4150    0.3220   -0.5270 h1        1 G61      0.085700
     49 H4          1.5960    0.2340    1.6740 ha        1 G61      0.194500
     50 H5         -0.0860   -0.4270    3.3580 ha        1 G61      0.167500
     51 H6         -3.1000    1.9520    1.3110 ha        1 G61      0.167500
     52 H7         -1.4100    2.6310   -0.3910 ha        1 G61      0.194500
     53 H8         -2.7780    1.6050    7.0520 h1        1 G61      0.092700
     54 H9         -1.6610    0.4730    6.1580 h1        1 G61      0.092700
     55 H10         0.0660    2.3080    6.0100 hc        1 G61      0.047700
     56 H11        -1.9850    3.8760    7.7270 hc        1 G61      0.053200
     57 H12        -1.3490    4.3300    6.0870 hc        1 G61      0.053200
     58 H13        -0.2430    4.3220    7.5160 hc        1 G61      0.053200
     59 H14         0.0170    0.6240    7.8630 hc        1 G61      0.053200
     60 H15         0.6610    2.2250    8.4170 hc        1 G61      0.053200
     61 H16        -1.0270    1.7320    8.8520 hc        1 G61      0.053200
     62 H17        -3.5690    3.6800    5.7400 h1        1 G61      0.091200
     63 H18        -3.9730    3.1440    4.0340 h1        1 G61      0.091200
     64 H19        -4.7520    0.8720    5.5460 h1        1 G61      0.049700
     65 H20        -5.5990    1.7160    7.4500 ho        1 G61      0.449000
     66 H21        -5.9740    2.9960    3.9830 hx        1 G61      0.103700
     67 H22        -7.7870    1.5060    3.8270 hn        1 G61      0.486300
     68 H23       -10.3960   -1.6660    7.2980 hc        1 G61      0.076367
     69 H24       -10.4660   -0.1880    6.2470 hc        1 G61      0.076367
     70 H25        -9.1040   -0.4010    7.4440 hc        1 G61      0.076367
     71 H26        -9.2570   -2.7650    3.8130 hc        1 G61      0.076367
     72 H27       -10.6240   -1.6390    4.2390 hc        1 G61      0.076367
     73 H28       -10.4030   -3.1920    5.1600 hc        1 G61      0.076367
     74 H29        -8.4840   -3.4520    6.7720 hc        1 G61      0.076367
     75 H30        -7.3040   -3.0350    5.4590 hc        1 G61      0.076367
     76 H31        -7.3120   -2.0910    7.0180 hc        1 G61      0.076367
     77 H32        -6.5790    4.0820    6.1630 hc        1 G61      0.099700
     78 H33        -7.5140    2.6200    6.6630 hc        1 G61      0.099700
     79 H36        -9.3700    6.3410    3.0880 ha        1 G61      0.160000
     80 H37        -7.3890    5.5370    4.3670 ha        1 G61      0.138000
     81 H38       -10.8350    0.6690    4.0360 ha        1 G61      0.142500
     82 H39       -15.1670    0.4670    4.1080 ha        1 G61      0.159000
     83 H40       -13.1850    4.3160    4.3810 ha        1 G61      0.142500
     84 H41       -14.5470   -1.3950    2.8960 h1        1 G61      0.055867
     85 H42       -13.5860   -2.7510    3.6850 h1        1 G61      0.055867
     86 H43       -14.6280   -1.6410    4.7170 h1        1 G61      0.055867
     87 H44       -16.7370    1.7640    5.1700 h1        1 G61      0.055867
     88 H45       -16.7790    1.9070    3.3360 h1        1 G61      0.055867
     89 H46       -17.4470    3.2680    4.3800 h1        1 G61      0.055867
     90 H34        -9.5890    1.9860    5.5170 ha        1 G61      0.128000
     91 H111       -1.8010    2.5840    4.5250 hn        1 G61      0.406800
     92 H202       -6.3160    0.6990    3.6550 hn        1 G61      0.486300
     93 H35       -11.4510    4.9700    3.0020 ha        1 G61      0.167000
@<TRIPOS>BOND
     1    1    2 1   
     2    1    3 1   
     3    2   46 1   
     4    2   47 1   
     5    2   48 1   
     6    3    4 ar  
     7    3    8 ar  
     8    4    5 ar  
     9    4   49 1   
    10    5    6 ar  
    11    5   50 1   
    12    6    7 ar  
    13    6    9 1   
    14    7    8 ar  
    15    7   51 1   
    16    8   52 1   
    17    9   10 1   
    18    9   11 1   
    19   12   13 1   
    20   12   17 1   
    21   12   91 1   
    22   13   14 1   
    23   13   53 1   
    24   13   54 1   
    25   14   15 1   
    26   14   16 1   
    27   14   55 1   
    28   15   56 1   
    29   15   57 1   
    30   15   58 1   
    31   16   59 1   
    32   16   60 1   
    33   16   61 1   
    34   17   18 1   
    35   17   62 1   
    36   17   63 1   
    37   18   19 1   
    38   18   20 1   
    39   18   64 1   
    40   19   65 1   
    41   20   21 1   
    42   20   29 1   
    43   20   66 1   
    44   21   22 1   
    45   21   67 1   
    46   21   92 1   
    47   22   23 2   
    48   22   24 1   
    49   24   25 1   
    50   25   26 1   
    51   25   27 1   
    52   25   28 1   
    53   26   68 1   
    54   26   69 1   
    55   26   70 1   
    56   27   71 1   
    57   27   72 1   
    58   27   73 1   
    59   28   74 1   
    60   28   75 1   
    61   28   76 1   
    62   29   35 1   
    63   29   77 1   
    64   29   78 1   
    65   30   31 ar  
    66   30   35 ar  
    67   30   90 1   
    68   31   32 ar  
    69   31   36 1   
    70   32   33 ar  
    71   32   93 1   
    72   33   34 ar  
    73   33   79 1   
    74   34   35 ar  
    75   34   80 1   
    76   36   37 ar  
    77   36   41 ar  
    78   37   38 ar  
    79   37   81 1   
    80   38   39 ar  
    81   38   42 1   
    82   39   40 ar  
    83   39   82 1   
    84   40   41 ar  
    85   40   44 1   
    86   41   83 1   
    87   42   43 1   
    88   43   84 1   
    89   43   85 1   
    90   43   86 1   
    91   44   45 1   
    92   45   87 1   
    93   45   88 1   
    94   45   89 1   
@<TRIPOS>SUBSTRUCTURE
     1 G61         1 TEMP              0 ****  ****    0 ROOT
