@<TRIPOS>MOLECULE
G64
   98   100     1     0     0
SMALL
bcc


@<TRIPOS>ATOM
      1 C2          0.5070   -0.7920   -0.9850 ca        1 G64      0.317100
      2 O39         0.8360   -1.4010   -2.1300 os        1 G64     -0.253900
      3 C40         1.0570   -0.5990   -3.3070 c3        1 G64      0.095700
      4 C3          0.2780   -1.6610    0.1280 ca        1 G64     -0.213000
      5 C4         -0.0820   -1.1330    1.3340 ca        1 G64      0.065500
      6 C5         -0.2440    0.2800    1.5410 ca        1 G64     -0.709500
      7 C6          0.0210    1.1180    0.4090 ca        1 G64      0.065500
      8 C7          0.3780    0.6140   -0.8130 ca        1 G64     -0.213000
      9 S8         -0.7310    0.8350    2.8690 s4        1 G64      1.693300
     10 O9         -0.9900    2.1640    2.9890 o         1 G64     -0.442900
     11 O10        -1.0670   -0.0310    3.8620 o         1 G64     -0.442900
     12 N11         1.2760    1.3070    4.5860 n7        1 G64     -0.882200
     13 C12         2.6590    1.3380    4.1150 c3        1 G64      0.121800
     14 C13         3.1240    2.6140    3.4010 c3        1 G64     -0.064700
     15 C14         4.5640    2.4140    2.9650 c3        1 G64     -0.106100
     16 C15         2.2610    2.9690    2.2120 c3        1 G64     -0.106100
     17 C16         0.8680    2.4110    5.4350 c3        1 G64      0.117800
     18 C17         1.4180    2.4020    6.8740 c3        1 G64      0.093100
     19 O18         2.8160    2.5930    6.9470 oh        1 G64     -0.609800
     20 C19         0.7020    3.4750    7.7430 c3        1 G64      0.103500
     21 N20         1.3360    3.5350    9.1160 ny        1 G64     -0.674800
     22 C21         0.8060    2.5310   10.1030 c         1 G64      0.568700
     23 O22         0.0950    1.6360    9.6650 o         1 G64     -0.414100
     24 C32         0.7340    4.8610    7.0820 c3        1 G64     -0.054100
     25 C33         1.1450    6.8000    8.6110 ca        1 G64     -0.134500
     26 C34         0.6790    7.8570    9.3910 ca        1 G64     -0.112000
     27 C35        -0.6930    8.0620    9.5440 ca        1 G64     -0.090000
     28 C36        -1.6000    7.2080    8.9150 ca        1 G64     -0.112000
     29 C37        -1.1370    6.1520    8.1310 ca        1 G64     -0.134500
     30 C38         0.2380    5.9410    7.9760 ca        1 G64     -0.175300
     31 C51         1.1790    2.7330   11.5150 ca        1 G64     -0.185600
     32 C52         2.3500    3.3940   11.9110 ca        1 G64     -0.055000
     33 C53         2.6560    3.5340   13.2690 ca        1 G64     -0.037300
     34 C54         1.7840    3.0060   14.2330 ca        1 G64     -0.047000
     35 C55         0.6210    2.3330   13.8440 ca        1 G64     -0.173600
     36 C56         0.3140    2.1960   12.4800 ca        1 G64      0.003000
     37 C57         3.8940    4.2250   13.6970 c3        1 G64     -0.085800
     38 C58        -0.3720    1.7930   14.8010 c         1 G64      0.550700
     39 O59        -1.5660    1.6710   14.5520 o         1 G64     -0.407100
     40 N60         0.1170    1.3770   16.1640 nx        1 G64     -0.582200
     41 C61         1.1100    0.2770   16.0450 c3        1 G64      0.093100
     42 C62        -1.0070    1.0520   17.1350 c3        1 G64      0.138500
     43 C63        -1.5790   -0.2980   17.0190 cc        1 G64      0.094300
     44 N64        -0.8840   -1.4650   17.4140 nc        1 G64     -0.691000
     45 C65        -1.7600   -2.4620   17.3270 cd        1 G64      0.549700
     46 O66        -3.0250   -2.0060   16.8750 os        1 G64     -0.358800
     47 C67        -2.8950   -0.6380   16.6860 cd        1 G64      0.288700
     48 C68        -4.0750    0.1020   16.2400 c3        1 G64     -0.162400
     49 C69        -1.6670   -3.9030   17.6250 c3        1 G64     -0.142400
     50 H1          1.2910   -1.3760   -4.0830 h1        1 G64      0.088033
     51 H2          0.1280   -0.0370   -3.5650 h1        1 G64      0.088033
     52 H3          1.9250    0.0830   -3.1440 h1        1 G64      0.088033
     53 H4          0.3890   -2.7510   -0.0210 ha        1 G64      0.196500
     54 H5         -0.2730   -1.8120    2.1900 ha        1 G64      0.174000
     55 H6         -0.0780    2.2150    0.5390 ha        1 G64      0.174000
     56 H7          0.5600    1.2910   -1.6650 ha        1 G64      0.196500
     57 H8          2.7670    0.4730    3.3990 h1        1 G64      0.064700
     58 H9          3.3720    1.1540    4.9740 h1        1 G64      0.064700
     59 H10         3.0960    3.4740    4.1280 hc        1 G64      0.032700
     60 H11         4.9500    3.3480    2.4880 hc        1 G64      0.050533
     61 H12         5.2120    2.1710    3.8410 hc        1 G64      0.050533
     62 H13         4.6420    1.5830    2.2240 hc        1 G64      0.050533
     63 H14         2.2230    2.1200    1.4860 hc        1 G64      0.050533
     64 H15         1.2190    3.2210    2.5290 hc        1 G64      0.050533
     65 H16         2.6890    3.8570    1.6850 hc        1 G64      0.050533
     66 H17         1.1550    3.3770    4.9300 h1        1 G64      0.087700
     67 H18        -0.2600    2.3770    5.4990 h1        1 G64      0.087700
     68 H19         1.2450    1.3900    7.3510 h1        1 G64      0.102700
     69 H20         3.0950    3.1750    6.2250 ho        1 G64      0.437000
     70 H21        -0.3750    3.1580    7.8870 hx        1 G64      0.124700
     71 H22         2.3490    3.3750    8.9970 hn        1 G64      0.478800
     72 H23         0.0750    4.8040    6.1700 hc        1 G64      0.087700
     73 H24         1.7780    5.0870    6.7340 hc        1 G64      0.087700
     74 H27        -1.0600    8.9120   10.1450 ha        1 G64      0.168000
     75 H28        -2.6840    7.3820    9.0180 ha        1 G64      0.163500
     76 H29        -1.8580    5.5010    7.6120 ha        1 G64      0.136500
     77 H30         3.0630    3.8000   11.1740 ha        1 G64      0.154000
     78 H31         2.0440    3.1540   15.2960 ha        1 G64      0.160000
     79 H32        -0.6090    1.6690   12.1700 ha        1 G64      0.193000
     80 H33         4.3510    4.8070   12.8590 hc        1 G64      0.082700
     81 H34         4.6490    3.4760   14.0530 hc        1 G64      0.082700
     82 H35         3.6830    4.9330   14.5390 hc        1 G64      0.082700
     83 H36         1.3910   -0.0810   17.0750 hx        1 G64      0.113367
     84 H37         2.0190    0.6610   15.5100 hx        1 G64      0.113367
     85 H38         0.6650   -0.5810   15.4720 hx        1 G64      0.113367
     86 H39        -1.8190    1.8200   16.9700 hx        1 G64      0.117700
     87 H40        -0.5530    1.1850   18.1650 hx        1 G64      0.117700
     88 H41        -3.7630    0.9620   15.5950 hc        1 G64      0.087033
     89 H42        -4.7670   -0.5640   15.6620 hc        1 G64      0.087033
     90 H43        -4.6360    0.4930   17.1300 hc        1 G64      0.087033
     91 H44        -0.7700   -4.3440   17.1240 hc        1 G64      0.093033
     92 H45        -2.5890   -4.4280   17.2690 hc        1 G64      0.093033
     93 H46        -1.5710   -4.0490   18.7330 hc        1 G64      0.093033
     94 H25         2.2280    6.6800    8.4500 ha        1 G64      0.136500
     95 H111        1.1400    0.4400    5.0890 hn        1 G64      0.386800
     96 H202        1.1940    4.4860    9.5000 hn        1 G64      0.478800
     97 H601        0.5990    2.1940   16.5640 hn        1 G64      0.447800
     98 H26         1.3960    8.5470    9.8670 ha        1 G64      0.163500
@<TRIPOS>BOND
     1    1    2 1   
     2    1    4 ar  
     3    1    8 ar  
     4    2    3 1   
     5    3   50 1   
     6    3   51 1   
     7    3   52 1   
     8    4    5 ar  
     9    4   53 1   
    10    5    6 ar  
    11    5   54 1   
    12    6    7 ar  
    13    6    9 1   
    14    7    8 ar  
    15    7   55 1   
    16    8   56 1   
    17    9   10 1   
    18    9   11 1   
    19   12   13 1   
    20   12   17 1   
    21   12   95 1   
    22   13   14 1   
    23   13   57 1   
    24   13   58 1   
    25   14   15 1   
    26   14   16 1   
    27   14   59 1   
    28   15   60 1   
    29   15   61 1   
    30   15   62 1   
    31   16   63 1   
    32   16   64 1   
    33   16   65 1   
    34   17   18 1   
    35   17   66 1   
    36   17   67 1   
    37   18   19 1   
    38   18   20 1   
    39   18   68 1   
    40   19   69 1   
    41   20   21 1   
    42   20   24 1   
    43   20   70 1   
    44   21   22 1   
    45   21   71 1   
    46   21   96 1   
    47   22   23 2   
    48   22   31 1   
    49   24   30 1   
    50   24   72 1   
    51   24   73 1   
    52   25   26 ar  
    53   25   30 ar  
    54   25   94 1   
    55   26   27 ar  
    56   26   98 1   
    57   27   28 ar  
    58   27   74 1   
    59   28   29 ar  
    60   28   75 1   
    61   29   30 ar  
    62   29   76 1   
    63   31   32 ar  
    64   31   36 ar  
    65   32   33 ar  
    66   32   77 1   
    67   33   34 ar  
    68   33   37 1   
    69   34   35 ar  
    70   34   78 1   
    71   35   36 ar  
    72   35   38 1   
    73   36   79 1   
    74   37   80 1   
    75   37   81 1   
    76   37   82 1   
    77   38   39 2   
    78   38   40 1   
    79   40   41 1   
    80   40   42 1   
    81   40   97 1   
    82   41   83 1   
    83   41   84 1   
    84   41   85 1   
    85   42   43 1   
    86   42   86 1   
    87   42   87 1   
    88   43   44 1   
    89   43   47 2   
    90   44   45 2   
    91   45   46 1   
    92   45   49 1   
    93   46   47 1   
    94   47   48 1   
    95   48   88 1   
    96   48   89 1   
    97   48   90 1   
    98   49   91 1   
    99   49   92 1   
   100   49   93 1   
@<TRIPOS>SUBSTRUCTURE
     1 G64         1 TEMP              0 ****  ****    0 ROOT
