@<TRIPOS>MOLECULE
G69
   51    53     1     0     0
SMALL
bcc


@<TRIPOS>ATOM
      1 O1         -0.9040   -0.1200    0.6280 oh        1 G69     -0.605800
      2 C3          0.4220    0.2720    0.2970 c3        1 G69      0.202700
      3 C6          1.2190    0.2940    1.5350 cc        1 G69     -0.197600
      4 C7          0.7830    0.0510    2.8460 cd        1 G69     -0.105300
      5 N9          1.9050    0.2090    3.6770 na        1 G69      0.092400
      6 C10         1.8990   -0.0010    5.1160 c3        1 G69      0.099600
      7 C13         2.6600   -1.2200    5.5590 ca        1 G69     -0.098300
      8 C14         4.0560   -1.2650    5.3920 ca        1 G69     -0.066000
      9 C16         4.7340   -2.3960    5.8110 ca        1 G69     -0.123300
     10 C17         6.1890   -2.6880    5.6910 c3        1 G69     -0.044100
     11 C20         6.4020   -3.9980    6.5020 c3        1 G69      0.112500
     12 N22         7.1290   -3.7520    7.7900 ny        1 G69     -0.715900
     13 S24         7.7750   -5.3210    8.5750 s6        1 G69      1.356900
     14 C25         9.0130   -4.6320    9.4960 c3        1 G69     -0.320900
     15 C27         8.5290   -3.6330   10.5260 c3        1 G69     -0.100100
     16 C31         9.7420   -5.7740   10.1960 c3        1 G69     -0.100100
     17 O35         6.6880   -5.7420    9.3170 o         1 G69     -0.552800
     18 O36         8.2510   -6.0470    7.5000 o         1 G69     -0.552800
     19 C37         4.9810   -4.5870    6.7420 c3        1 G69     -0.057100
     20 C40         4.0450   -3.4780    6.4050 ca        1 G69     -0.106300
     21 C41         2.6730   -3.4290    6.5790 ca        1 G69     -0.098000
     22 C43         1.9820   -2.2890    6.1450 ca        1 G69     -0.094000
     23 N45         3.0060    0.5120    2.9810 nd        1 G69     -0.476800
     24 C46         2.6320    0.5790    1.6710 cc        1 G69      0.223600
     25 C47         3.6240    0.9120    0.5760 c3        1 G69      0.631600
     26 F48         3.0860    0.9240   -0.6860 f         1 G69     -0.228967
     27 F49         4.2180    2.1420    0.7110 f         1 G69     -0.228967
     28 F50         4.6750    0.0310    0.4920 f         1 G69     -0.228967
     29 HO1        -1.4130   -0.0690   -0.1910 ho        1 G69      0.416000
     30 H3          0.8660   -0.4590   -0.4350 h1        1 G69      0.050200
     31 H3A         0.4170    1.2950   -0.1750 h1        1 G69      0.050200
     32 H7         -0.2110   -0.1980    3.2180 h4        1 G69      0.202000
     33 H10         2.3500    0.9080    5.6130 h1        1 G69      0.083700
     34 H10A        0.8190   -0.0820    5.4300 h1        1 G69      0.083700
     35 H14         4.5910   -0.4220    4.9280 ha        1 G69      0.170000
     36 H17         6.8190   -1.8360    6.0500 hc        1 G69      0.086200
     37 H17A        6.4620   -2.8820    4.6190 hc        1 G69      0.086200
     38 H20         7.0370   -4.7190    5.9080 hx        1 G69      0.123700
     39 HN22        6.4760   -3.2880    8.4270 hn        1 G69      0.454300
     40 H25         9.7910   -4.1160    8.8580 h1        1 G69      0.148700
     41 H27         7.6490   -4.0370   11.0890 hc        1 G69      0.079700
     42 H27A        8.2590   -2.6580   10.0530 hc        1 G69      0.079700
     43 H27B        9.3400   -3.4280   11.2710 hc        1 G69      0.079700
     44 H31        10.6290   -5.3730   10.7480 hc        1 G69      0.079700
     45 H31A        9.0730   -6.2720   10.9410 hc        1 G69      0.079700
     46 H31B       10.1120   -6.5230    9.4510 hc        1 G69      0.079700
     47 H37         4.8230   -4.9690    7.7830 hc        1 G69      0.094700
     48 H37A        4.8330   -5.4490    6.0370 hc        1 G69      0.094700
     49 H41         2.1260   -4.2680    7.0360 ha        1 G69      0.154000
     50 H43         0.8870   -2.2490    6.2680 ha        1 G69      0.152000
     51 H222        7.8800   -3.0890    7.6010 hn        1 G69      0.454300
@<TRIPOS>BOND
     1    1    2 1   
     2    1   29 1   
     3    2    3 1   
     4    2   30 1   
     5    2   31 1   
     6    3    4 2   
     7    3   24 1   
     8    4    5 1   
     9    4   32 1   
    10    5    6 1   
    11    5   23 1   
    12    6    7 1   
    13    6   33 1   
    14    6   34 1   
    15    7    8 ar  
    16    7   22 ar  
    17    8    9 ar  
    18    8   35 1   
    19    9   10 1   
    20    9   20 ar  
    21   10   11 1   
    22   10   36 1   
    23   10   37 1   
    24   11   12 1   
    25   11   19 1   
    26   11   38 1   
    27   12   13 1   
    28   12   39 1   
    29   12   51 1   
    30   13   14 1   
    31   13   17 2   
    32   13   18 2   
    33   14   15 1   
    34   14   16 1   
    35   14   40 1   
    36   15   41 1   
    37   15   42 1   
    38   15   43 1   
    39   16   44 1   
    40   16   45 1   
    41   16   46 1   
    42   19   20 1   
    43   19   47 1   
    44   19   48 1   
    45   20   21 ar  
    46   21   22 ar  
    47   21   49 1   
    48   22   50 1   
    49   23   24 2   
    50   24   25 1   
    51   25   26 1   
    52   25   27 1   
    53   25   28 1   
@<TRIPOS>SUBSTRUCTURE
     1 G69         1 TEMP              0 ****  ****    0 ROOT
