@<TRIPOS>MOLECULE
G69
   51    53     1     0     0
SMALL
bcc


@<TRIPOS>ATOM
      1 O1         -0.9380   -0.1290    0.6650 oh        1 G69     -0.605800
      2 C3          0.3860    0.2600    0.3210 c3        1 G69      0.202700
      3 C6          1.1930    0.2860    1.5530 cc        1 G69     -0.197600
      4 C7          0.7680    0.0510    2.8680 cd        1 G69     -0.105300
      5 N9          1.8970    0.2100    3.6900 na        1 G69      0.092400
      6 C10         1.9010    0.0070    5.1290 c3        1 G69      0.099600
      7 C13         2.6620   -1.2120    5.5720 ca        1 G69     -0.098300
      8 C14         4.0560   -1.2630    5.3940 ca        1 G69     -0.066000
      9 C16         4.7330   -2.3950    5.8120 ca        1 G69     -0.123300
     10 C17         6.1860   -2.6930    5.6810 c3        1 G69     -0.044100
     11 C20         6.4010   -3.9990    6.4970 c3        1 G69      0.112500
     12 N22         7.1420   -3.7500    7.7760 n4        1 G69     -0.715900
     13 S24         7.7880   -5.3180    8.5630 s6        1 G69      1.356900
     14 C25         9.0390   -4.6300    9.4670 c3        1 G69     -0.320900
     15 C27         8.5720   -3.6230   10.4970 c3        1 G69     -0.100100
     16 C31         9.7700   -5.7710   10.1660 c3        1 G69     -0.100100
     17 O35         6.7070   -5.7290    9.3200 o         1 G69     -0.552800
     18 O36         8.2490   -6.0530    7.4880 o         1 G69     -0.552800
     19 C37         4.9800   -4.5810    6.7530 c3        1 G69     -0.057100
     20 C40         4.0460   -3.4710    6.4180 ca        1 G69     -0.105300
     21 C41         2.6750   -3.4160    6.6050 ca        1 G69     -0.098000
     22 C43         1.9840   -2.2760    6.1700 ca        1 G69     -0.094000
     23 N45         2.9920    0.5070    2.9830 nd        1 G69     -0.476800
     24 C46         2.6080    0.5680    1.6750 cc        1 G69      0.223600
     25 C47         3.5920    0.8930    0.5710 c3        1 G69      0.631600
     26 F48         3.0440    0.9000   -0.6870 f         1 G69     -0.228967
     27 F49         4.1890    2.1220    0.6950 f         1 G69     -0.228967
     28 F50         4.6400    0.0100    0.4830 f         1 G69     -0.228967
     29 HO1        -1.4530   -0.0800   -0.1500 ho        1 G69      0.416000
     30 H3          0.8240   -0.4760   -0.4110 h1        1 G69      0.050200
     31 H3A         0.3800    1.2800   -0.1560 h1        1 G69      0.050200
     32 H7         -0.2250   -0.1940    3.2490 h4        1 G69      0.202000
     33 H10         0.8240   -0.0680    5.4530 h1        1 G69      0.083700
     34 H10A        2.3600    0.9170    5.6180 h1        1 G69      0.083700
     35 H14         4.5900   -0.4250    4.9190 ha        1 G69      0.170000
     36 H17         6.4480   -2.8940    4.6070 hc        1 G69      0.086200
     37 H17A        6.8220   -1.8420    6.0290 hc        1 G69      0.086200
     38 H20         7.0280   -4.7270    5.9010 hx        1 G69      0.123700
     39 HN22        7.8940   -3.0920    7.5760 hn        1 G69      0.454300
     40 H25         9.8130   -4.1220    8.8180 h1        1 G69      0.148700
     41 H27         7.6960   -4.0190   11.0710 hc        1 G69      0.079700
     42 H27A        8.3010   -2.6490   10.0210 hc        1 G69      0.079700
     43 H27B        9.3920   -3.4170   11.2310 hc        1 G69      0.079700
     44 H31        10.6650   -5.3720   10.7060 hc        1 G69      0.079700
     45 H31A       10.1280   -6.5270    9.4220 hc        1 G69      0.079700
     46 H31B        9.1070   -6.2620   10.9210 hc        1 G69      0.079700
     47 H37         4.8220   -5.4470    6.0550 hc        1 G69      0.094700
     48 H37A        4.8310   -4.9560    7.7980 hc        1 G69      0.094700
     49 H41         2.1300   -4.2490    7.0710 ha        1 G69      0.154000
     50 H43         0.8910   -2.2310    6.3030 ha        1 G69      0.152000
     51 H222        6.4970   -3.2800    8.4170 hn        1 G69      0.454300
@<TRIPOS>BOND
     1    1    2 1   
     2    1   29 1   
     3    2    3 1   
     4    2   30 1   
     5    2   31 1   
     6    3    4 2   
     7    3   24 1   
     8    4    5 1   
     9    4   32 1   
    10    5    6 1   
    11    5   23 1   
    12    6    7 1   
    13    6   33 1   
    14    6   34 1   
    15    7    8 ar  
    16    7   22 ar  
    17    8    9 ar  
    18    8   35 1   
    19    9   10 1   
    20    9   20 ar  
    21   10   11 1   
    22   10   36 1   
    23   10   37 1   
    24   11   12 1   
    25   11   19 1   
    26   11   38 1   
    27   12   13 1   
    28   12   39 1   
    29   12   51 1   
    30   13   14 1   
    31   13   17 2   
    32   13   18 2   
    33   14   15 1   
    34   14   16 1   
    35   14   40 1   
    36   15   41 1   
    37   15   42 1   
    38   15   43 1   
    39   16   44 1   
    40   16   45 1   
    41   16   46 1   
    42   19   20 1   
    43   19   47 1   
    44   19   48 1   
    45   20   21 ar  
    46   21   22 ar  
    47   21   49 1   
    48   22   50 1   
    49   23   24 2   
    50   24   25 1   
    51   25   26 1   
    52   25   27 1   
    53   25   28 1   
@<TRIPOS>SUBSTRUCTURE
     1 G69         1 TEMP              0 ****  ****    0 ROOT
