@<TRIPOS>MOLECULE
G69
   51    53     1     0     0
SMALL
bcc


@<TRIPOS>ATOM
      1 O1         -0.9360   -0.0990    0.6730 oh        1 G69     -0.605800
      2 C3          0.3880    0.2940    0.3350 c3        1 G69      0.202700
      3 C6          1.1930    0.3110    1.5680 cc        1 G69     -0.197600
      4 C7          0.7660    0.0640    2.8810 cd        1 G69     -0.105300
      5 N9          1.8930    0.2180    3.7060 na        1 G69      0.092400
      6 C10         1.8970    0.0030    5.1430 c3        1 G69      0.099600
      7 C13         2.6600   -1.2180    5.5770 ca        1 G69     -0.098300
      8 C14         4.0540   -1.2630    5.4010 ca        1 G69     -0.066000
      9 C16         4.7350   -2.3960    5.8110 ca        1 G69     -0.123300
     10 C17         6.1890   -2.6880    5.6810 c3        1 G69     -0.044100
     11 C20         6.4060   -4.0010    6.4860 c3        1 G69      0.112500
     12 N22         7.1420   -3.7610    7.7690 n4        1 G69     -0.715900
     13 S24         7.7920   -5.3340    8.5440 s6        1 G69      1.356900
     14 C25         9.0370   -4.6500    9.4580 c3        1 G69     -0.320900
     15 C27         8.5620   -3.6550   10.4960 c3        1 G69     -0.100100
     16 C31         9.7710   -5.7950   10.1480 c3        1 G69     -0.100100
     17 O35         6.7100   -5.7570    9.2920 o         1 G69     -0.552800
     18 O36         8.2590   -6.0560    7.4630 o         1 G69     -0.552800
     19 C37         4.9860   -4.5900    6.7320 c3        1 G69     -0.057100
     20 C40         4.0500   -3.4800    6.4050 ca        1 G69     -0.105300
     21 C41         2.6780   -3.4310    6.5880 ca        1 G69     -0.098000
     22 C43         1.9850   -2.2890    6.1630 ca        1 G69     -0.094000
     23 N45         2.9900    0.5230    3.0040 nd        1 G69     -0.476800
     24 C46         2.6070    0.5960    1.6960 cc        1 G69      0.223600
     25 C47         3.5920    0.9320    0.5960 c3        1 G69      0.631600
     26 F48         3.0470    0.9490   -0.6630 f         1 G69     -0.228967
     27 F49         4.1880    2.1610    0.7310 f         1 G69     -0.228967
     28 F50         4.6420    0.0510    0.5020 f         1 G69     -0.228967
     29 HO1        -1.4490   -0.0440   -0.1420 ho        1 G69      0.416000
     30 H3          0.3820    1.3190   -0.1330 h1        1 G69      0.050200
     31 H3A         0.8280   -0.4340   -0.4030 h1        1 G69      0.050200
     32 H7         -0.2260   -0.1860    3.2580 h4        1 G69      0.202000
     33 H10         2.3520    0.9100    5.6410 h1        1 G69      0.083700
     34 H10A        0.8180   -0.0780    5.4640 h1        1 G69      0.083700
     35 H14         4.5870   -0.4180    4.9360 ha        1 G69      0.170000
     36 H17         6.8210   -1.8370    6.0390 hc        1 G69      0.086200
     37 H17A        6.4550   -2.8780    4.6060 hc        1 G69      0.086200
     38 H20         7.0370   -4.7200    5.8850 hx        1 G69      0.123700
     39 HN22        6.4940   -3.3000    8.4130 hn        1 G69      0.454300
     40 H25         9.8110   -4.1310    8.8170 h1        1 G69      0.148700
     41 H27         8.2880   -2.6780   10.0290 hc        1 G69      0.079700
     42 H27A        7.6860   -4.0600   11.0640 hc        1 G69      0.079700
     43 H27B        9.3790   -3.4530   11.2360 hc        1 G69      0.079700
     44 H31        10.6620   -5.3970   10.6950 hc        1 G69      0.079700
     45 H31A       10.1340   -6.5410    9.3980 hc        1 G69      0.079700
     46 H31B        9.1070   -6.2960   10.8960 hc        1 G69      0.079700
     47 H37         4.8350   -4.9760    7.7730 hc        1 G69      0.094700
     48 H37A        4.8330   -5.4500    6.0250 hc        1 G69      0.094700
     49 H41         2.1340   -4.2710    7.0460 ha        1 G69      0.154000
     50 H43         0.8910   -2.2490    6.2930 ha        1 G69      0.152000
     51 H222        7.8920   -3.0980    7.5770 hn        1 G69      0.454300
@<TRIPOS>BOND
     1    1    2 1   
     2    1   29 1   
     3    2    3 1   
     4    2   30 1   
     5    2   31 1   
     6    3    4 2   
     7    3   24 1   
     8    4    5 1   
     9    4   32 1   
    10    5    6 1   
    11    5   23 1   
    12    6    7 1   
    13    6   33 1   
    14    6   34 1   
    15    7    8 ar  
    16    7   22 ar  
    17    8    9 ar  
    18    8   35 1   
    19    9   10 1   
    20    9   20 ar  
    21   10   11 1   
    22   10   36 1   
    23   10   37 1   
    24   11   12 1   
    25   11   19 1   
    26   11   38 1   
    27   12   13 1   
    28   12   39 1   
    29   12   51 1   
    30   13   14 1   
    31   13   17 2   
    32   13   18 2   
    33   14   15 1   
    34   14   16 1   
    35   14   40 1   
    36   15   41 1   
    37   15   42 1   
    38   15   43 1   
    39   16   44 1   
    40   16   45 1   
    41   16   46 1   
    42   19   20 1   
    43   19   47 1   
    44   19   48 1   
    45   20   21 ar  
    46   21   22 ar  
    47   21   49 1   
    48   22   50 1   
    49   23   24 2   
    50   24   25 1   
    51   25   26 1   
    52   25   27 1   
    53   25   28 1   
@<TRIPOS>SUBSTRUCTURE
     1 G69         1 TEMP              0 ****  ****    0 ROOT
