@<TRIPOS>MOLECULE
G69
   50    47     1     0     0
SMALL
bcc


@<TRIPOS>ATOM
      1 O1         -7.9340    2.3280   -1.5210 oh        1 G69     -0.320000
      2 C3         -6.5970    2.6690   -1.7070 c3        1 G69      0.046000
      3 C6         -5.7140    1.4760   -1.3560 c2        1 G69     -0.170000
      4 C7         -5.0230    1.2910   -0.1660 c1        1 G69     -0.152500
      5 N9         -4.3410    0.1370   -0.2590 n2        1 G69     -0.063000
      6 C10        -3.5660   -0.4760    0.7870 c2        1 G69      0.034000
      7 C13        -2.1230   -0.0110    0.6890 c2        1 G69     -0.119000
      8 C14        -1.1490   -0.8520    0.1060 c1        1 G69     -0.086000
      9 C16         0.1960   -0.4610    0.0910 c1        1 G69     -0.079000
     10 C17         1.4850   -1.1980   -0.3810 c3        1 G69     -0.138000
     11 C20         2.6350   -0.3020   -0.1430 c3        1 G69      0.041000
     12 N22         3.6160   -0.9680    0.7240 n3        1 G69     -0.890000
     13 S24         5.2550   -0.9620    0.3020 s4        1 G69      2.012800
     14 C25         6.2270   -1.7530    1.5780 c2        1 G69     -0.772000
     15 C27         7.3780   -2.4780    0.9590 c3        1 G69     -0.195500
     16 C31         6.7540   -0.6850    2.5440 c3        1 G69     -0.195500
     17 O35         5.7230    0.3810    0.0480 o         1 G69     -0.534400
     18 O36         5.4690   -1.5850   -0.9950 o         1 G69     -0.534400
     19 C37         2.1280    0.9240    0.5170 c3        1 G69     -0.142000
     20 C40         0.5820    0.7840    0.6620 c2        1 G69     -0.067000
     21 C41        -0.3890    1.6240    1.2440 c2        1 G69     -0.119000
     22 C43        -1.7390    1.2310    1.2590 c2        1 G69     -0.111000
     23 N45        -4.5970   -0.4100   -1.5010 n2        1 G69     -0.063000
     24 C46        -5.4410    0.4220   -2.1640 c1        1 G69     -0.152500
     25 C47        -5.9930    0.2040   -3.5750 c2        1 G69      0.512000
     26 F48        -5.5300   -0.9430   -4.0590 f         1 G69     -0.161000
     27 F49        -7.3400    0.1640   -3.5290 f         1 G69     -0.161000
     28 F50        -5.6010    1.2150   -4.3700 f         1 G69     -0.161000
     29 HO1        -8.4330    3.0600   -1.5460 ho        1 G69      0.209000
     30 H3         -6.4510    2.9210   -2.6480 h1        1 G69      0.098000
     31 H3A        -6.3700    3.4210   -1.1310 h1        1 G69      0.098000
     32 H7         -5.0870    1.8610    0.6330 DU        1 G69      0.187000
     33 H10        -3.6030   -1.4620    0.6880 ha        1 G69      0.119500
     34 H10A       -3.9300   -0.2230    1.6530 ha        1 G69      0.119500
     35 H14        -1.3970   -1.7450   -0.1980 ha        1 G69      0.156000
     36 H17         1.4170   -1.4030   -1.3340 hc        1 G69      0.111500
     37 H17A        1.5990   -2.0340    0.1350 hc        1 G69      0.111500
     38 H20         3.0610   -0.0660   -1.0060 h1        1 G69      0.120000
     39 HN22        3.3370   -1.4080    1.4780 hn        1 G69      0.245000
     40 H25         5.6590   -2.3990    2.0740 ha        1 G69      0.143000
     41 H27         7.0510   -3.0570    0.2320 hc        1 G69      0.091000
     42 H27A        8.0260   -1.8220    0.5930 hc        1 G69      0.091000
     43 H27B        7.8190   -3.0280    1.6400 hc        1 G69      0.091000
     44 H31         7.4470   -0.1410    2.0900 hc        1 G69      0.091000
     45 H31A        6.0210   -0.1090    2.8190 hc        1 G69      0.091000
     46 H31B        7.1440   -1.1200    3.3350 hc        1 G69      0.091000
     47 H37         2.5290    1.0010    1.4070 hc        1 G69      0.103500
     48 H37A        2.3290    1.7010   -0.0490 hc        1 G69      0.103500
     49 H41        -0.1210    2.4850    1.6400 ha        1 G69      0.139000
     50 H43        -2.4170    1.8020    1.7100 ha        1 G69      0.132000
@<TRIPOS>BOND
     1    1    2 1   
     2    1   29 1   
     3    2    3 1   
     4    2   30 1   
     5    2   31 1   
     6    3    4 1   
     7    3   24 1   
     8    4    5 1   
     9    5   23 1   
    10    6    7 1   
    11    6   33 1   
    12    6   34 1   
    13    7    8 1   
    14    7   22 1   
    15    8   35 1   
    16    9   10 1   
    17    9   20 1   
    18   10   11 1   
    19   10   36 1   
    20   10   37 1   
    21   11   12 1   
    22   11   19 1   
    23   11   38 1   
    24   12   13 1   
    25   12   39 1   
    26   13   17 1   
    27   13   18 1   
    28   14   15 1   
    29   14   16 1   
    30   14   40 1   
    31   15   41 1   
    32   15   42 1   
    33   15   43 1   
    34   16   44 1   
    35   16   45 1   
    36   16   46 1   
    37   19   20 1   
    38   19   47 1   
    39   19   48 1   
    40   20   21 1   
    41   21   22 1   
    42   21   49 1   
    43   22   50 1   
    44   23   24 1   
    45   25   26 1   
    46   25   27 1   
    47   25   28 1   
@<TRIPOS>SUBSTRUCTURE
     1 G69         1 TEMP              0 ****  ****    0 ROOT
