@<TRIPOS>MOLECULE
G69
   50    52     1     0     0
SMALL
bcc


@<TRIPOS>ATOM
      1 O1         -6.5780   -1.2680   -1.7820 oh        1 G69     -0.603800
      2 C3         -6.2170   -0.0080   -1.2260 c3        1 G69      0.205700
      3 C6         -5.1050   -0.2150   -0.2850 cc        1 G69     -0.208600
      4 C7         -4.4490   -1.4120    0.0360 cd        1 G69     -0.109300
      5 N9         -3.4740   -1.0930    0.9950 na        1 G69      0.105400
      6 C10        -2.5240   -2.0520    1.5460 c3        1 G69      0.102600
      7 C13        -1.2010   -2.0800    0.8400 ca        1 G69     -0.126300
      8 C14        -0.3450   -0.9700    0.9230 ca        1 G69     -0.086000
      9 C16         0.8860   -1.0300    0.2900 ca        1 G69     -0.090300
     10 C17         1.9400    0.0190    0.2410 c3        1 G69     -0.055100
     11 C20         3.0790   -0.5780   -0.6450 c3        1 G69      0.236500
     12 N22         4.3780   -0.5110   -0.0360 n3        1 G69     -0.917100
     13 S24         5.6270    0.3360   -0.6070 s6        1 G69      1.441900
     14 C25         5.4750    1.8690    0.2050 c3        1 G69     -0.273900
     15 C27         5.5380    1.7460    1.7080 c3        1 G69     -0.077100
     16 C31         6.5720    2.7860   -0.2910 c3        1 G69     -0.077100
     17 O35         6.8270   -0.2770   -0.1860 o         1 G69     -0.647800
     18 O36         5.4730    0.5740   -1.9900 o         1 G69     -0.647800
     19 C37         2.6340   -2.0280   -1.0100 c3        1 G69     -0.052100
     20 C40         1.2770   -2.1870   -0.4200 ca        1 G69     -0.072300
     21 C41         0.4310   -3.2820   -0.5000 ca        1 G69     -0.119000
     22 C43        -0.8160   -3.2200    0.1330 ca        1 G69     -0.109000
     23 N45        -3.4570    0.2110    1.2760 nd        1 G69     -0.458800
     24 C46        -4.4430    0.7860    0.5250 cc        1 G69      0.211600
     25 C47        -4.7400    2.2670    0.5950 c3        1 G69      0.632600
     26 F48        -5.7480    2.6800   -0.2430 f         1 G69     -0.232967
     27 F49        -5.1320    2.7060    1.8350 f         1 G69     -0.232967
     28 F50        -3.6780    3.0720    0.2670 f         1 G69     -0.232967
     29 HO1        -7.2960   -1.0900   -2.4000 ho        1 G69      0.408000
     30 H3         -5.9010    0.6970   -2.0460 h1        1 G69      0.044200
     31 H3A        -7.0990    0.4400   -0.6890 h1        1 G69      0.044200
     32 H7         -4.6160   -2.4240   -0.3350 h4        1 G69      0.197000
     33 H10        -2.3530   -1.8000    2.6340 h1        1 G69      0.078200
     34 H10A       -3.0200   -3.0630    1.4850 h1        1 G69      0.078200
     35 H14        -0.6540   -0.0700    1.4760 ha        1 G69      0.154000
     36 H17         1.5500    0.9580   -0.2270 hc        1 G69      0.064700
     37 H17A        2.2950    0.2730    1.2720 hc        1 G69      0.064700
     38 H20         3.1260    0.0190   -1.6060 h1        1 G69      0.080700
     39 HN22        4.4600   -1.0640    0.7850 hn        1 G69      0.450800
     40 H25         4.4920    2.3490   -0.0620 h1        1 G69      0.105700
     41 H27         6.4380    1.1550    2.0120 hc        1 G69      0.051700
     42 H27A        5.6100    2.7560    2.1790 hc        1 G69      0.051700
     43 H27B        4.6210    1.2460    2.1070 hc        1 G69      0.051700
     44 H31         6.5190    2.8890   -1.4030 hc        1 G69      0.051700
     45 H31A        6.4660    3.8010    0.1630 hc        1 G69      0.051700
     46 H31B        7.5750    2.3800   -0.0080 hc        1 G69      0.051700
     47 H37         2.6070   -2.1440   -2.1230 hc        1 G69      0.069700
     48 H37A        3.3330   -2.8030   -0.6040 hc        1 G69      0.069700
     49 H41         0.7280   -4.1850   -1.0530 ha        1 G69      0.141000
     50 H43        -1.4950   -4.0850    0.0680 ha        1 G69      0.132000
@<TRIPOS>BOND
     1    1    2 1   
     2    1   29 1   
     3    2    3 1   
     4    2   30 1   
     5    2   31 1   
     6    3    4 2   
     7    3   24 1   
     8    4    5 1   
     9    4   32 1   
    10    5    6 1   
    11    5   23 1   
    12    6    7 1   
    13    6   33 1   
    14    6   34 1   
    15    7    8 ar  
    16    7   22 ar  
    17    8    9 ar  
    18    8   35 1   
    19    9   10 1   
    20    9   20 ar  
    21   10   11 1   
    22   10   36 1   
    23   10   37 1   
    24   11   12 1   
    25   11   19 1   
    26   11   38 1   
    27   12   13 1   
    28   12   39 1   
    29   13   14 1   
    30   13   17 2   
    31   13   18 2   
    32   14   15 1   
    33   14   16 1   
    34   14   40 1   
    35   15   41 1   
    36   15   42 1   
    37   15   43 1   
    38   16   44 1   
    39   16   45 1   
    40   16   46 1   
    41   19   20 1   
    42   19   47 1   
    43   19   48 1   
    44   20   21 ar  
    45   21   22 ar  
    46   21   49 1   
    47   22   50 1   
    48   23   24 2   
    49   24   25 1   
    50   25   26 1   
    51   25   27 1   
    52   25   28 1   
@<TRIPOS>SUBSTRUCTURE
     1 G69         1 TEMP              0 ****  ****    0 ROOT
