@<TRIPOS>MOLECULE
G6A
   47    50     1     0     0
SMALL
bcc


@<TRIPOS>ATOM
      1 C26         7.8010   -1.5420   -0.7150 c3        1 G6A     -0.124400
      2 C23        -7.8780   -1.0260    0.3170 cx        1 G6A     -0.153900
      3 C22        -7.2890   -1.1800    1.6900 cx        1 G6A     -0.153900
      4 C19        -6.4140   -1.3930    0.4690 cx        1 G6A      0.054700
      5 C25         6.6950   -1.0520    0.1180 cc        1 G6A      0.457700
      6 O21         5.4530   -0.8420   -0.5040 os        1 G6A     -0.394800
      7 N24         6.5900   -0.7390    1.4260 nd        1 G6A     -0.348000
      8 N20         5.3560   -0.3410    1.6820 nd        1 G6A     -0.346000
      9 C18         4.6280   -0.3860    0.5430 cc        1 G6A      0.513900
     10 C15         3.2480   -0.0660    0.2490 ca        1 G6A     -0.131500
     11 C12         2.7570   -0.1770   -1.0600 ca        1 G6A     -0.101000
     12 C6          1.4290    0.1360   -1.3270 ca        1 G6A     -0.121000
     13 C10         2.3990    0.3540    1.2810 ca        1 G6A     -0.087000
     14 C5          1.0610    0.6670    1.0140 ca        1 G6A     -0.067300
     15 C11         0.1810    1.1160    2.1180 c3        1 G6A     -0.056800
     16 C2          0.5730    0.5590   -0.3000 cp        1 G6A     -0.021000
     17 C1         -0.8270    0.8650   -0.6180 cp        1 G6A     -0.057000
     18 C3         -1.8120   -0.0920   -0.3490 ca        1 G6A     -0.062000
     19 C7         -3.1520    0.1670   -0.6530 ca        1 G6A     -0.149600
     20 C13        -4.1560   -0.8970   -0.3590 c         1 G6A      0.678700
     21 O17        -3.8970   -2.1050   -0.5290 o         1 G6A     -0.598100
     22 N16        -5.3840   -0.4810    0.1230 n         1 G6A     -0.542900
     23 C14        -3.5100    1.3810   -1.2460 ca        1 G6A     -0.098000
     24 C8         -2.5310    2.3320   -1.5170 ca        1 G6A     -0.142000
     25 C4         -1.1870    2.0920   -1.2060 ca        1 G6A     -0.036300
     26 C9         -0.1670    3.1280   -1.4900 c3        1 G6A     -0.061800
     27 H26         8.6510   -0.8150   -0.6800 hc        1 G6A      0.074033
     28 H26A        8.1560   -2.5300   -0.3270 hc        1 G6A      0.074033
     29 H26B        7.4630   -1.6620   -1.7740 hc        1 G6A      0.074033
     30 H23A       -8.1600   -0.0160   -0.0280 hc        1 G6A      0.073950
     31 H22        -7.1550   -0.2790    2.3130 hc        1 G6A      0.073950
     32 H22A       -7.5530   -2.0630    2.2970 hc        1 G6A      0.073950
     33 H19        -6.1160   -2.4410    0.2250 h1        1 G6A      0.122700
     34 H12         3.4240   -0.5120   -1.8690 ha        1 G6A      0.150000
     35 H6          1.0420    0.0480   -2.3540 ha        1 G6A      0.145000
     36 H10         2.7820    0.4390    2.3110 ha        1 G6A      0.159000
     37 H11        -0.0090    2.2160    2.0320 hc        1 G6A      0.050700
     38 H11A       -0.8040    0.5880    2.0710 hc        1 G6A      0.050700
     39 H11B        0.6450    0.9150    3.1150 hc        1 G6A      0.050700
     40 H3         -1.5360   -1.0640    0.0940 ha        1 G6A      0.161000
     41 HN16       -5.5370    0.4820    0.3030 hn        1 G6A      0.310500
     42 H14        -4.5560    1.5880   -1.5180 ha        1 G6A      0.137000
     43 H8         -2.8150    3.2860   -1.9880 ha        1 G6A      0.138000
     44 H9          0.7360    2.6670   -1.9650 hc        1 G6A      0.052033
     45 H9A        -0.5670    3.9160   -2.1740 hc        1 G6A      0.052033
     46 H9B         0.1550    3.6170   -0.5360 hc        1 G6A      0.052033
     47 H23        -8.5670   -1.7970   -0.0680 hc        1 G6A      0.073950
@<TRIPOS>BOND
     1    1    5 1   
     2    1   27 1   
     3    1   28 1   
     4    1   29 1   
     5    2    3 1   
     6    2    4 1   
     7    2   30 1   
     8    2   47 1   
     9    3    4 1   
    10    3   31 1   
    11    3   32 1   
    12    4   22 1   
    13    4   33 1   
    14    5    6 1   
    15    5    7 2   
    16    6    9 1   
    17    7    8 1   
    18    8    9 2   
    19    9   10 1   
    20   10   11 ar  
    21   10   13 ar  
    22   11   12 ar  
    23   11   34 1   
    24   12   16 ar  
    25   12   35 1   
    26   13   14 ar  
    27   13   36 1   
    28   14   15 1   
    29   14   16 ar  
    30   15   37 1   
    31   15   38 1   
    32   15   39 1   
    33   16   17 1   
    34   17   18 ar  
    35   17   25 ar  
    36   18   19 ar  
    37   18   40 1   
    38   19   20 1   
    39   19   23 ar  
    40   20   21 2   
    41   20   22 1   
    42   22   41 1   
    43   23   24 ar  
    44   23   42 1   
    45   24   25 ar  
    46   24   43 1   
    47   25   26 1   
    48   26   44 1   
    49   26   45 1   
    50   26   46 1   
@<TRIPOS>SUBSTRUCTURE
     1 G6A         1 TEMP              0 ****  ****    0 ROOT
