@<TRIPOS>MOLECULE
G6A
   48    51     1     0     0
SMALL
bcc


@<TRIPOS>ATOM
      1 C26         0.3540    0.0080   -0.0010 c3        1 G6A     -0.131400
      2 C23        12.8120   -4.4090    7.0780 cx        1 G6A     -0.101900
      3 C22        12.1610   -4.2550    5.7390 cx        1 G6A     -0.101900
      4 C19        11.3850   -3.9070    6.9920 cx        1 G6A     -0.002500
      5 C25         1.8000   -0.2080   -0.1570 cc        1 G6A      0.479700
      6 O21         2.6140   -0.0370    0.9750 os        1 G6A     -0.391800
      7 N24         2.5750   -0.5550   -1.2070 nd        1 G6A     -0.344000
      8 N20         3.8340   -0.6170   -0.8190 nd        1 G6A     -0.324000
      9 C18         3.9100   -0.3100    0.4960 cc        1 G6A      0.481900
     10 C15         5.0260   -0.2270    1.4140 ca        1 G6A     -0.096500
     11 C12         4.8150    0.0870    2.7650 ca        1 G6A     -0.100000
     12 C6          5.8980    0.1590    3.6320 ca        1 G6A     -0.115000
     13 C10         6.3230   -0.4630    0.9470 ca        1 G6A     -0.091000
     14 C5          7.4190   -0.3880    1.8180 ca        1 G6A     -0.059300
     15 C11         8.7700   -0.6500    1.2670 c3        1 G6A     -0.063800
     16 C2          7.2030   -0.0740    3.1690 cp        1 G6A     -0.069000
     17 C1          8.3080    0.0030    4.1330 cp        1 G6A     -0.028000
     18 C3          8.4890   -1.0530    5.0320 ca        1 G6A     -0.031000
     19 C7          9.5280   -1.0130    5.9760 ca        1 G6A     -0.220600
     20 C13         9.6400   -2.1450    6.8890 c         1 G6A      0.586700
     21 O17         8.7610   -2.8580    7.3490 o         1 G6A     -0.418100
     22 N16        11.0610   -2.5100    7.3250 ny        1 G6A     -0.647800
     23 C14        10.3720    0.1070    6.0400 ca        1 G6A     -0.092000
     24 C8         10.1830    1.1590    5.1550 ca        1 G6A     -0.132000
     25 C4          9.1600    1.1230    4.1910 ca        1 G6A      0.025700
     26 C9          8.9820    2.2630    3.2650 c3        1 G6A     -0.083800
     27 H26         0.0230    0.8340   -0.6810 hc        1 G6A      0.080700
     28 H26A        0.1160    0.2820    1.0560 hc        1 G6A      0.080700
     29 H26B       -0.1980   -0.9270   -0.2750 hc        1 G6A      0.080700
     30 H22        12.5110   -3.4540    5.0600 hc        1 G6A      0.110450
     31 H22A       11.8390   -5.1530    5.1750 hc        1 G6A      0.110450
     32 H19        10.5520   -4.5760    7.3190 hx        1 G6A      0.158700
     33 H12         3.7930    0.2750    3.1320 ha        1 G6A      0.162000
     34 H6          5.7310    0.4040    4.6920 ha        1 G6A      0.142000
     35 H10         6.4950   -0.7110   -0.1140 ha        1 G6A      0.170000
     36 H11         9.5660   -0.5190    2.0390 hc        1 G6A      0.052367
     37 H11A        8.8260   -1.6970    0.8730 hc        1 G6A      0.052367
     38 H11B        8.9820    0.0500    0.4190 hc        1 G6A      0.052367
     39 H3          7.8080   -1.9210    4.9990 ha        1 G6A      0.170000
     40 HN16       11.1320   -2.4020    8.3440 hn        1 G6A      0.454800
     41 H14        11.1600    0.1940    6.8030 ha        1 G6A      0.128000
     42 H8         10.8380    2.0440    5.2120 ha        1 G6A      0.165000
     43 H9          8.0460    2.8210    3.5260 hc        1 G6A      0.074367
     44 H9A         8.8800    1.8930    2.2120 hc        1 G6A      0.074367
     45 H9B         9.8440    2.9740    3.3160 hc        1 G6A      0.074367
     46 H23        13.6290   -3.7180    7.3610 hc        1 G6A      0.110450
     47 H162       11.7320   -1.8800    6.8750 hn        1 G6A      0.454800
     48 H23A       12.9700   -5.4200    7.5030 hc        1 G6A      0.110450
@<TRIPOS>BOND
     1    1    5 1   
     2    1   27 1   
     3    1   28 1   
     4    1   29 1   
     5    2    3 1   
     6    2    4 1   
     7    2   46 1   
     8    2   48 1   
     9    3    4 1   
    10    3   30 1   
    11    3   31 1   
    12    4   22 1   
    13    4   32 1   
    14    5    6 1   
    15    5    7 2   
    16    6    9 1   
    17    7    8 1   
    18    8    9 2   
    19    9   10 1   
    20   10   11 ar  
    21   10   13 ar  
    22   11   12 ar  
    23   11   33 1   
    24   12   16 ar  
    25   12   34 1   
    26   13   14 ar  
    27   13   35 1   
    28   14   15 1   
    29   14   16 ar  
    30   15   36 1   
    31   15   37 1   
    32   15   38 1   
    33   16   17 1   
    34   17   18 ar  
    35   17   25 ar  
    36   18   19 ar  
    37   18   39 1   
    38   19   20 1   
    39   19   23 ar  
    40   20   21 2   
    41   20   22 1   
    42   22   40 1   
    43   22   47 1   
    44   23   24 ar  
    45   23   41 1   
    46   24   25 ar  
    47   24   42 1   
    48   25   26 1   
    49   26   43 1   
    50   26   44 1   
    51   26   45 1   
@<TRIPOS>SUBSTRUCTURE
     1 G6A         1 TEMP              0 ****  ****    0 ROOT
