@<TRIPOS>MOLECULE
G6A
   48    51     1     0     0
SMALL
bcc


@<TRIPOS>ATOM
      1 C26         0.3440    0.0350    0.0290 c3        1 G6A     -0.131400
      2 C23        12.7930   -4.4060    7.1150 cx        1 G6A     -0.101900
      3 C22        12.1370   -4.2700    5.7760 cx        1 G6A     -0.101900
      4 C19        11.3710   -3.8900    7.0260 cx        1 G6A     -0.002500
      5 C25         1.7860   -0.2010   -0.1320 cc        1 G6A      0.479700
      6 O21         2.6090   -0.0200    0.9920 os        1 G6A     -0.391800
      7 N24         2.5500   -0.5750   -1.1810 nd        1 G6A     -0.344000
      8 N20         3.8110   -0.6450   -0.7990 nd        1 G6A     -0.324000
      9 C18         3.8980   -0.3170    0.5100 cc        1 G6A      0.481900
     10 C15         5.0210   -0.2310    1.4190 ca        1 G6A     -0.096500
     11 C12         4.8210    0.1080    2.7660 ca        1 G6A     -0.100000
     12 C6          5.9110    0.1810    3.6260 ca        1 G6A     -0.115000
     13 C10         6.3120   -0.4900    0.9490 ca        1 G6A     -0.091000
     14 C5          7.4140   -0.4130    1.8120 ca        1 G6A     -0.059300
     15 C11         8.7580   -0.7010    1.2570 c3        1 G6A     -0.063800
     16 C2          7.2100   -0.0740    3.1590 cp        1 G6A     -0.069000
     17 C1          8.3220    0.0060    4.1150 cp        1 G6A     -0.028000
     18 C3          8.4960   -1.0370    5.0310 ca        1 G6A     -0.031000
     19 C7          9.5410   -0.9930    5.9680 ca        1 G6A     -0.220600
     20 C13         9.6450   -2.1100    6.9000 c         1 G6A      0.586700
     21 O17         8.7610   -2.8060    7.3750 o         1 G6A     -0.418100
     22 N16        11.0650   -2.4840    7.3340 n4        1 G6A     -0.646800
     23 C14        10.3990    0.1190    6.0080 ca        1 G6A     -0.092000
     24 C8         10.2160    1.1570    5.1060 ca        1 G6A     -0.132000
     25 C4          9.1870    1.1170    4.1490 ca        1 G6A      0.025700
     26 C9          9.0170    2.2430    3.2050 c3        1 G6A     -0.083800
     27 H26         0.1150    0.3280    1.0830 hc        1 G6A      0.080700
     28 H26A        0.0180    0.8550   -0.6620 hc        1 G6A      0.080700
     29 H26B       -0.2210   -0.8970   -0.2290 hc        1 G6A      0.080700
     30 H22        12.4930   -3.4860    5.0810 hc        1 G6A      0.110450
     31 H22A       11.8030   -5.1750    5.2300 hc        1 G6A      0.110450
     32 H19        10.5330   -4.5430    7.3690 hx        1 G6A      0.158700
     33 H12         3.8040    0.3130    3.1360 ha        1 G6A      0.162000
     34 H6          5.7530    0.4470    4.6820 ha        1 G6A      0.142000
     35 H10         6.4740   -0.7580   -0.1090 ha        1 G6A      0.170000
     36 H11         8.9730   -0.0180    0.3970 hc        1 G6A      0.052367
     37 H11A        8.8010   -1.7540    0.8810 hc        1 G6A      0.052367
     38 H11B        9.5610   -0.5660    2.0230 hc        1 G6A      0.052367
     39 H3          7.8050   -1.8980    5.0170 ha        1 G6A      0.170000
     40 HN16       11.1430   -2.3580    8.3510 hn        1 G6A      0.454800
     41 H14        11.1920    0.2090    6.7650 ha        1 G6A      0.128000
     42 H8         10.8820    2.0360    5.1450 ha        1 G6A      0.165000
     43 H9          8.9040    1.8560    2.1590 hc        1 G6A      0.074367
     44 H9A         8.0880    2.8170    3.4620 hc        1 G6A      0.074367
     45 H9B         9.8860    2.9450    3.2390 hc        1 G6A      0.074367
     46 H23        12.9410   -5.4110    7.5570 hc        1 G6A      0.110450
     47 H162       11.7400   -1.8690    6.8690 hn        1 G6A      0.454800
     48 H23A       13.6190   -3.7200    7.3810 hc        1 G6A      0.110450
@<TRIPOS>BOND
     1    1    5 1   
     2    1   27 1   
     3    1   28 1   
     4    1   29 1   
     5    2    3 1   
     6    2    4 1   
     7    2   46 1   
     8    2   48 1   
     9    3    4 1   
    10    3   30 1   
    11    3   31 1   
    12    4   22 1   
    13    4   32 1   
    14    5    6 1   
    15    5    7 2   
    16    6    9 1   
    17    7    8 1   
    18    8    9 2   
    19    9   10 1   
    20   10   11 ar  
    21   10   13 ar  
    22   11   12 ar  
    23   11   33 1   
    24   12   16 ar  
    25   12   34 1   
    26   13   14 ar  
    27   13   35 1   
    28   14   15 1   
    29   14   16 ar  
    30   15   36 1   
    31   15   37 1   
    32   15   38 1   
    33   16   17 1   
    34   17   18 ar  
    35   17   25 ar  
    36   18   19 ar  
    37   18   39 1   
    38   19   20 1   
    39   19   23 ar  
    40   20   21 2   
    41   20   22 1   
    42   22   40 1   
    43   22   47 1   
    44   23   24 ar  
    45   23   41 1   
    46   24   25 ar  
    47   24   42 1   
    48   25   26 1   
    49   26   43 1   
    50   26   44 1   
    51   26   45 1   
@<TRIPOS>SUBSTRUCTURE
     1 G6A         1 TEMP              0 ****  ****    0 ROOT
