@<TRIPOS>MOLECULE
G6D
   23    23     1     0     0
SMALL
bcc


@<TRIPOS>ATOM
      1 C1         -0.9440   -0.5560   -1.4040 c3        1 G6D      0.304900
      2 O2          1.0350   -1.7290   -2.0980 oh        1 G6D     -0.593800
      3 C2          0.5700   -0.5560   -1.4040 c3        1 G6D      0.096100
      4 C3A         1.1330   -0.5560   -0.0320 c3        1 G6D      0.073100
      5 O3A         2.5710   -0.3720   -0.1150 oh        1 G6D     -0.606800
      6 C4A         0.5570    0.5300    0.8150 c3        1 G6D      0.125100
      7 O4A         1.0100    0.3550    2.1630 oh        1 G6D     -0.595800
      8 C5A        -0.9620    0.5260    0.8040 c3        1 G6D      0.145100
      9 O5         -1.5130    0.5220   -0.5520 os        1 G6D     -0.443600
     10 C6A        -1.4540    1.7430    1.5210 c3        1 G6D     -0.089100
     11 O1         -1.3900   -1.7760   -0.9380 oh        1 G6D     -0.639800
     12 H1         -1.2590   -0.4330   -2.3200 h2        1 G6D      0.084700
     13 HO2         1.3740   -1.4930   -2.8840 ho        1 G6D      0.422000
     14 HC2         0.8860    0.2380   -1.8760 h1        1 G6D      0.099700
     15 HCA3        0.9470   -1.4170    0.3870 h1        1 G6D      0.064700
     16 HOA3        2.9800   -1.0880    0.2140 ho        1 G6D      0.423000
     17 HCA4        0.8730    1.3910    0.4840 h1        1 G6D      0.058700
     18 HOA4        1.6420    0.9520    2.3430 ho        1 G6D      0.424000
     19 HCA5       -1.2790   -0.2680    1.2750 h1        1 G6D      0.062700
     20 HC61       -1.1790    1.7020    2.4570 hc        1 G6D      0.052700
     21 HC62       -2.4280    1.7800    1.4690 hc        1 G6D      0.052700
     22 HC63       -1.0750    2.5410    1.1060 hc        1 G6D      0.052700
     23 HO1        -2.0930   -2.0350   -1.4140 ho        1 G6D      0.428000
@<TRIPOS>BOND
     1    1    3 1   
     2    1    9 1   
     3    1   11 1   
     4    1   12 1   
     5    2    3 1   
     6    2   13 1   
     7    3    4 1   
     8    3   14 1   
     9    4    5 1   
    10    4    6 1   
    11    4   15 1   
    12    5   16 1   
    13    6    7 1   
    14    6    8 1   
    15    6   17 1   
    16    7   18 1   
    17    8    9 1   
    18    8   10 1   
    19    8   19 1   
    20   10   20 1   
    21   10   21 1   
    22   10   22 1   
    23   11   23 1   
@<TRIPOS>SUBSTRUCTURE
     1 G6D         1 TEMP              0 ****  ****    0 ROOT
