@<TRIPOS>MOLECULE
G6D
   23    23     1     0     0
SMALL
bcc


@<TRIPOS>ATOM
      1 C1          1.4580   -0.3950   -0.7710 c3        1 G6D      0.304900
      2 O2         -0.0610   -0.2660   -2.6720 oh        1 G6D     -0.593800
      3 C2          0.0390   -0.6350   -1.3130 c3        1 G6D      0.096100
      4 C3A        -0.9950    0.1270   -0.4740 c3        1 G6D      0.073100
      5 O3A        -2.3140   -0.2750   -0.8030 oh        1 G6D     -0.606800
      6 C4A        -0.7950   -0.1880    1.0170 c3        1 G6D      0.125100
      7 O4A        -1.6600    0.6040    1.8130 oh        1 G6D     -0.595800
      8 C5A         0.6450    0.1690    1.4220 c3        1 G6D      0.145100
      9 O5          1.5810   -0.5680    0.6230 os        1 G6D     -0.443600
     10 C6A         0.9270   -0.2130    2.8600 c3        1 G6D     -0.089100
     11 O1          1.8030    0.9450   -1.0470 oh        1 G6D     -0.639800
     12 H1          2.1980   -1.1180   -1.2190 h2        1 G6D      0.084700
     13 HO2         0.2700    0.6400   -2.7530 ho        1 G6D      0.422000
     14 HC2        -0.1840   -1.7390   -1.2960 h1        1 G6D      0.099700
     15 HCA3       -0.8860    1.2340   -0.6500 h1        1 G6D      0.064700
     16 HOA3       -2.3800   -0.2470   -1.7670 ho        1 G6D      0.423000
     17 HCA4       -0.9990   -1.2790    1.2040 h1        1 G6D      0.058700
     18 HOA4       -2.5530    0.4560    1.4720 ho        1 G6D      0.424000
     19 HCA5        0.8140    1.2690    1.2550 h1        1 G6D      0.062700
     20 HC61        1.9510    0.1190    3.1520 hc        1 G6D      0.052700
     21 HC62        0.1700    0.2820    3.5150 hc        1 G6D      0.052700
     22 HC63        0.8610   -1.3190    2.9910 hc        1 G6D      0.052700
     23 HO1         2.6760    1.1050   -0.6670 ho        1 G6D      0.428000
@<TRIPOS>BOND
     1    1    3 1   
     2    1    9 1   
     3    1   11 1   
     4    1   12 1   
     5    2    3 1   
     6    2   13 1   
     7    3    4 1   
     8    3   14 1   
     9    4    5 1   
    10    4    6 1   
    11    4   15 1   
    12    5   16 1   
    13    6    7 1   
    14    6    8 1   
    15    6   17 1   
    16    7   18 1   
    17    8    9 1   
    18    8   10 1   
    19    8   19 1   
    20   10   20 1   
    21   10   21 1   
    22   10   22 1   
    23   11   23 1   
@<TRIPOS>SUBSTRUCTURE
     1 G6D         1 TEMP              0 ****  ****    0 ROOT
