@<TRIPOS>MOLECULE
G6G
   83    88     1     0     0
SMALL
bcc


@<TRIPOS>ATOM
      1 C1         -9.9080   -1.5680    0.4640 ca        1 G6G     -0.095500
      2 C2        -11.1860   -1.4040   -0.0450 ca        1 G6G     -0.170000
      3 C3        -11.5210   -0.2080   -0.7080 ca        1 G6G      0.123100
      4 C4        -10.5770    0.8140   -0.8460 ca        1 G6G     -0.170000
      5 C5         -9.2960    0.6500   -0.3230 ca        1 G6G     -0.095500
      6 C6         -8.9420   -0.5430    0.3350 ca        1 G6G      0.084600
      7 C8        -13.1800    1.0390   -1.8720 c3        1 G6G      0.112700
      8 C10        -6.4830   -0.6620    0.1880 ca        1 G6G      0.888900
      9 C12        -4.1780   -1.0410    0.1050 cp        1 G6G      0.756500
     10 C14        -5.2460    0.0000   -1.6450 ca        1 G6G      0.678900
     11 C41        10.8050   -1.5890   -1.5380 c3        1 G6G      0.165300
     12 C42        11.7430   -2.2480   -0.5100 c3        1 G6G      0.168300
     13 N43        12.3040   -1.2980    0.4390 n3        1 G6G     -0.733600
     14 C46        13.1630   -1.9320    1.4130 c3        1 G6G      0.157100
     15 C44        11.2800   -0.4670    1.0570 c3        1 G6G      0.168300
     16 C45        10.3430    0.1920    0.0280 c3        1 G6G      0.165300
     17 N40         9.7790   -0.7620   -0.9160 n3        1 G6G     -0.729600
     18 C36         7.6950    0.5180   -1.3430 ca        1 G6G     -0.063300
     19 C37         7.3370    1.8070   -1.7530 ca        1 G6G     -0.127000
     20 C38         6.1710    2.3990   -1.2730 ca        1 G6G     -0.094500
     21 C35         6.8750   -0.1710   -0.4420 ca        1 G6G     -0.127000
     22 C34         5.7070    0.4170    0.0380 ca        1 G6G     -0.094500
     23 C32         5.3480    1.7010   -0.3820 ca        1 G6G     -0.148600
     24 C31         4.1160    2.3820    0.1190 c         1 G6G      0.680700
     25 O33         4.1300    3.5890    0.4250 o         1 G6G     -0.586100
     26 C25         1.6980    1.9780    0.6250 ca        1 G6G      0.079600
     27 C24         0.6290    1.0770    0.4100 ca        1 G6G     -0.169000
     28 C26         1.4370    3.2070    1.2610 ca        1 G6G     -0.164000
     29 C27         0.1440    3.5110    1.6680 ca        1 G6G     -0.091000
     30 C28        -0.9200    2.6290    1.4830 ca        1 G6G     -0.140300
     31 C29        -2.2760    3.0040    1.9450 c3        1 G6G     -0.050800
     32 C23        -0.6700    1.3850    0.8440 ca        1 G6G      0.173600
     33 C21        -1.7610   -0.8430    0.9240 ca        1 G6G      0.707200
     34 N20        -0.6320   -1.4290    1.4540 nb        1 G6G     -0.726000
     35 C19        -0.6840   -2.7260    1.7740 ca        1 G6G      0.454200
     36 C18        -1.8200   -3.5410    1.6230 ca        1 G6G     -0.311300
     37 C17        -2.9660   -2.9630    1.0850 ca        1 G6G     -0.015000
     38 C16        -2.9550   -1.6150    0.7160 cp        1 G6G     -0.330800
     39 N11        -5.3420   -1.1810    0.8060 nb        1 G6G     -0.777000
     40 N13        -4.0700   -0.4490   -1.1330 nb        1 G6G     -0.751000
     41 N15        -6.4710   -0.0650   -1.0720 nb        1 G6G     -0.764000
     42 N9         -7.6670   -0.7040    0.9310 nh        1 G6G     -0.703300
     43 O7        -12.8160   -0.1510   -1.1820 os        1 G6G     -0.324900
     44 H1         -9.6550   -2.5100    0.9780 ha        1 G6G      0.145000
     45 H2        -11.9410   -2.1960    0.0560 ha        1 G6G      0.147500
     46 H4        -10.8280    1.7520   -1.3610 ha        1 G6G      0.147500
     47 H5         -8.5660    1.4670   -0.4350 ha        1 G6G      0.145000
     48 H8        -12.5420    1.1810   -2.7780 h1        1 G6G      0.046367
     49 H8A       -14.2450    0.8540   -2.1640 h1        1 G6G      0.046367
     50 H8B       -13.1050    1.9250   -1.1960 h1        1 G6G      0.046367
     51 H14        -5.2020    0.4710   -2.6510 h5        1 G6G      0.060100
     52 H41        11.4290   -0.9980   -2.2710 h1        1 G6G      0.039950
     53 H41A       10.2880   -2.4110   -2.1080 h1        1 G6G      0.039950
     54 H42        11.1810   -3.0770    0.0120 h1        1 G6G      0.037200
     55 H42A       12.5980   -2.7140   -1.0750 h1        1 G6G      0.037200
     56 H46        13.9770   -2.4810    0.8720 h1        1 G6G      0.032367
     57 H46A       13.6270   -1.1380    2.0550 h1        1 G6G      0.032367
     58 H46B       12.6230   -2.6600    2.0790 h1        1 G6G      0.032367
     59 H44        10.6550   -1.0540    1.7930 h1        1 G6G      0.037200
     60 H44A       11.8010    0.3540    1.6240 h1        1 G6G      0.037200
     61 H45         9.4870    0.6630    0.5880 h1        1 G6G      0.039950
     62 H45A       10.9090    1.0150   -0.4990 h1        1 G6G      0.039950
     63 H39         9.4960    0.6410   -2.5170 h1        1 G6G      0.042700
     64 H39A        8.5840   -0.9320   -2.6290 h1        1 G6G      0.042700
     65 H37         7.9790    2.3620   -2.4540 ha        1 G6G      0.145500
     66 H38         5.8940    3.4200   -1.5800 ha        1 G6G      0.146500
     67 H35         7.1600   -1.1810   -0.1060 ha        1 G6G      0.145500
     68 H34         5.0840   -0.1320    0.7620 ha        1 G6G      0.146500
     69 HN30        3.0560    0.6530   -0.1320 hn        1 G6G      0.321500
     70 H24         0.8160    0.1190   -0.1020 ha        1 G6G      0.149000
     71 H26         2.2450    3.9360    1.4370 ha        1 G6G      0.173000
     72 H27        -0.0420    4.4800    2.1600 ha        1 G6G      0.135000
     73 H29        -2.9700    3.1300    1.0750 hc        1 G6G      0.042367
     74 H29A       -2.6970    2.2210    2.6240 hc        1 G6G      0.042367
     75 H29B       -2.2540    3.9710    2.5070 hc        1 G6G      0.042367
     76 HN22       -2.6330    0.9450    0.4850 hn        1 G6G      0.443800
     77 H19         0.2540   -3.1380    2.1920 h4        1 G6G      0.022100
     78 H18        -1.7970   -4.5960    1.9190 ha        1 G6G      0.147000
     79 H17        -3.8790   -3.5630    0.9470 ha        1 G6G      0.147000
     80 HN9        -7.6520   -1.3010    1.7340 hn        1 G6G      0.447800
     81 N22        -1.7430    0.5060    0.5800 nh        1 G6G     -0.730300
     82 N30         2.9800    1.5890    0.2000 n         1 G6G     -0.467100
     83 C39         8.9250   -0.1270   -1.9130 c3        1 G6G      0.210100
@<TRIPOS>BOND
     1    1    2 ar  
     2    1    6 ar  
     3    1   44 1   
     4    2    3 ar  
     5    2   45 1   
     6    3    4 ar  
     7    3   43 1   
     8    4    5 ar  
     9    4   46 1   
    10    5    6 ar  
    11    5   47 1   
    12    6   42 1   
    13    7   43 1   
    14    7   48 1   
    15    7   49 1   
    16    7   50 1   
    17    8   39 ar  
    18    8   41 ar  
    19    8   42 1   
    20    9   38 1   
    21    9   39 ar  
    22    9   40 ar  
    23   10   40 ar  
    24   10   41 ar  
    25   10   51 1   
    26   11   12 1   
    27   11   17 1   
    28   11   52 1   
    29   11   53 1   
    30   12   13 1   
    31   12   54 1   
    32   12   55 1   
    33   13   14 1   
    34   13   15 1   
    35   14   56 1   
    36   14   57 1   
    37   14   58 1   
    38   15   16 1   
    39   15   59 1   
    40   15   60 1   
    41   16   17 1   
    42   16   61 1   
    43   16   62 1   
    44   17   83 1   
    45   18   19 ar  
    46   18   21 ar  
    47   18   83 1   
    48   19   20 ar  
    49   19   65 1   
    50   20   23 ar  
    51   20   66 1   
    52   21   22 ar  
    53   21   67 1   
    54   22   23 ar  
    55   22   68 1   
    56   23   24 1   
    57   24   25 2   
    58   24   82 1   
    59   26   27 ar  
    60   26   28 ar  
    61   26   82 1   
    62   27   32 ar  
    63   27   70 1   
    64   28   29 ar  
    65   28   71 1   
    66   29   30 ar  
    67   29   72 1   
    68   30   31 1   
    69   30   32 ar  
    70   31   73 1   
    71   31   74 1   
    72   31   75 1   
    73   32   81 1   
    74   33   34 ar  
    75   33   38 ar  
    76   33   81 1   
    77   34   35 ar  
    78   35   36 ar  
    79   35   77 1   
    80   36   37 ar  
    81   36   78 1   
    82   37   38 ar  
    83   37   79 1   
    84   42   80 1   
    85   63   83 1   
    86   64   83 1   
    87   69   82 1   
    88   76   81 1   
@<TRIPOS>SUBSTRUCTURE
     1 G6G         1 TEMP              0 ****  ****    0 ROOT
