@<TRIPOS>MOLECULE
G6G
   83    75     1     0     0
SMALL
bcc


@<TRIPOS>ATOM
      1 C1          3.0870    8.2300    0.4820 c1        1 G6G     -0.124000
      2 C2          3.2730    9.1120    1.5430 c1        1 G6G     -0.144000
      3 C3          4.4680    9.7920    1.6750 c1        1 G6G      0.078000
      4 C4          5.4820    9.5960    0.7510 c1        1 G6G     -0.130250
      5 C5          5.2980    8.7160   -0.3100 c1        1 G6G     -0.130250
      6 C6          4.1030    8.0350   -0.4430 c1        1 G6G      0.003000
      7 C8          5.2950   10.2010    3.8650 c3        1 G6G     -0.077000
      8 C10         3.9110    5.9230   -1.7630 c1        1 G6G      0.175000
      9 C12         3.3100    3.8970   -2.7770 c1        1 G6G      0.140000
     10 C14         4.7970    3.9210   -0.9700 c1        1 G6G      0.024000
     11 C41        -5.8300   -5.1670    3.1580 c3        1 G6G     -0.071000
     12 C42        -5.3000   -5.4590    4.5610 c3        1 G6G     -0.068500
     13 N43        -5.5680   -6.8010    4.9770 n3        1 G6G     -0.259000
     14 C46        -4.9180   -7.0480    6.2370 c3        1 G6G     -0.119000
     15 C44        -5.1430   -7.7540    4.0360 c3        1 G6G     -0.068500
     16 C45        -5.6750   -7.4610    2.6310 c3        1 G6G     -0.071000
     17 N40        -5.4070   -6.1160    2.2170 n3        1 G6G     -0.255000
     18 C39        -6.0440   -5.8600    0.9590 c3        1 G6G     -0.034000
     19 C36        -4.9770   -5.2990   -0.0650 c2        1 G6G     -0.056000
     20 C37        -4.1380   -6.1790   -0.7190 c2        1 G6G     -0.117000
     21 C38        -3.0310   -5.7060   -1.4020 c1        1 G6G     -0.082000
     22 C35        -4.7070   -3.9330   -0.0940 c1        1 G6G     -0.137000
     23 C34        -3.5990   -3.4590   -0.7780 c1        1 G6G     -0.107000
     24 C32        -2.7590   -4.3410   -1.4320 c1        1 G6G     -0.127000
     25 C31        -1.3750   -3.8570   -1.9080 c2        1 G6G      0.354000
     26 O33        -0.5310   -4.6770   -2.2510 o         1 G6G     -0.346000
     27 N30        -0.9960   -2.4990   -1.6970 n         1 G6G     -0.321000
     28 C25         0.3640   -2.1030   -1.8840 c2        1 G6G      0.086000
     29 C24         0.6510   -0.9410   -2.5800 c2        1 G6G     -0.169000
     30 C26         1.3790   -2.7620   -1.1780 c1        1 G6G     -0.165000
     31 C27         2.6900   -2.2420   -1.1770 c1        1 G6G     -0.092000
     32 C28         2.9720   -1.0930   -1.8650 c1        1 G6G     -0.130000
     33 C29         4.4230   -0.5380   -1.8890 c2        1 G6G     -0.178000
     34 C23         1.9490   -0.4270   -2.5780 c2        1 G6G      0.078000
     35 N22         2.2980    1.0040   -2.5280 n3        1 G6G     -0.242000
     36 C21         2.0030    1.8640   -3.6620 c2        1 G6G      0.163000
     37 N20         1.2320    1.4080   -4.6710 n2        1 G6G     -0.191000
     38 C19         0.9390    2.2250   -5.7380 c1        1 G6G     -0.017000
     39 C18         1.4320    3.5100   -5.7790 c1        1 G6G     -0.130250
     40 C17         2.2140    3.9750   -4.7560 c1        1 G6G     -0.130250
     41 C16         2.5040    3.1660   -3.7000 c1        1 G6G     -0.142000
     42 N11         3.2090    5.2300   -2.7110 n1        1 G6G     -0.249000
     43 N13         4.1050    3.2370   -1.9060 n1        1 G6G     -0.253000
     44 N15         4.6970    5.2680   -0.9030 n1        1 G6G     -0.239000
     45 N9          3.7860    7.3580   -1.6760 n3        1 G6G     -0.223000
     46 O7          4.6430   10.7320    2.7370 os        1 G6G     -0.208000
     47 H1          2.2530    7.7560    0.3900 ha        1 G6G      0.137000
     48 H2          2.5410    9.2530    2.2100 ha        1 G6G      0.153000
     49 H4          6.3070   10.0660    0.8430 ha        1 G6G      0.148500
     50 H5          6.0100    8.5800   -0.9580 ha        1 G6G      0.148500
     51 H8          6.0710    9.7060    3.5830 h1        1 G6G      0.085333
     52 H8A         5.5760   10.9430    4.4670 h1        1 G6G      0.085333
     53 H8B         4.6810    9.6010    4.3470 h1        1 G6G      0.085333
     54 H14         5.3760    3.4390   -0.3380 ha        1 G6G      0.195000
     55 H41        -6.8460   -5.1610    3.1850 h1        1 G6G      0.079000
     56 H41A       -5.5140   -4.2780    2.8760 h1        1 G6G      0.079000
     57 H42        -4.2970   -5.3060    4.5730 h1        1 G6G      0.077000
     58 H42A       -5.7270   -4.8370    5.1970 h1        1 G6G      0.077000
     59 H46        -3.9330   -6.9830    6.1190 h1        1 G6G      0.072000
     60 H46A       -5.1580   -7.9730    6.5670 h1        1 G6G      0.072000
     61 H46B       -5.2060   -6.3950    6.8780 h1        1 G6G      0.072000
     62 H44        -5.4510   -8.6220    4.3110 h1        1 G6G      0.077000
     63 H44A       -4.1210   -7.7590    4.0070 h1        1 G6G      0.077000
     64 H45        -5.2420   -8.0950    1.9790 h1        1 G6G      0.079000
     65 H45A       -6.6800   -7.6140    2.6200 h1        1 G6G      0.079000
     66 H39        -6.7560   -5.2000    1.0820 h1        1 G6G      0.082000
     67 H39A       -6.4250   -6.6860    0.6130 h1        1 G6G      0.082000
     68 H37        -4.3250   -7.1370   -0.7010 ha        1 G6G      0.155000
     69 H38        -2.4640   -6.3050   -1.8440 ha        1 G6G      0.155000
     70 H35        -5.3040   -3.3030    0.3710 ha        1 G6G      0.136000
     71 H34        -3.4140   -2.5180   -0.7980 ha        1 G6G      0.137000
     72 HN30       -1.6430   -1.8590   -1.5500 hn        1 G6G      0.233000
     73 H24        -0.0390   -0.4900   -3.0600 ha        1 G6G      0.143000
     74 H26         1.1810   -3.5720   -0.6920 ha        1 G6G      0.174000
     75 H27         3.4030   -2.7040   -0.6800 ha        1 G6G      0.134000
     76 H29         4.4200    0.3860   -1.6060 ha        1 G6G      0.083667
     77 H29A        5.0020   -1.0800   -1.2650 ha        1 G6G      0.083667
     78 H29B        4.7730   -0.5970   -2.7850 ha        1 G6G      0.083667
     79 HN22        2.6450    1.3470   -1.7950 hn        1 G6G      0.240000
     80 H19         0.3990    1.9040   -6.4460 ha        1 G6G      0.161000
     81 H18         1.2190    4.1010   -6.5520 ha        1 G6G      0.148500
     82 H17         2.5660    4.8900   -4.7850 ha        1 G6G      0.148500
     83 HN9         3.6090    7.8280   -2.4010 hn        1 G6G      0.243000
@<TRIPOS>BOND
     1    1    6 1   
     2    1   47 1   
     3    2    3 1   
     4    2   48 1   
     5    3   46 1   
     6    4    5 1   
     7    4   49 1   
     8    5   50 1   
     9    6   45 1   
    10    7   46 1   
    11    7   51 1   
    12    7   52 1   
    13    7   53 1   
    14    8   42 1   
    15    8   45 1   
    16    9   43 1   
    17   10   44 1   
    18   10   54 1   
    19   11   12 1   
    20   11   17 1   
    21   11   55 1   
    22   11   56 1   
    23   12   13 1   
    24   12   57 1   
    25   12   58 1   
    26   13   14 1   
    27   13   15 1   
    28   14   59 1   
    29   14   60 1   
    30   14   61 1   
    31   15   16 1   
    32   15   62 1   
    33   15   63 1   
    34   16   17 1   
    35   16   64 1   
    36   16   65 1   
    37   17   18 1   
    38   18   19 1   
    39   18   66 1   
    40   18   67 1   
    41   19   20 1   
    42   19   22 1   
    43   20   21 1   
    44   20   68 1   
    45   21   69 1   
    46   22   70 1   
    47   23   24 1   
    48   23   71 1   
    49   24   25 1   
    50   25   26 1   
    51   25   27 1   
    52   27   28 1   
    53   27   72 1   
    54   28   29 1   
    55   28   30 1   
    56   29   34 1   
    57   29   73 1   
    58   30   74 1   
    59   31   32 1   
    60   31   75 1   
    61   32   34 1   
    62   33   76 1   
    63   33   77 1   
    64   33   78 1   
    65   34   35 1   
    66   35   36 1   
    67   35   79 1   
    68   36   37 1   
    69   36   41 1   
    70   37   38 1   
    71   38   80 1   
    72   39   40 1   
    73   39   81 1   
    74   40   82 1   
    75   45   83 1   
@<TRIPOS>SUBSTRUCTURE
     1 G6G         1 TEMP              0 ****  ****    0 ROOT
