@<TRIPOS>MOLECULE
G6H
   74    78     1     0     0
SMALL
bcc


@<TRIPOS>ATOM
      1 CBQ         7.6830   -3.7300   -1.0040 c3        1 G6H      0.110200
      2 OBP         8.7560   -2.7940   -0.9490 os        1 G6H     -0.309900
      3 CAB         8.4560   -1.5420   -0.4530 ca        1 G6H      0.151100
      4 CAC         7.1660   -1.1390   -0.0880 ca        1 G6H     -0.234500
      5 CAA         9.5530   -0.6650   -0.3390 ca        1 G6H      0.036100
      6 OBO        10.8500   -1.0890   -0.5530 os        1 G6H     -0.307900
      7 CBR        11.1740   -1.2770   -1.9320 c3        1 G6H      0.114700
      8 CAF         9.3230    0.6500    0.1190 ca        1 G6H      0.151100
      9 OBS        10.4380    1.4590    0.1600 os        1 G6H     -0.309900
     10 CBT        10.2740    2.7320    0.7750 c3        1 G6H      0.110200
     11 CAE         8.0400    1.0680    0.4800 ca        1 G6H     -0.234500
     12 CAD         6.9550    0.1700    0.3780 ca        1 G6H      0.189600
     13 NAG         5.6810    0.5940    0.8250 nh        1 G6H     -0.713300
     14 CAH         4.5320    0.5480    0.0310 ca        1 G6H      0.894900
     15 NAI         3.4330    1.2780    0.4950 nb        1 G6H     -0.777000
     16 NAM         4.5040   -0.2330   -1.1230 nb        1 G6H     -0.764000
     17 CAL         3.3070   -0.2510   -1.7540 ca        1 G6H      0.678900
     18 NAK         2.1710    0.3990   -1.3890 nb        1 G6H     -0.749000
     19 CAJ         2.2930    1.1600   -0.2470 cp        1 G6H      0.757500
     20 CAN         1.1210    1.9520    0.1950 cp        1 G6H     -0.329800
     21 CAO         1.2730    3.3320    0.3610 ca        1 G6H     -0.016000
     22 CAP         0.1800    4.1080    0.7340 ca        1 G6H     -0.308300
     23 CAQ        -1.0490    3.4540    0.9330 ca        1 G6H      0.455200
     24 NAR        -1.2390    2.1380    0.8060 nb        1 G6H     -0.725000
     25 CAS        -0.1640    1.3570    0.4410 ca        1 G6H      0.705200
     26 NAT        -0.3240   -0.0210    0.2990 nh        1 G6H     -0.729300
     27 CAU        -1.5050   -0.7230    0.6270 ca        1 G6H      0.173600
     28 CAV        -2.7370   -0.3450    0.0700 ca        1 G6H     -0.167000
     29 CAZ        -1.4350   -1.8690    1.4630 ca        1 G6H     -0.137300
     30 CBA        -0.1560   -2.3120    2.0660 c3        1 G6H     -0.051800
     31 CAY        -2.6030   -2.5880    1.7110 ca        1 G6H     -0.090000
     32 CAX        -3.8310   -2.2140    1.1770 ca        1 G6H     -0.163000
     33 CAW        -3.9140   -1.0790    0.3480 ca        1 G6H      0.075600
     34 NBB        -5.1120   -0.6400   -0.2420 n         1 G6H     -0.464100
     35 CBC        -6.3850   -1.1530   -0.0460 c         1 G6H      0.679700
     36 OBD        -6.6350   -2.1190    0.6980 o         1 G6H     -0.576100
     37 CBE        -7.4820   -0.4600   -0.7920 ca        1 G6H     -0.150600
     38 CBJ        -8.6780   -0.2050   -0.1120 ca        1 G6H     -0.032000
     39 CBF        -7.3500   -0.1080   -2.1380 ca        1 G6H     -0.078000
     40 CBG        -8.4090    0.5100   -2.8030 ca        1 G6H     -0.140000
     41 CBH        -9.5980    0.7830   -2.1290 ca        1 G6H     -0.063000
     42 CBI        -9.7270    0.4240   -0.7840 ca        1 G6H     -0.175300
     43 CBK       -11.0230    0.7350   -0.0440 c3        1 G6H      0.689200
     44 FBL       -11.0540    1.9860    0.5250 f         1 G6H     -0.234300
     45 FBM       -12.1490    0.6980   -0.8310 f         1 G6H     -0.234300
     46 FBN       -11.3080   -0.1150    0.9950 f         1 G6H     -0.234300
     47 HBQ         7.2630   -3.9100    0.0140 h1        1 G6H      0.047367
     48 HBQA        6.8870   -3.3740   -1.7030 h1        1 G6H      0.047367
     49 HBQB        8.1730   -4.6560   -1.4000 h1        1 G6H      0.047367
     50 HAC         6.3270   -1.8450   -0.1640 ha        1 G6H      0.151500
     51 HBR        10.5080   -2.0510   -2.3850 h1        1 G6H      0.042033
     52 HBRA       11.0890   -0.3120   -2.4860 h1        1 G6H      0.042033
     53 HBRB       12.2360   -1.6290   -1.9050 h1        1 G6H      0.042033
     54 HBT        11.3100    3.1560    0.7670 h1        1 G6H      0.047367
     55 HBTA        9.5830    3.3720    0.1740 h1        1 G6H      0.047367
     56 HBTB        9.9000    2.6250    1.8220 h1        1 G6H      0.047367
     57 HAE         7.8780    2.0940    0.8410 ha        1 G6H      0.151500
     58 HNAG        5.6950    1.3050    1.5290 hn        1 G6H      0.452800
     59 HAL         3.2520   -0.8630   -2.6810 h5        1 G6H      0.061100
     60 HAO         2.2560    3.8000    0.1920 ha        1 G6H      0.148000
     61 HAP         0.2680    5.1920    0.8690 ha        1 G6H      0.149000
     62 HAQ        -1.9510    4.0260    1.2250 h4        1 G6H      0.024100
     63 HNAT        0.5120   -0.5610    0.3450 hn        1 G6H      0.442800
     64 HAV        -2.7850    0.5360   -0.5900 ha        1 G6H      0.149000
     65 HBA         0.3210   -1.4810    2.6440 hc        1 G6H      0.043367
     66 HBAA       -0.3200   -3.1680    2.7670 hc        1 G6H      0.043367
     67 HBAB        0.5590   -2.6490    1.2740 hc        1 G6H      0.043367
     68 HAY        -2.5580   -3.4800    2.3570 ha        1 G6H      0.137000
     69 HAX        -4.7260   -2.8130    1.4130 ha        1 G6H      0.174000
     70 HNBB       -5.0370    0.1820   -0.8010 hn        1 G6H      0.320500
     71 HBJ        -8.7900   -0.5140    0.9420 ha        1 G6H      0.174000
     72 HBF        -6.4210   -0.3310   -2.6870 ha        1 G6H      0.146000
     73 HBG        -8.3070    0.7820   -3.8650 ha        1 G6H      0.148000
     74 HBH       -10.4380    1.2710   -2.6490 ha        1 G6H      0.156000
@<TRIPOS>BOND
     1    1    2 1   
     2    1   47 1   
     3    1   48 1   
     4    1   49 1   
     5    2    3 1   
     6    3    4 ar  
     7    3    5 ar  
     8    4   12 ar  
     9    4   50 1   
    10    5    6 1   
    11    5    8 ar  
    12    6    7 1   
    13    7   51 1   
    14    7   52 1   
    15    7   53 1   
    16    8    9 1   
    17    8   11 ar  
    18    9   10 1   
    19   10   54 1   
    20   10   55 1   
    21   10   56 1   
    22   11   12 ar  
    23   11   57 1   
    24   12   13 1   
    25   13   14 1   
    26   13   58 1   
    27   14   15 ar  
    28   14   16 ar  
    29   15   19 ar  
    30   16   17 ar  
    31   17   18 ar  
    32   17   59 1   
    33   18   19 ar  
    34   19   20 1   
    35   20   21 ar  
    36   20   25 ar  
    37   21   22 ar  
    38   21   60 1   
    39   22   23 ar  
    40   22   61 1   
    41   23   24 ar  
    42   23   62 1   
    43   24   25 ar  
    44   25   26 1   
    45   26   27 1   
    46   26   63 1   
    47   27   28 ar  
    48   27   29 ar  
    49   28   33 ar  
    50   28   64 1   
    51   29   30 1   
    52   29   31 ar  
    53   30   65 1   
    54   30   66 1   
    55   30   67 1   
    56   31   32 ar  
    57   31   68 1   
    58   32   33 ar  
    59   32   69 1   
    60   33   34 1   
    61   34   35 1   
    62   34   70 1   
    63   35   36 2   
    64   35   37 1   
    65   37   38 ar  
    66   37   39 ar  
    67   38   42 ar  
    68   38   71 1   
    69   39   40 ar  
    70   39   72 1   
    71   40   41 ar  
    72   40   73 1   
    73   41   42 ar  
    74   41   74 1   
    75   42   43 1   
    76   43   44 1   
    77   43   45 1   
    78   43   46 1   
@<TRIPOS>SUBSTRUCTURE
     1 G6H         1 TEMP              0 ****  ****    0 ROOT
