@<TRIPOS>MOLECULE
G6H
   74    66     1     0     0
SMALL
bcc


@<TRIPOS>ATOM
      1 CBQ         3.5150    3.6130   -0.9230 c3        1 G6H     -0.073000
      2 OBP         4.1170    3.3820    0.3320 os        1 G6H     -0.229000
      3 CAB         4.9270    2.2350    0.3720 c2        1 G6H      0.019000
      4 CAC         4.3570    0.9920    0.5990 c2        1 G6H     -0.171000
      5 CAA         6.2920    2.3440    0.1570 c1        1 G6H      0.042000
      6 OBO         6.8840    3.6140    0.0360 o         1 G6H     -0.214000
      7 CBR         6.7990    4.1620   -1.2600 c3        1 G6H     -0.065000
      8 CAF         7.0880    1.2080    0.1680 c2        1 G6H      0.052000
      9 OBS         8.4840    1.3280    0.0500 os        1 G6H     -0.215000
     10 CBT         8.9620    1.1600   -1.2660 c3        1 G6H     -0.074000
     11 CAE         6.5180   -0.0360    0.3960 c1        1 G6H     -0.103000
     12 CAD         5.1520   -0.1440    0.6110 c1        1 G6H      0.047000
     13 NAG         4.5900   -1.3990    0.9780 n3        1 G6H     -0.231000
     14 CAH         3.4030   -1.8570    0.3480 c2        1 G6H      0.179000
     15 NAI         2.3500   -2.2270    1.0940 n2        1 G6H     -0.248000
     16 NAM         3.3780   -2.0350   -0.9800 n1        1 G6H     -0.238000
     17 CAL         2.3010   -2.5820   -1.5640 c1        1 G6H      0.003500
     18 NAK         1.2490   -2.9520   -0.8180 n1        1 G6H     -0.221500
     19 CAJ         1.2730   -2.7750    0.5110 c1        1 G6H      0.140000
     20 CAN         0.2210   -3.2380    1.2910 c1        1 G6H     -0.138000
     21 CAO         0.4150   -3.4860    2.6210 c1        1 G6H     -0.114250
     22 CAP        -0.6330   -3.8800    3.4000 c1        1 G6H     -0.114250
     23 CAQ        -1.8940   -4.0280    2.8420 c1        1 G6H      0.003500
     24 NAR        -2.0860   -3.7800    1.5160 n1        1 G6H     -0.221500
     25 CAS        -1.0410   -3.3870    0.7360 c1        1 G6H      0.160000
     26 NAT        -1.2290   -3.1950   -0.6560 n3        1 G6H     -0.242000
     27 CAU        -2.4810   -2.7400   -1.1450 c2        1 G6H      0.080000
     28 CAV        -3.2530   -1.8810   -0.3800 c2        1 G6H     -0.166000
     29 CAZ        -2.9210   -3.1390   -2.3970 c1        1 G6H     -0.126000
     30 CBA        -2.0510   -4.0280   -3.2570 c2        1 G6H     -0.179000
     31 CAY        -4.1350   -2.6780   -2.8840 c2        1 G6H     -0.092000
     32 CAX        -4.9070   -1.8190   -2.1190 c1        1 G6H     -0.163000
     33 CAW        -4.4670   -1.4200   -0.8680 c1        1 G6H      0.081000
     34 NBB        -5.2440   -0.5200   -0.0960 n         1 G6H     -0.317000
     35 CBC        -5.3800    0.8310   -0.5070 c2        1 G6H      0.353000
     36 OBD        -4.8300    1.2160   -1.5200 o         1 G6H     -0.341000
     37 CBE        -6.2190    1.7900    0.3100 c2        1 G6H     -0.129000
     38 CBJ        -5.6490    2.4760    1.3710 c2        1 G6H     -0.060000
     39 CBF        -7.5250    2.0630   -0.0690 c1        1 G6H     -0.050000
     40 CBG        -8.2590    3.0200    0.6130 c1        1 G6H     -0.114250
     41 CBH        -7.6890    3.7050    1.6740 c1        1 G6H     -0.114250
     42 CBI        -6.3840    3.4330    2.0530 c1        1 G6H     -0.169000
     43 CBK        -5.7790    4.1450    3.2410 c3        1 G6H      0.467000
     44 FBL        -5.8090    3.3370    4.3080 f         1 G6H     -0.163667
     45 FBM        -4.5100    4.4740    2.9650 f         1 G6H     -0.163667
     46 FBN        -6.4810    5.2550    3.5010 f         1 G6H     -0.163667
     47 HBQ         4.1250    4.1350   -1.4870 h1        1 G6H      0.082667
     48 HBQA        2.6790    4.1100   -0.7980 h1        1 G6H      0.082667
     49 HBQB        3.3230    2.7530   -1.3560 h1        1 G6H      0.082667
     50 HAC         3.3960    0.9160    0.7510 ha        1 G6H      0.147000
     51 HBR         6.3780    3.5130   -1.8630 h1        1 G6H      0.087333
     52 HBRA        6.2610    4.9820   -1.2340 h1        1 G6H      0.087333
     53 HBRB        7.7020    4.3730   -1.5860 h1        1 G6H      0.087333
     54 HBT         9.2530    0.2320   -1.3930 h1        1 G6H      0.085333
     55 HBTA        9.7220    1.7650   -1.4190 h1        1 G6H      0.085333
     56 HBTB        8.2460    1.3680   -1.9040 h1        1 G6H      0.085333
     57 HAE         7.0780   -0.8350    0.4040 ha        1 G6H      0.171000
     58 HNAG        5.0050   -1.9180    1.6030 hn        1 G6H      0.249000
     59 HAL         2.2840   -2.7120   -2.5320 ha        1 G6H      0.178500
     60 HAO         1.3020   -3.3810    3.0120 ha        1 G6H      0.151500
     61 HAP        -0.4950   -4.0570    4.3500 ha        1 G6H      0.151500
     62 HAQ        -2.6440   -4.3100    3.4000 ha        1 G6H      0.178500
     63 HNAT       -0.5640   -3.4120   -1.2390 hn        1 G6H      0.240000
     64 HAV        -2.9430   -1.6000    0.5010 ha        1 G6H      0.144000
     65 HBA        -1.2420   -3.5390   -3.5180 ha        1 G6H      0.084667
     66 HBAA       -1.8000   -4.8280   -2.7500 ha        1 G6H      0.084667
     67 HBAB       -2.5460   -4.2920   -4.0600 ha        1 G6H      0.084667
     68 HAY        -4.4450   -2.9590   -3.7660 ha        1 G6H      0.136000
     69 HAX        -5.7620   -1.4950   -2.4620 ha        1 G6H      0.173000
     70 HNBB       -5.6890   -0.8190    0.6420 hn        1 G6H      0.235000
     71 HBJ        -4.7300    2.2840    1.6380 ha        1 G6H      0.157000
     72 HBF        -7.9270    1.5800   -0.8170 ha        1 G6H      0.163000
     73 HBG        -9.1790    3.2110    0.3460 ha        1 G6H      0.151500
     74 HBH        -8.2060    4.3790    2.1550 ha        1 G6H      0.151500
@<TRIPOS>BOND
     1    1    2 1   
     2    1   47 1   
     3    1   48 1   
     4    1   49 1   
     5    2    3 1   
     6    3    4 1   
     7    3    5 1   
     8    4   12 1   
     9    4   50 1   
    10    5    8 1   
    11    6    7 1   
    12    7   51 1   
    13    7   52 1   
    14    7   53 1   
    15    8    9 1   
    16    8   11 1   
    17    9   10 1   
    18   10   54 1   
    19   10   55 1   
    20   10   56 1   
    21   11   57 1   
    22   12   13 1   
    23   13   14 1   
    24   13   58 1   
    25   14   15 1   
    26   14   16 1   
    27   15   19 1   
    28   17   18 1   
    29   17   59 1   
    30   20   25 1   
    31   21   22 1   
    32   21   60 1   
    33   22   61 1   
    34   23   24 1   
    35   23   62 1   
    36   25   26 1   
    37   26   27 1   
    38   26   63 1   
    39   27   28 1   
    40   27   29 1   
    41   28   33 1   
    42   28   64 1   
    43   29   31 1   
    44   30   65 1   
    45   30   66 1   
    46   30   67 1   
    47   31   32 1   
    48   31   68 1   
    49   32   69 1   
    50   33   34 1   
    51   34   35 1   
    52   34   70 1   
    53   35   36 1   
    54   35   37 1   
    55   37   38 1   
    56   37   39 1   
    57   38   42 1   
    58   38   71 1   
    59   39   72 1   
    60   40   41 1   
    61   40   73 1   
    62   41   74 1   
    63   42   43 1   
    64   43   44 1   
    65   43   45 1   
    66   43   46 1   
@<TRIPOS>SUBSTRUCTURE
     1 G6H         1 TEMP              0 ****  ****    0 ROOT
