@<TRIPOS>MOLECULE
G6H
   74    78     1     0     0
SMALL
bcc


@<TRIPOS>ATOM
      1 CBQ         0.9320    1.9210   -0.5970 c3        1 G6H      0.110200
      2 OBP         2.2160    1.4030   -0.2600 os        1 G6H     -0.309900
      3 CAB         2.3300    0.7970    0.9740 ca        1 G6H      0.151100
      4 CAC         1.2920    0.7390    1.9110 ca        1 G6H     -0.234500
      5 CAA         3.5910    0.2280    1.2460 ca        1 G6H      0.036100
      6 OBO         4.5760    0.1440    0.2820 os        1 G6H     -0.307900
      7 CBR         5.2230    1.3890    0.0100 c3        1 G6H      0.114700
      8 CAF         3.8030   -0.3750    2.5050 ca        1 G6H      0.151100
      9 OBS         5.0740   -0.8680    2.7110 os        1 G6H     -0.309900
     10 CBT         5.2720   -1.6290    3.8970 c3        1 G6H      0.110200
     11 CAE         2.7790   -0.4330    3.4530 ca        1 G6H     -0.234500
     12 CAD         1.5160    0.1260    3.1560 ca        1 G6H      0.189600
     13 NAG         0.4740   -0.0180    4.1020 nu        1 G6H     -0.713300
     14 CAH        -0.2550    1.0590    4.6140 ca        1 G6H      0.894900
     15 NAI        -1.0260    0.7980    5.7500 nb        1 G6H     -0.777000
     16 NAM        -0.2300    2.2950    3.9700 nb        1 G6H     -0.764000
     17 CAL        -1.0400    3.2280    4.5230 ca        1 G6H      0.678900
     18 NAK        -1.8440    3.0830    5.6090 nb        1 G6H     -0.749000
     19 CAJ        -1.7940    1.8370    6.1920 cp        1 G6H      0.757500
     20 CAN        -2.5940    1.6050    7.4180 cp        1 G6H     -0.329800
     21 CAO        -1.9350    1.1600    8.5690 ca        1 G6H     -0.015000
     22 CAP        -2.6510    0.9740    9.7460 ca        1 G6H     -0.308300
     23 CAQ        -4.0310    1.2450    9.7240 ca        1 G6H      0.455200
     24 NAR        -4.7070    1.6530    8.6450 nb        1 G6H     -0.725000
     25 CAS        -4.0100    1.8370    7.4710 ca        1 G6H      0.705200
     26 NAT        -4.6830    2.2610    6.3260 nu        1 G6H     -0.729300
     27 CAU        -6.0840    2.4050    6.2330 ca        1 G6H      0.173600
     28 CAV        -6.7800    3.2080    7.1510 ca        1 G6H     -0.167000
     29 CAZ        -6.7870    1.8020    5.1560 ca        1 G6H     -0.137300
     30 CBA        -6.0940    0.9550    4.1570 c3        1 G6H     -0.051800
     31 CAY        -8.1590    2.0220    5.0450 ca        1 G6H     -0.090000
     32 CAX        -8.8600    2.8030    5.9570 ca        1 G6H     -0.163000
     33 CAW        -8.1760    3.4060    7.0290 ca        1 G6H      0.075600
     34 NBB        -8.8060    4.2180    7.9890 ns        1 G6H     -0.464100
     35 CBC       -10.1620    4.4850    8.1060 c         1 G6H      0.679700
     36 OBD       -11.0260    4.0300    7.3360 o         1 G6H     -0.576100
     37 CBE       -10.5480    5.3720    9.2480 ca        1 G6H     -0.150600
     38 CBJ       -11.6770    5.0220    9.9980 ca        1 G6H     -0.032000
     39 CBF        -9.8390    6.5390    9.5480 ca        1 G6H     -0.078000
     40 CBG       -10.2510    7.3520   10.6040 ca        1 G6H     -0.140000
     41 CBH       -11.3650    7.0030   11.3660 ca        1 G6H     -0.063000
     42 CBI       -12.0730    5.8380   11.0580 ca        1 G6H     -0.175300
     43 CBK       -13.2830    5.4500   11.9000 c3        1 G6H      0.689200
     44 FBL       -12.9750    4.6950   13.0070 f         1 G6H     -0.234300
     45 FBM       -13.9860    6.5150   12.4090 f         1 G6H     -0.234300
     46 FBN       -14.2280    4.7050   11.2390 f         1 G6H     -0.234300
     47 HBQ         0.6410    2.7380    0.1060 h1        1 G6H      0.047367
     48 HBQA        1.0830    2.3220   -1.6310 h1        1 G6H      0.047367
     49 HBQB        0.1660    1.1080   -0.5980 h1        1 G6H      0.047367
     50 HAC         0.3100    1.1700    1.6710 ha        1 G6H      0.151500
     51 HBR         5.7420    1.7630    0.9250 h1        1 G6H      0.042033
     52 HBRA        4.4820    2.1390   -0.3570 h1        1 G6H      0.042033
     53 HBRB        5.9610    1.1300   -0.7890 h1        1 G6H      0.042033
     54 HBT         6.3300   -1.9840    3.7990 h1        1 G6H      0.047367
     55 HBTA        5.1580   -0.9820    4.8010 h1        1 G6H      0.047367
     56 HBTB        4.5670   -2.4940    3.9400 h1        1 G6H      0.047367
     57 HAE         2.9580   -0.9100    4.4270 ha        1 G6H      0.151500
     58 HNAG        0.5550   -0.8130    4.7040 hn        1 G6H      0.452800
     59 HAL        -1.0410    4.2260    4.0340 h5        1 G6H      0.061100
     60 HAO        -0.8520    0.9620    8.5400 ha        1 G6H      0.148000
     61 HAP        -2.1630    0.6280   10.6650 ha        1 G6H      0.149000
     62 HAQ        -4.6460    1.1190   10.6350 h4        1 G6H      0.024100
     63 HNAT       -4.2210    2.0800    5.4610 hn        1 G6H      0.442800
     64 HAV        -6.2300    3.6870    7.9770 ha        1 G6H      0.149000
     65 HBA        -6.8260    0.4920    3.4490 hc        1 G6H      0.043367
     66 HBAA       -5.5300    0.1280    4.6580 hc        1 G6H      0.043367
     67 HBAB       -5.3730    1.5630    3.5550 hc        1 G6H      0.043367
     68 HAY        -8.7110    1.5590    4.2110 ha        1 G6H      0.137000
     69 HAX        -9.9460    2.9370    5.8270 ha        1 G6H      0.174000
     70 HNBB       -8.2100    4.5760    8.7030 hn        1 G6H      0.320500
     71 HBJ       -12.2520    4.1170    9.7370 ha        1 G6H      0.174000
     72 HBF        -8.9650    6.8340    8.9450 ha        1 G6H      0.146000
     73 HBG        -9.6970    8.2740   10.8360 ha        1 G6H      0.148000
     74 HBH       -11.6950    7.6410   12.2000 ha        1 G6H      0.156000
@<TRIPOS>BOND
     1    1    2 1   
     2    1   47 1   
     3    1   48 1   
     4    1   49 1   
     5    2    3 1   
     6    3    4 ar  
     7    3    5 ar  
     8    4   12 ar  
     9    4   50 1   
    10    5    6 1   
    11    5    8 ar  
    12    6    7 1   
    13    7   51 1   
    14    7   52 1   
    15    7   53 1   
    16    8    9 1   
    17    8   11 ar  
    18    9   10 1   
    19   10   54 1   
    20   10   55 1   
    21   10   56 1   
    22   11   12 ar  
    23   11   57 1   
    24   12   13 1   
    25   13   14 1   
    26   13   58 1   
    27   14   15 ar  
    28   14   16 ar  
    29   15   19 ar  
    30   16   17 ar  
    31   17   18 ar  
    32   17   59 1   
    33   18   19 ar  
    34   19   20 1   
    35   20   21 ar  
    36   20   25 ar  
    37   21   22 ar  
    38   21   60 1   
    39   22   23 ar  
    40   22   61 1   
    41   23   24 ar  
    42   23   62 1   
    43   24   25 ar  
    44   25   26 1   
    45   26   27 1   
    46   26   63 1   
    47   27   28 ar  
    48   27   29 ar  
    49   28   33 ar  
    50   28   64 1   
    51   29   30 1   
    52   29   31 ar  
    53   30   65 1   
    54   30   66 1   
    55   30   67 1   
    56   31   32 ar  
    57   31   68 1   
    58   32   33 ar  
    59   32   69 1   
    60   33   34 1   
    61   34   35 1   
    62   34   70 1   
    63   35   36 2   
    64   35   37 1   
    65   37   38 ar  
    66   37   39 ar  
    67   38   42 ar  
    68   38   71 1   
    69   39   40 ar  
    70   39   72 1   
    71   40   41 ar  
    72   40   73 1   
    73   41   42 ar  
    74   41   74 1   
    75   42   43 1   
    76   43   44 1   
    77   43   45 1   
    78   43   46 1   
@<TRIPOS>SUBSTRUCTURE
     1 G6H         1 TEMP              0 ****  ****    0 ROOT
