@<TRIPOS>MOLECULE
G6H
   77    81     1     0     0
SMALL
bcc


@<TRIPOS>ATOM
      1 CBQ        -0.0740   -2.8860    1.3420 c3        1 G6H      0.103200
      2 OBP         0.5880   -1.7020    0.8930 os        1 G6H     -0.295900
      3 CAB         1.2620   -0.9770    1.8420 ca        1 G6H      0.103600
      4 CAC         0.9830   -1.0170    3.2030 ca        1 G6H     -0.161500
      5 CAA         2.2780   -0.1140    1.3170 ca        1 G6H      0.192100
      6 OBO         2.4050   -0.1680   -0.0300 os        1 G6H     -0.265900
      7 CBR         3.5000    0.5100   -0.6630 c3        1 G6H      0.113700
      8 CAF         2.9940    0.7090    2.2220 ca        1 G6H      0.103600
      9 OBS         3.9300    1.5550    1.6730 os        1 G6H     -0.295900
     10 CBT         4.9670    2.0210    2.5390 c3        1 G6H      0.103200
     11 CAE         2.7190    0.6760    3.5920 ca        1 G6H     -0.161500
     12 CAD         1.7230   -0.1900    4.0690 ca        1 G6H     -0.094400
     13 NAG         1.4660   -0.2610    5.5110 n4        1 G6H     -0.595100
     14 CAH         0.4900    0.7960    5.9370 ca        1 G6H      0.792900
     15 NAI        -0.8220    0.4210    6.0930 nb        1 G6H     -0.698000
     16 NAM         0.9910    2.0640    6.1250 nb        1 G6H     -0.663000
     17 CAL         0.0470    2.9850    6.4660 ca        1 G6H      0.737900
     18 NAK        -1.2800    2.7380    6.6350 nb        1 G6H     -0.784000
     19 CAJ        -1.6810    1.4370    6.4630 cp        1 G6H      0.765500
     20 CAN        -3.0990    1.0700    6.7190 cp        1 G6H     -0.245800
     21 CAO        -3.4010   -0.2820    6.9960 ca        1 G6H     -0.027000
     22 CAP        -4.7090   -0.6750    7.2640 ca        1 G6H     -0.182300
     23 CAQ        -5.7200    0.3050    7.2600 ca        1 G6H      0.471200
     24 NAR        -5.4740    1.6010    7.0080 nb        1 G6H     -0.654000
     25 CAS        -4.1970    1.9780    6.7430 ca        1 G6H      0.502200
     26 NAT        -4.0030    3.4330    6.4830 n4        1 G6H     -0.613100
     27 CAU        -5.2350    4.2230    6.3280 ca        1 G6H     -0.018400
     28 CAV        -5.8590    4.7390    7.4780 ca        1 G6H     -0.048000
     29 CAZ        -5.7690    4.4490    5.0390 ca        1 G6H      0.023700
     30 CBA        -5.1390    3.9090    3.8130 c3        1 G6H     -0.107800
     31 CAY        -6.9330    5.2260    4.9340 ca        1 G6H     -0.090000
     32 CAX        -7.5610    5.7560    6.0540 ca        1 G6H     -0.049000
     33 CAW        -7.0200    5.5170    7.3340 ca        1 G6H     -0.027400
     34 NBB        -7.6790    6.0820    8.5130 n4        1 G6H     -0.564200
     35 CBC        -8.2740    5.0100    9.4560 c         1 G6H      0.602700
     36 OBD        -7.5040    4.1060    9.7380 o         1 G6H     -0.431100
     37 CBE        -9.6550    5.2260    9.8600 ca        1 G6H     -0.225600
     38 CBJ       -10.4180    4.0760   10.1290 ca        1 G6H      0.004000
     39 CBF       -10.2200    6.5030   10.0440 ca        1 G6H     -0.073000
     40 CBG       -11.5370    6.6200   10.4730 ca        1 G6H     -0.112000
     41 CBH       -12.3080    5.4760   10.7200 ca        1 G6H      0.015000
     42 CBI       -11.7420    4.2120   10.5460 ca        1 G6H     -0.168300
     43 CBK       -12.5640    2.9470   10.8310 c3        1 G6H      0.693200
     44 FBL       -12.3870    2.4610   12.0990 f         1 G6H     -0.210633
     45 FBM       -13.9140    3.1210   10.6870 f         1 G6H     -0.210633
     46 FBN       -12.2430    1.9000   10.0020 f         1 G6H     -0.210633
     47 HBQ        -0.3650   -3.3880    0.3820 h1        1 G6H      0.062533
     48 HBQA        0.6170   -3.5320    1.9350 h1        1 G6H      0.062533
     49 HBQB       -0.9800   -2.6170    1.9370 h1        1 G6H      0.062533
     50 HAC         0.2070   -1.7020    3.5790 ha        1 G6H      0.162500
     51 HBR         3.3830    0.1970   -1.7340 h1        1 G6H      0.075700
     52 HBRA        3.3830    1.6150   -0.5480 h1        1 G6H      0.075700
     53 HBRB        4.4720    0.1600   -0.2420 h1        1 G6H      0.075700
     54 HBT         4.5600    2.7860    3.2440 h1        1 G6H      0.062533
     55 HBTA        5.6960    2.4910    1.8270 h1        1 G6H      0.062533
     56 HBTB        5.4400    1.1750    3.0920 h1        1 G6H      0.062533
     57 HAE         3.2890    1.3280    4.2740 ha        1 G6H      0.162500
     58 HNAG        1.0860   -1.1930    5.7420 hn        1 G6H      0.489800
     59 HAL         0.4100    4.0310    6.6230 h5        1 G6H      0.117100
     60 HAO        -2.6040   -1.0490    7.0090 ha        1 G6H      0.195000
     61 HAP        -4.9560   -1.7310    7.4800 ha        1 G6H      0.209000
     62 HAQ        -6.7820    0.0530    7.4690 h4        1 G6H      0.084100
     63 HNAT       -3.4520    3.5290    5.6160 hn        1 G6H      0.479800
     64 HAV        -5.4600    4.5180    8.4860 ha        1 G6H      0.184000
     65 HBA        -5.0190    2.7970    3.8780 hc        1 G6H      0.087033
     66 HBAA       -5.7670    4.1240    2.9080 hc        1 G6H      0.087033
     67 HBAB       -4.1380    4.3810    3.6390 hc        1 G6H      0.087033
     68 HAY        -7.3640    5.4180    3.9320 ha        1 G6H      0.203000
     69 HAX        -8.4790    6.3590    5.9170 ha        1 G6H      0.188000
     70 HNBB       -8.4340    6.7110    8.2060 hn        1 G6H      0.471300
     71 HBJ        -9.9780    3.0690   10.0120 ha        1 G6H      0.178000
     72 HBF        -9.6320    7.4220    9.8960 ha        1 G6H      0.138000
     73 HBG       -11.9810    7.6190   10.6300 ha        1 G6H      0.190000
     74 HBH       -13.3600    5.5730   11.0560 ha        1 G6H      0.202000
     75 HAG2        2.3540   -0.1140    6.0200 hn        1 G6H      0.489800
     76 HAT2       -3.4610    3.8180    7.2740 hn        1 G6H      0.479800
     77 HBB2       -6.9900    6.6320    9.0430 hn        1 G6H      0.471300
@<TRIPOS>BOND
     1    1    2 1   
     2    1   47 1   
     3    1   48 1   
     4    1   49 1   
     5    2    3 1   
     6    3    4 ar  
     7    3    5 ar  
     8    4   12 ar  
     9    4   50 1   
    10    5    6 1   
    11    5    8 ar  
    12    6    7 1   
    13    7   51 1   
    14    7   52 1   
    15    7   53 1   
    16    8    9 1   
    17    8   11 ar  
    18    9   10 1   
    19   10   54 1   
    20   10   55 1   
    21   10   56 1   
    22   11   12 ar  
    23   11   57 1   
    24   12   13 1   
    25   13   14 1   
    26   13   58 1   
    27   13   75 1   
    28   14   15 ar  
    29   14   16 ar  
    30   15   19 ar  
    31   16   17 ar  
    32   17   18 ar  
    33   17   59 1   
    34   18   19 ar  
    35   19   20 1   
    36   20   21 ar  
    37   20   25 ar  
    38   21   22 ar  
    39   21   60 1   
    40   22   23 ar  
    41   22   61 1   
    42   23   24 ar  
    43   23   62 1   
    44   24   25 ar  
    45   25   26 1   
    46   26   27 1   
    47   26   63 1   
    48   26   76 1   
    49   27   28 ar  
    50   27   29 ar  
    51   28   33 ar  
    52   28   64 1   
    53   29   30 1   
    54   29   31 ar  
    55   30   65 1   
    56   30   66 1   
    57   30   67 1   
    58   31   32 ar  
    59   31   68 1   
    60   32   33 ar  
    61   32   69 1   
    62   33   34 1   
    63   34   35 1   
    64   34   70 1   
    65   34   77 1   
    66   35   36 2   
    67   35   37 1   
    68   37   38 ar  
    69   37   39 ar  
    70   38   42 ar  
    71   38   71 1   
    72   39   40 ar  
    73   39   72 1   
    74   40   41 ar  
    75   40   73 1   
    76   41   42 ar  
    77   41   74 1   
    78   42   43 1   
    79   43   44 1   
    80   43   45 1   
    81   43   46 1   
@<TRIPOS>SUBSTRUCTURE
     1 G6H         1 TEMP              0 ****  ****    0 ROOT
