@<TRIPOS>MOLECULE
G6H
   74    78     1     0     0
SMALL
bcc


@<TRIPOS>ATOM
      1 CBQ         0.8960    1.8720   -0.6130 c3        1 G6H      0.110200
      2 OBP         2.1840    1.3650   -0.2790 os        1 G6H     -0.309900
      3 CAB         2.3090    0.7710    0.9600 ca        1 G6H      0.151100
      4 CAC         1.2780    0.7180    1.9050 ca        1 G6H     -0.234500
      5 CAA         3.5750    0.2120    1.2300 ca        1 G6H      0.036100
      6 OBO         4.5540    0.1240    0.2610 os        1 G6H     -0.307900
      7 CBR         5.1930    1.3700   -0.0280 c3        1 G6H      0.114700
      8 CAF         3.7980   -0.3760    2.4940 ca        1 G6H      0.151100
      9 OBS         5.0730   -0.8600    2.6970 os        1 G6H     -0.309900
     10 CBT         5.2830   -1.6070    3.8900 c3        1 G6H      0.110200
     11 CAE         2.7800   -0.4300    3.4490 ca        1 G6H     -0.234500
     12 CAD         1.5120    0.1190    3.1540 ca        1 G6H      0.189600
     13 NAG         0.4770   -0.0210    4.1090 nh        1 G6H     -0.713300
     14 CAH        -0.2550    1.0580    4.6130 ca        1 G6H      0.894900
     15 NAI        -1.0180    0.8030    5.7560 nb        1 G6H     -0.777000
     16 NAM        -0.2390    2.2880    3.9580 nb        1 G6H     -0.764000
     17 CAL        -1.0510    3.2220    4.5060 ca        1 G6H      0.678900
     18 NAK        -1.8490    3.0830    5.5980 nb        1 G6H     -0.749000
     19 CAJ        -1.7890    1.8430    6.1920 cp        1 G6H      0.757500
     20 CAN        -2.5820    1.6190    7.4240 cp        1 G6H     -0.329800
     21 CAO        -1.9150    1.1880    8.5760 ca        1 G6H     -0.015000
     22 CAP        -2.6250    1.0100    9.7590 ca        1 G6H     -0.308300
     23 CAQ        -4.0070    1.2750    9.7400 ca        1 G6H      0.455200
     24 NAR        -4.6900    1.6690    8.6610 nb        1 G6H     -0.725000
     25 CAS        -3.9990    1.8450    7.4820 ca        1 G6H      0.705200
     26 NAT        -4.6790    2.2540    6.3350 nh        1 G6H     -0.729300
     27 CAU        -6.0820    2.3930    6.2480 ca        1 G6H      0.173600
     28 CAV        -6.7760    3.2030    7.1610 ca        1 G6H     -0.167000
     29 CAZ        -6.7870    1.7760    5.1810 ca        1 G6H     -0.137300
     30 CBA        -6.0970    0.9210    4.1880 c3        1 G6H     -0.051800
     31 CAY        -8.1610    1.9910    5.0750 ca        1 G6H     -0.090000
     32 CAX        -8.8600    2.7780    5.9820 ca        1 G6H     -0.163000
     33 CAW        -8.1720    3.3940    7.0450 ca        1 G6H      0.075600
     34 NBB        -8.8010    4.2140    7.9990 n         1 G6H     -0.464100
     35 CBC       -10.1550    4.4880    8.1140 c         1 G6H      0.679700
     36 OBD       -11.0210    4.0310    7.3470 o         1 G6H     -0.576100
     37 CBE       -10.5380    5.3850    9.2490 ca        1 G6H     -0.150600
     38 CBJ       -11.6700    5.0460   10.0000 ca        1 G6H     -0.032000
     39 CBF        -9.8240    6.5510    9.5410 ca        1 G6H     -0.078000
     40 CBG       -10.2340    7.3730   10.5910 ca        1 G6H     -0.140000
     41 CBH       -11.3510    7.0350   11.3540 ca        1 G6H     -0.063000
     42 CBI       -12.0640    5.8710   11.0540 ca        1 G6H     -0.175300
     43 CBK       -13.2770    5.4950   11.8970 c3        1 G6H      0.689200
     44 FBL       -12.9720    4.7480   13.0110 f         1 G6H     -0.234300
     45 FBM       -13.9760    6.5670   12.3950 f         1 G6H     -0.234300
     46 FBN       -14.2230    4.7480   11.2410 f         1 G6H     -0.234300
     47 HBQ         1.0380    2.2640   -1.6520 h1        1 G6H      0.047367
     48 HBQA        0.6040    2.6950    0.0830 h1        1 G6H      0.047367
     49 HBQB        0.1340    1.0550   -0.6010 h1        1 G6H      0.047367
     50 HAC         0.2910    1.1410    1.6670 ha        1 G6H      0.151500
     51 HBR         4.4450    2.1120   -0.3980 h1        1 G6H      0.042033
     52 HBRA        5.7150    1.7570    0.8800 h1        1 G6H      0.042033
     53 HBRB        5.9270    1.1070   -0.8290 h1        1 G6H      0.042033
     54 HBT         6.3420   -1.9580    3.7890 h1        1 G6H      0.047367
     55 HBTA        4.5830   -2.4760    3.9460 h1        1 G6H      0.047367
     56 HBTB        5.1710   -0.9520    4.7880 h1        1 G6H      0.047367
     57 HAE         2.9690   -0.8970    4.4260 ha        1 G6H      0.151500
     58 HNAG        0.5660   -0.8090    4.7180 hn        1 G6H      0.452800
     59 HAL        -1.0590    4.2150    4.0080 h5        1 G6H      0.061100
     60 HAO        -0.8320    0.9950    8.5430 ha        1 G6H      0.148000
     61 HAP        -2.1310    0.6760   10.6780 ha        1 G6H      0.149000
     62 HAQ        -4.6170    1.1550   10.6560 h4        1 G6H      0.024100
     63 HNAT       -4.2220    2.0670    5.4700 hn        1 G6H      0.442800
     64 HAV        -6.2230    3.6920    7.9800 ha        1 G6H      0.149000
     65 HBA        -5.5280    0.1020    4.6940 hc        1 G6H      0.043367
     66 HBAA       -5.3810    1.5260    3.5750 hc        1 G6H      0.043367
     67 HBAB       -6.8310    0.4490    3.4890 hc        1 G6H      0.043367
     68 HAY        -8.7160    1.5170    4.2490 ha        1 G6H      0.137000
     69 HAX        -9.9480    2.9070    5.8570 ha        1 G6H      0.174000
     70 HNBB       -8.2040    4.5770    8.7110 hn        1 G6H      0.320500
     71 HBJ       -12.2490    4.1410    9.7450 ha        1 G6H      0.174000
     72 HBF        -8.9490    6.8380    8.9370 ha        1 G6H      0.146000
     73 HBG        -9.6760    8.2940   10.8170 ha        1 G6H      0.148000
     74 HBH       -11.6790    7.6810   12.1840 ha        1 G6H      0.156000
@<TRIPOS>BOND
     1    1    2 1   
     2    1   47 1   
     3    1   48 1   
     4    1   49 1   
     5    2    3 1   
     6    3    4 ar  
     7    3    5 ar  
     8    4   12 ar  
     9    4   50 1   
    10    5    6 1   
    11    5    8 ar  
    12    6    7 1   
    13    7   51 1   
    14    7   52 1   
    15    7   53 1   
    16    8    9 1   
    17    8   11 ar  
    18    9   10 1   
    19   10   54 1   
    20   10   55 1   
    21   10   56 1   
    22   11   12 ar  
    23   11   57 1   
    24   12   13 1   
    25   13   14 1   
    26   13   58 1   
    27   14   15 ar  
    28   14   16 ar  
    29   15   19 ar  
    30   16   17 ar  
    31   17   18 ar  
    32   17   59 1   
    33   18   19 ar  
    34   19   20 1   
    35   20   21 ar  
    36   20   25 ar  
    37   21   22 ar  
    38   21   60 1   
    39   22   23 ar  
    40   22   61 1   
    41   23   24 ar  
    42   23   62 1   
    43   24   25 ar  
    44   25   26 1   
    45   26   27 1   
    46   26   63 1   
    47   27   28 ar  
    48   27   29 ar  
    49   28   33 ar  
    50   28   64 1   
    51   29   30 1   
    52   29   31 ar  
    53   30   65 1   
    54   30   66 1   
    55   30   67 1   
    56   31   32 ar  
    57   31   68 1   
    58   32   33 ar  
    59   32   69 1   
    60   33   34 1   
    61   34   35 1   
    62   34   70 1   
    63   35   36 2   
    64   35   37 1   
    65   37   38 ar  
    66   37   39 ar  
    67   38   42 ar  
    68   38   71 1   
    69   39   40 ar  
    70   39   72 1   
    71   40   41 ar  
    72   40   73 1   
    73   41   42 ar  
    74   41   74 1   
    75   42   43 1   
    76   43   44 1   
    77   43   45 1   
    78   43   46 1   
@<TRIPOS>SUBSTRUCTURE
     1 G6H         1 TEMP              0 ****  ****    0 ROOT
