@<TRIPOS>MOLECULE
G6I
   66    70     1     0     0
SMALL
bcc


@<TRIPOS>ATOM
      1 CAA        -0.4440    0.0020    0.4260 c3        1 G6I      0.112700
      2 OBC         0.8250   -0.6210    0.2570 os        1 G6I     -0.323900
      3 CBH         1.7540   -0.3910    1.2520 ca        1 G6I      0.124100
      4 CAR         2.9910   -1.0370    1.0690 ca        1 G6I     -0.170000
      5 CAP         4.0010   -0.8710    2.0050 ca        1 G6I     -0.096000
      6 CAS         1.5360    0.4170    2.3730 ca        1 G6I     -0.170000
      7 CAQ         2.5480    0.5730    3.3150 ca        1 G6I     -0.096000
      8 CBF         3.7930   -0.0650    3.1460 ca        1 G6I      0.086600
      9 NBA         4.8340    0.1700    4.0770 nu        1 G6I     -0.703300
     10 CBK         5.4320   -0.8620    4.8080 ca        1 G6I      0.889900
     11 NAY         6.1830   -0.4800    5.9230 nb        1 G6I     -0.778000
     12 NAW         5.3130   -2.1820    4.3770 nb        1 G6I     -0.762000
     13 CAJ         6.0160   -3.0740    5.1130 ca        1 G6I      0.678900
     14 NAX         6.7940   -2.8180    6.1980 nb        1 G6I     -0.751000
     15 CBM         6.8380   -1.4920    6.5650 cp        1 G6I      0.754500
     16 CBO         7.6140   -1.1260    7.7740 cp        1 G6I     -0.327800
     17 CAN         6.9590   -0.4460    8.8060 ca        1 G6I     -0.016000
     18 CAG         7.6510   -0.1260    9.9700 ca        1 G6I     -0.308300
     19 CAI         9.0020   -0.5050   10.0540 ca        1 G6I      0.453200
     20 NAV         9.6750   -1.1380    9.0880 nb        1 G6I     -0.725000
     21 CBN         9.0030   -1.4580    7.9290 ca        1 G6I      0.704200
     22 NBB         9.6720   -2.1190    6.9000 nu        1 G6I     -0.729300
     23 CBL        11.0580   -2.3870    6.8930 ca        1 G6I      0.174600
     24 CAT        11.6570   -3.0740    7.9620 ca        1 G6I     -0.167000
     25 CBE        11.8400   -2.0320    5.7620 ca        1 G6I     -0.137300
     26 CAB        11.2510   -1.3170    4.6060 c3        1 G6I     -0.052800
     27 CAM        13.1920   -2.3750    5.7490 ca        1 G6I     -0.091000
     28 CAO        13.7980   -3.0410    6.8080 ca        1 G6I     -0.164000
     29 CBG        13.0340   -3.3970    7.9350 ca        1 G6I      0.074600
     30 NAZ        13.5650   -4.0820    9.0430 ns        1 G6I     -0.464100
     31 CBD        14.8900   -4.4220    9.2660 c         1 G6I      0.679700
     32 OAC        15.8140   -4.1650    8.4740 o         1 G6I     -0.576100
     33 CBI        15.1650   -5.1320   10.5550 ca        1 G6I     -0.150600
     34 CAU        16.2920   -4.7440   11.2890 ca        1 G6I     -0.032000
     35 CAK        14.3570   -6.1780   11.0080 ca        1 G6I     -0.078000
     36 CAH        14.6670   -6.8310   12.2010 ca        1 G6I     -0.140000
     37 CAL        15.7790   -6.4410   12.9470 ca        1 G6I     -0.063000
     38 CBJ        16.5870   -5.3980   12.4860 ca        1 G6I     -0.175300
     39 CBP        17.7940   -4.9630   13.3090 c3        1 G6I      0.689200
     40 FAF        18.3930   -5.9770   14.0170 f         1 G6I     -0.234300
     41 FAD        18.8160   -4.4080   12.5800 f         1 G6I     -0.234300
     42 FAE        17.5080   -4.0150   14.2630 f         1 G6I     -0.234300
     43 H1         -0.3390    1.1140    0.4370 h1        1 G6I      0.045700
     44 H2         -0.9370   -0.3550    1.3620 h1        1 G6I      0.045700
     45 H3         -1.0180   -0.3320   -0.4750 h1        1 G6I      0.045700
     46 H4          3.1440   -1.6670    0.1810 ha        1 G6I      0.148000
     47 H5          4.9660   -1.3790    1.8470 ha        1 G6I      0.145000
     48 H6          0.5750    0.9290    2.5240 ha        1 G6I      0.148000
     49 H7          2.3600    1.2090    4.1940 ha        1 G6I      0.145000
     50 H8          4.7990    1.0600    4.5330 hn        1 G6I      0.447800
     51 H9          5.9430   -4.1370    4.7950 h5        1 G6I      0.061100
     52 H10         5.8990   -0.1710    8.6950 ha        1 G6I      0.147000
     53 H11         7.1640    0.4050   10.7970 ha        1 G6I      0.148000
     54 H12         9.5960   -0.2790   10.9600 h4        1 G6I      0.023100
     55 H13         9.2530   -2.0530    5.9980 hn        1 G6I      0.443800
     56 H14        11.0440   -3.3610    8.8320 ha        1 G6I      0.149000
     57 H15        10.4990   -1.9610    4.0840 hc        1 G6I      0.043700
     58 H16        10.7440   -0.3760    4.9360 hc        1 G6I      0.043700
     59 H17        12.0400   -1.0400    3.8630 hc        1 G6I      0.043700
     60 H18        13.8050   -2.1050    4.8740 ha        1 G6I      0.136000
     61 H19        14.8720   -3.2790    6.7500 ha        1 G6I      0.174000
     62 H20        12.9190   -4.2710    9.7790 hn        1 G6I      0.320500
     63 H21        16.9460   -3.9390   10.9110 ha        1 G6I      0.174000
     64 H22        13.4840   -6.5060   10.4210 ha        1 G6I      0.146000
     65 H23        14.0350   -7.6600   12.5550 ha        1 G6I      0.148000
     66 H24        16.0290   -6.9540   13.8890 ha        1 G6I      0.156000
@<TRIPOS>BOND
     1    1    2 1   
     2    1   43 1   
     3    1   44 1   
     4    1   45 1   
     5    2    3 1   
     6    3    4 ar  
     7    3    6 ar  
     8    4    5 ar  
     9    4   46 1   
    10    5    8 ar  
    11    5   47 1   
    12    6    7 ar  
    13    6   48 1   
    14    7    8 ar  
    15    7   49 1   
    16    8    9 1   
    17    9   10 1   
    18    9   50 1   
    19   10   11 ar  
    20   10   12 ar  
    21   11   15 ar  
    22   12   13 ar  
    23   13   14 ar  
    24   13   51 1   
    25   14   15 ar  
    26   15   16 1   
    27   16   17 ar  
    28   16   21 ar  
    29   17   18 ar  
    30   17   52 1   
    31   18   19 ar  
    32   18   53 1   
    33   19   20 ar  
    34   19   54 1   
    35   20   21 ar  
    36   21   22 1   
    37   22   23 1   
    38   22   55 1   
    39   23   24 ar  
    40   23   25 ar  
    41   24   29 ar  
    42   24   56 1   
    43   25   26 1   
    44   25   27 ar  
    45   26   57 1   
    46   26   58 1   
    47   26   59 1   
    48   27   28 ar  
    49   27   60 1   
    50   28   29 ar  
    51   28   61 1   
    52   29   30 1   
    53   30   31 1   
    54   30   62 1   
    55   31   32 2   
    56   31   33 1   
    57   33   34 ar  
    58   33   35 ar  
    59   34   38 ar  
    60   34   63 1   
    61   35   36 ar  
    62   35   64 1   
    63   36   37 ar  
    64   36   65 1   
    65   37   38 ar  
    66   37   66 1   
    67   38   39 1   
    68   39   40 1   
    69   39   41 1   
    70   39   42 1   
@<TRIPOS>SUBSTRUCTURE
     1 G6I         1 TEMP              0 ****  ****    0 ROOT
