@<TRIPOS>MOLECULE
G6I
   69    73     1     0     0
SMALL
bcc


@<TRIPOS>ATOM
      1 CAA         1.6740    0.5930   -0.3850 c3        1 G6I      0.099700
      2 OBC         2.6400    1.2840    0.4200 os        1 G6I     -0.282900
      3 CBH         2.7910    0.8840    1.7070 ca        1 G6I      0.227100
      4 CAR         3.7050    1.6580    2.4700 ca        1 G6I     -0.176000
      5 CAP         3.9330    1.3480    3.7940 ca        1 G6I     -0.043500
      6 CAS         2.1260   -0.2090    2.2970 ca        1 G6I     -0.176000
      7 CAQ         2.3560   -0.5250    3.6270 ca        1 G6I     -0.043500
      8 CBF         3.2480    0.2600    4.3830 ca        1 G6I     -0.164400
      9 NBA         3.4240   -0.0120    5.8100 n4        1 G6I     -0.591100
     10 CBK         4.5170   -1.0100    6.0570 ca        1 G6I      0.790900
     11 NAY         5.7210   -0.5280    6.5070 nb        1 G6I     -0.703000
     12 NAW         4.2250   -2.3310    5.8050 nb        1 G6I     -0.662000
     13 CAJ         5.2680   -3.1780    6.0280 ca        1 G6I      0.738900
     14 NAX         6.5040   -2.8180    6.4700 nb        1 G6I     -0.789000
     15 CBM         6.6970   -1.4830    6.7180 cp        1 G6I      0.770500
     16 CBO         7.9980   -1.0170    7.2680 cp        1 G6I     -0.247800
     17 CAN         8.0690    0.2880    7.8050 ca        1 G6I     -0.026000
     18 CAG         9.2570    0.7710    8.3480 ca        1 G6I     -0.182300
     19 CAI        10.3840   -0.0730    8.3540 ca        1 G6I      0.472200
     20 NAV        10.3580   -1.3200    7.8590 nb        1 G6I     -0.655000
     21 CBN         9.1990   -1.7850    7.3270 ca        1 G6I      0.504200
     22 NBB         9.2580   -3.1800    6.8040 n4        1 G6I     -0.613100
     23 CBL        10.5940   -3.7970    6.7780 ca        1 G6I     -0.018400
     24 CAT        11.0600   -4.4580    7.9280 ca        1 G6I     -0.049000
     25 CBE        11.3830   -3.7160    5.6080 ca        1 G6I      0.024700
     26 CAB        10.9220   -3.0180    4.3870 c3        1 G6I     -0.107800
     27 CAM        12.6420   -4.3360    5.6170 ca        1 G6I     -0.089000
     28 CAO        13.1190   -5.0040    6.7380 ca        1 G6I     -0.049000
     29 CBG        12.3240   -5.0710    7.8990 ca        1 G6I     -0.027400
     30 NAZ        12.8250   -5.7810    9.0770 n4        1 G6I     -0.564200
     31 CBD        13.0790   -4.8550   10.2900 c         1 G6I      0.602700
     32 OAC        12.1520   -4.1060   10.5530 o         1 G6I     -0.432100
     33 CBI        14.3770   -5.0010   10.9310 ca        1 G6I     -0.225600
     34 CAU        14.9070   -3.8510   11.5450 ca        1 G6I      0.004000
     35 CAK        15.0730   -6.2230   11.0090 ca        1 G6I     -0.073000
     36 CAH        16.2890   -6.2830   11.6780 ca        1 G6I     -0.112000
     37 CAL        16.8320   -5.1350   12.2720 ca        1 G6I      0.015000
     38 CBJ        16.1350   -3.9270   12.2000 ca        1 G6I     -0.168300
     39 CBP        16.7030   -2.6630   12.8610 c3        1 G6I      0.693200
     40 FAF        18.0670   -2.6650   12.9760 f         1 G6I     -0.210633
     41 FAD        16.3980   -1.5140   12.1740 f         1 G6I     -0.210633
     42 FAE        16.2260   -2.4550   14.1280 f         1 G6I     -0.210633
     43 H1          0.6570    0.6840    0.0660 h1        1 G6I      0.076367
     44 H2          1.7320    1.1460   -1.3600 h1        1 G6I      0.076367
     45 H3          1.9720   -0.4750   -0.5120 h1        1 G6I      0.076367
     46 H4          4.2120    2.5120    1.9880 ha        1 G6I      0.189500
     47 H5          4.6340    1.9670    4.3800 ha        1 G6I      0.159500
     48 H6          1.4130   -0.8130    1.7110 ha        1 G6I      0.189500
     49 H7          1.8270   -1.3840    4.0750 ha        1 G6I      0.159500
     50 H8          3.6490    0.8700    6.2970 hn        1 G6I      0.489800
     51 H9          5.0750   -4.2620    5.8320 h5        1 G6I      0.117100
     52 H10         7.1820    0.9490    7.8090 ha        1 G6I      0.196000
     53 H11         9.3200    1.7910    8.7680 ha        1 G6I      0.210000
     54 H12        11.3600    0.2550    8.7750 h4        1 G6I      0.084100
     55 H13         8.8920   -3.1710    5.8390 hn        1 G6I      0.479800
     56 H14        10.4550   -4.4770    8.8550 ha        1 G6I      0.183000
     57 H15        10.0440   -3.5470    3.9330 hc        1 G6I      0.087033
     58 H16        10.6400   -1.9580    4.6120 hc        1 G6I      0.087033
     59 H17        11.7300   -2.9890    3.6090 hc        1 G6I      0.087033
     60 H18        13.2730   -4.2870    4.7080 ha        1 G6I      0.203000
     61 H19        14.1210   -5.4720    6.6940 ha        1 G6I      0.188000
     62 H20        12.1340   -6.4920    9.3530 hn        1 G6I      0.471300
     63 H21        14.3590   -2.8920   11.5110 ha        1 G6I      0.179000
     64 H22        14.6570   -7.1520   10.5880 ha        1 G6I      0.138000
     65 H23        16.8330   -7.2420   11.7520 ha        1 G6I      0.190000
     66 H24        17.8060   -5.1850   12.7980 ha        1 G6I      0.202000
     67 HBA2        2.5420   -0.3980    6.1900 hn        1 G6I      0.489800
     68 HBB2        8.6400   -3.7590    7.3960 hn        1 G6I      0.479800
     69 HAZ2       13.7040   -6.2570    8.8330 hn        1 G6I      0.471300
@<TRIPOS>BOND
     1    1    2 1   
     2    1   43 1   
     3    1   44 1   
     4    1   45 1   
     5    2    3 1   
     6    3    4 ar  
     7    3    6 ar  
     8    4    5 ar  
     9    4   46 1   
    10    5    8 ar  
    11    5   47 1   
    12    6    7 ar  
    13    6   48 1   
    14    7    8 ar  
    15    7   49 1   
    16    8    9 1   
    17    9   10 1   
    18    9   50 1   
    19    9   67 1   
    20   10   11 ar  
    21   10   12 ar  
    22   11   15 ar  
    23   12   13 ar  
    24   13   14 ar  
    25   13   51 1   
    26   14   15 ar  
    27   15   16 1   
    28   16   17 ar  
    29   16   21 ar  
    30   17   18 ar  
    31   17   52 1   
    32   18   19 ar  
    33   18   53 1   
    34   19   20 ar  
    35   19   54 1   
    36   20   21 ar  
    37   21   22 1   
    38   22   23 1   
    39   22   55 1   
    40   22   68 1   
    41   23   24 ar  
    42   23   25 ar  
    43   24   29 ar  
    44   24   56 1   
    45   25   26 1   
    46   25   27 ar  
    47   26   57 1   
    48   26   58 1   
    49   26   59 1   
    50   27   28 ar  
    51   27   60 1   
    52   28   29 ar  
    53   28   61 1   
    54   29   30 1   
    55   30   31 1   
    56   30   62 1   
    57   30   69 1   
    58   31   32 2   
    59   31   33 1   
    60   33   34 ar  
    61   33   35 ar  
    62   34   38 ar  
    63   34   63 1   
    64   35   36 ar  
    65   35   64 1   
    66   36   37 ar  
    67   36   65 1   
    68   37   38 ar  
    69   37   66 1   
    70   38   39 1   
    71   39   40 1   
    72   39   41 1   
    73   39   42 1   
@<TRIPOS>SUBSTRUCTURE
     1 G6I         1 TEMP              0 ****  ****    0 ROOT
