@<TRIPOS>MOLECULE
G6I
   66    70     1     0     0
SMALL
bcc


@<TRIPOS>ATOM
      1 CAA        -0.4420   -0.0170    0.4160 c3        1 G6I      0.112700
      2 OBC         0.8360   -0.6180    0.2430 os        1 G6I     -0.323900
      3 CBH         1.7570   -0.3930    1.2470 ca        1 G6I      0.124100
      4 CAR         3.0030   -1.0170    1.0590 ca        1 G6I     -0.170000
      5 CAP         4.0070   -0.8540    2.0030 ca        1 G6I     -0.096000
      6 CAS         1.5210    0.3910    2.3810 ca        1 G6I     -0.170000
      7 CAQ         2.5250    0.5440    3.3320 ca        1 G6I     -0.096000
      8 CBF         3.7810   -0.0720    3.1570 ca        1 G6I      0.086600
      9 NBA         4.8140    0.1610    4.0980 nh        1 G6I     -0.703300
     10 CBK         5.4230   -0.8750    4.8140 ca        1 G6I      0.889900
     11 NAY         6.1620   -0.5030    5.9390 nb        1 G6I     -0.778000
     12 NAW         5.3250   -2.1890    4.3580 nb        1 G6I     -0.762000
     13 CAJ         6.0380   -3.0840    5.0810 ca        1 G6I      0.678900
     14 NAX         6.8060   -2.8360    6.1750 nb        1 G6I     -0.751000
     15 CBM         6.8290   -1.5170    6.5660 cp        1 G6I      0.754500
     16 CBO         7.5940   -1.1620    7.7860 cp        1 G6I     -0.327800
     17 CAN         6.9240   -0.5090    8.8260 ca        1 G6I     -0.016000
     18 CAG         7.6050   -0.2000    9.9980 ca        1 G6I     -0.308300
     19 CAI         8.9620   -0.5620   10.0840 ca        1 G6I      0.453200
     20 NAV         9.6480   -1.1690    9.1100 nb        1 G6I     -0.725000
     21 CBN         8.9860   -1.4780    7.9430 ca        1 G6I      0.704200
     22 NBB         9.6700   -2.1110    6.9050 nh        1 G6I     -0.729300
     23 CBL        11.0600   -2.3610    6.9020 ca        1 G6I      0.174600
     24 CAT        11.6620   -3.0580    7.9620 ca        1 G6I     -0.167000
     25 CBE        11.8430   -1.9770    5.7810 ca        1 G6I     -0.137300
     26 CAB        11.2500   -1.2510    4.6340 c3        1 G6I     -0.052800
     27 CAM        13.1980   -2.3020    5.7690 ca        1 G6I     -0.091000
     28 CAO        13.8080   -2.9770    6.8200 ca        1 G6I     -0.164000
     29 CBG        13.0430   -3.3620    7.9370 ca        1 G6I      0.074600
     30 NAZ        13.5780   -4.0580    9.0370 n         1 G6I     -0.464100
     31 CBD        14.9050   -4.3930    9.2570 c         1 G6I      0.679700
     32 OAC        15.8280   -4.1190    8.4700 o         1 G6I     -0.576100
     33 CBI        15.1830   -5.1180   10.5370 ca        1 G6I     -0.150600
     34 CAU        16.3070   -4.7340   11.2770 ca        1 G6I     -0.032000
     35 CAK        14.3800   -6.1750   10.9740 ca        1 G6I     -0.078000
     36 CAH        14.6940   -6.8430   12.1590 ca        1 G6I     -0.140000
     37 CAL        15.8020   -6.4560   12.9110 ca        1 G6I     -0.063000
     38 CBJ        16.6040   -5.4020   12.4650 ca        1 G6I     -0.175300
     39 CBP        17.8080   -4.9710   13.2950 c3        1 G6I      0.689200
     40 FAF        18.4130   -5.9910   13.9890 f         1 G6I     -0.234300
     41 FAD        18.8280   -4.4010   12.5750 f         1 G6I     -0.234300
     42 FAE        17.5150   -4.0380   14.2610 f         1 G6I     -0.234300
     43 H1         -0.9350   -0.3980    1.3430 h1        1 G6I      0.045700
     44 H2         -0.3540    1.0960    0.4480 h1        1 G6I      0.045700
     45 H3         -1.0070   -0.3430   -0.4940 h1        1 G6I      0.045700
     46 H4          3.1710   -1.6290    0.1610 ha        1 G6I      0.148000
     47 H5          4.9800   -1.3450    1.8410 ha        1 G6I      0.145000
     48 H6          0.5520    0.8860    2.5370 ha        1 G6I      0.148000
     49 H7          2.3240    1.1610    4.2210 ha        1 G6I      0.145000
     50 H8          4.7630    1.0410    4.5700 hn        1 G6I      0.447800
     51 H9          5.9810   -4.1420    4.7440 h5        1 G6I      0.061100
     52 H10         5.8610   -0.2460    8.7140 ha        1 G6I      0.147000
     53 H11         7.1070    0.3090   10.8320 ha        1 G6I      0.148000
     54 H12         9.5480   -0.3430   10.9960 h4        1 G6I      0.023100
     55 H13         9.2550   -2.0360    6.0030 hn        1 G6I      0.443800
     56 H14        11.0480   -3.3670    8.8240 ha        1 G6I      0.149000
     57 H15        10.7290   -0.3220    4.9760 hc        1 G6I      0.043700
     58 H16        10.5090   -1.8960    4.0970 hc        1 G6I      0.043700
     59 H17        12.0390   -0.9510    3.9000 hc        1 G6I      0.043700
     60 H18        13.8130   -2.0090    4.9020 ha        1 G6I      0.136000
     61 H19        14.8860   -3.2000    6.7640 ha        1 G6I      0.174000
     62 H20        12.9310   -4.2620    9.7680 hn        1 G6I      0.320500
     63 H21        16.9560   -3.9200   10.9110 ha        1 G6I      0.174000
     64 H22        13.5100   -6.5010   10.3820 ha        1 G6I      0.146000
     65 H23        14.0650   -7.6790   12.5000 ha        1 G6I      0.148000
     66 H24        16.0540   -6.9800   13.8470 ha        1 G6I      0.156000
@<TRIPOS>BOND
     1    1    2 1   
     2    1   43 1   
     3    1   44 1   
     4    1   45 1   
     5    2    3 1   
     6    3    4 ar  
     7    3    6 ar  
     8    4    5 ar  
     9    4   46 1   
    10    5    8 ar  
    11    5   47 1   
    12    6    7 ar  
    13    6   48 1   
    14    7    8 ar  
    15    7   49 1   
    16    8    9 1   
    17    9   10 1   
    18    9   50 1   
    19   10   11 ar  
    20   10   12 ar  
    21   11   15 ar  
    22   12   13 ar  
    23   13   14 ar  
    24   13   51 1   
    25   14   15 ar  
    26   15   16 1   
    27   16   17 ar  
    28   16   21 ar  
    29   17   18 ar  
    30   17   52 1   
    31   18   19 ar  
    32   18   53 1   
    33   19   20 ar  
    34   19   54 1   
    35   20   21 ar  
    36   21   22 1   
    37   22   23 1   
    38   22   55 1   
    39   23   24 ar  
    40   23   25 ar  
    41   24   29 ar  
    42   24   56 1   
    43   25   26 1   
    44   25   27 ar  
    45   26   57 1   
    46   26   58 1   
    47   26   59 1   
    48   27   28 ar  
    49   27   60 1   
    50   28   29 ar  
    51   28   61 1   
    52   29   30 1   
    53   30   31 1   
    54   30   62 1   
    55   31   32 2   
    56   31   33 1   
    57   33   34 ar  
    58   33   35 ar  
    59   34   38 ar  
    60   34   63 1   
    61   35   36 ar  
    62   35   64 1   
    63   36   37 ar  
    64   36   65 1   
    65   37   38 ar  
    66   37   66 1   
    67   38   39 1   
    68   39   40 1   
    69   39   41 1   
    70   39   42 1   
@<TRIPOS>SUBSTRUCTURE
     1 G6I         1 TEMP              0 ****  ****    0 ROOT
