@<TRIPOS>MOLECULE
G6I
   66    54     1     0     0
SMALL
bcc


@<TRIPOS>ATOM
      1 CAA       -10.9840   -0.6440   -4.1160 c3        1 G6I     -0.077000
      2 OBC        -9.9260    0.2450   -4.4020 os        1 G6I     -0.208000
      3 CBH        -8.7960    0.0680   -3.5840 c2        1 G6I      0.078000
      4 CAR        -8.5480    0.9520   -2.5460 c2        1 G6I     -0.144000
      5 CAP        -7.4420    0.7690   -1.7290 c1        1 G6I     -0.125000
      6 CAS        -7.9400   -1.0000   -3.8050 c1        1 G6I     -0.196000
      7 CAQ        -6.8350   -1.1830   -2.9890 c1        1 G6I     -0.058667
      8 CBF        -6.5860   -0.2990   -1.9500 c1        1 G6I     -0.098333
      9 NBA        -5.5060   -0.5380   -1.0580 n2        1 G6I     -0.223000
     10 CBK        -4.2630    0.1220   -1.2530 c2        1 G6I      0.171000
     11 NAY        -3.4750    0.3920   -0.2020 n2        1 G6I     -0.251000
     12 NAW        -3.8690    0.4570   -2.4910 n1        1 G6I     -0.237000
     13 CAJ        -2.6860    1.0620   -2.6770 c1        1 G6I      0.002500
     14 NAX        -1.8980    1.3320   -1.6260 n1        1 G6I     -0.213000
     15 CBM        -2.2920    0.9980   -0.3880 c1        1 G6I      0.122000
     16 CBO        -1.4480    1.3930    0.8080 c2        1 G6I     -0.156000
     17 CAN        -1.9020    2.3390    1.6790 c2        1 G6I     -0.016000
     18 CAG        -1.1120    2.7450    2.7170 c1        1 G6I     -0.243000
     19 CAI         0.1480    2.1950    2.8840 c1        1 G6I      0.002500
     20 NAV         0.6000    1.2490    2.0120 n1        1 G6I     -0.213000
     21 CBN        -0.1860    0.8440    0.9770 c1        1 G6I      0.184000
     22 NBB         0.2930   -0.1280    0.0610 n2        1 G6I     -0.251000
     23 CBL         1.4150   -0.9300    0.4000 c2        1 G6I      0.093000
     24 CAT         2.6910   -0.3880    0.3550 c2        1 G6I     -0.165000
     25 CBE         1.2270   -2.2200    0.8680 c1        1 G6I     -0.129000
     26 CAB        -0.1580   -2.8300    0.8700 c2        1 G6I     -0.178000
     27 CAM         2.3140   -2.9700    1.2930 c2        1 G6I     -0.092000
     28 CAO         3.5890   -2.4280    1.2490 c1        1 G6I     -0.161000
     29 CBG         3.7780   -1.1370    0.7800 c1        1 G6I      0.081000
     30 NAZ         5.0800   -0.5640    0.7810 n2        1 G6I     -0.318000
     31 CBD         6.0730   -1.0590    1.6700 c1        1 G6I      0.353000
     32 OAC         5.8100   -1.9690    2.4280 o         1 G6I     -0.342000
     33 CBI         7.4590   -0.4470    1.6720 c1        1 G6I     -0.098333
     34 CAU         7.6380    0.8640    2.0860 c1        1 G6I     -0.058667
     35 CAK         8.5500   -1.2010    1.2690 c1        1 G6I     -0.058667
     36 CAH         9.8190   -0.6450    1.2780 c1        1 G6I     -0.101500
     37 CAL         9.9980    0.6660    1.6920 c1        1 G6I     -0.101500
     38 CBJ         8.9080    1.4210    2.0950 c1        1 G6I     -0.098333
     39 CBP         9.0910    2.8770    2.4640 c2        1 G6I      0.467000
     40 FAF        10.2110    3.3430    1.8980 f         1 G6I     -0.163667
     41 FAD         8.0420    3.5840    2.0260 f         1 G6I     -0.163667
     42 FAE         9.1820    2.9920    3.7950 f         1 G6I     -0.163667
     43 H1        -10.7010   -1.5640   -4.3100 h1        1 G6I      0.085667
     44 H2        -11.2260   -0.5690   -3.1670 h1        1 G6I      0.085667
     45 H3        -11.7610   -0.4160   -4.6700 h1        1 G6I      0.085667
     46 H4         -9.1510    1.7040   -2.3910 ha        1 G6I      0.153000
     47 H5         -7.2670    1.3920   -0.9980 ha        1 G6I      0.136000
     48 H6         -8.1150   -1.6230   -4.5360 ha        1 G6I      0.142000
     49 H7         -6.2320   -1.9350   -3.1440 ha        1 G6I      0.158333
     50 H8         -5.6110   -1.1160   -0.3600 hn        1 G6I      0.243000
     51 H9         -2.3990    1.3060   -3.5770 ha        1 G6I      0.179000
     52 H10        -2.7900    2.7260    1.5610 ha        1 G6I      0.148000
     53 H11        -1.4360    3.4220    3.3410 ha        1 G6I      0.149000
     54 H12         0.7130    2.4840    3.6260 ha        1 G6I      0.179000
     55 H13        -0.1170   -0.2350   -0.7470 hn        1 G6I      0.239000
     56 H14         2.8240    0.5210    0.0250 ha        1 G6I      0.151000
     57 H15        -0.5750   -2.6960   -0.0070 ha        1 G6I      0.082667
     58 H16        -0.0920   -3.7900    1.0570 ha        1 G6I      0.082667
     59 H17        -0.7040   -2.3990    1.5600 ha        1 G6I      0.082667
     60 H18         2.1810   -3.8790    1.6230 ha        1 G6I      0.136000
     61 H19         4.3530   -2.9550    1.5480 ha        1 G6I      0.171000
     62 H20         5.2680    0.1410    0.2340 hn        1 G6I      0.236000
     63 H21         6.8700    1.3950    2.3700 ha        1 G6I      0.158333
     64 H22         8.4240   -2.1250    0.9780 ha        1 G6I      0.158333
     65 H23        10.5870   -1.1760    0.9940 ha        1 G6I      0.153000
     66 H24        10.8920    1.0580    1.6980 ha        1 G6I      0.153000
@<TRIPOS>BOND
     1    1    2 1   
     2    1   43 1   
     3    1   44 1   
     4    1   45 1   
     5    2    3 1   
     6    3    4 1   
     7    3    6 1   
     8    4    5 1   
     9    4   46 1   
    10    5   47 1   
    11    6   48 1   
    12    7    8 1   
    13    7   49 1   
    14    9   10 1   
    15    9   50 1   
    16   10   11 1   
    17   10   12 1   
    18   11   15 1   
    19   13   14 1   
    20   13   51 1   
    21   15   16 1   
    22   16   17 1   
    23   16   21 1   
    24   17   18 1   
    25   17   52 1   
    26   18   53 1   
    27   19   20 1   
    28   19   54 1   
    29   22   23 1   
    30   22   55 1   
    31   23   24 1   
    32   23   25 1   
    33   24   29 1   
    34   24   56 1   
    35   25   27 1   
    36   26   57 1   
    37   26   58 1   
    38   26   59 1   
    39   27   28 1   
    40   27   60 1   
    41   28   61 1   
    42   30   31 1   
    43   30   62 1   
    44   31   32 1   
    45   33   35 1   
    46   34   38 1   
    47   34   63 1   
    48   35   64 1   
    49   36   37 1   
    50   36   65 1   
    51   37   66 1   
    52   39   40 1   
    53   39   41 1   
    54   39   42 1   
@<TRIPOS>SUBSTRUCTURE
     1 G6I         1 TEMP              0 ****  ****    0 ROOT
