@<TRIPOS>MOLECULE
G6I
   66    70     1     0     0
SMALL
bcc


@<TRIPOS>ATOM
      1 CAA        12.7930   -0.3180   -0.9980 c3        1 G6I      0.112700
      2 OBC        11.6950   -1.2170   -1.1100 os        1 G6I     -0.323900
      3 CBH        10.4830   -0.7620   -0.6300 ca        1 G6I      0.124100
      4 CAR         9.4120   -1.6620   -0.7750 ca        1 G6I     -0.170000
      5 CAP         8.1490   -1.3120   -0.3220 ca        1 G6I     -0.096000
      6 CAS        10.2830    0.4870   -0.0340 ca        1 G6I     -0.170000
      7 CAQ         9.0120    0.8410    0.4100 ca        1 G6I     -0.096000
      8 CBF         7.9290   -0.0510    0.2760 ca        1 G6I      0.086600
      9 NBA         6.6630    0.2980    0.8050 nh        1 G6I     -0.703300
     10 CBK         5.5150    0.3790    0.0090 ca        1 G6I      0.889900
     11 NAY         4.4240    1.0570    0.5590 nb        1 G6I     -0.778000
     12 NAW         5.4810   -0.2550   -1.2330 nb        1 G6I     -0.762000
     13 CAJ         4.2840   -0.1860   -1.8600 ca        1 G6I      0.678900
     14 NAX         3.1530    0.4240   -1.4160 nb        1 G6I     -0.751000
     15 CBM         3.2830    1.0390   -0.1910 cp        1 G6I      0.754500
     16 CBO         2.1170    1.7820    0.3450 cp        1 G6I     -0.327800
     17 CAN         2.2800    3.1310    0.6720 ca        1 G6I     -0.016000
     18 CAG         1.1940    3.8650    1.1390 ca        1 G6I     -0.308300
     19 CAI        -0.0390    3.2000    1.2660 ca        1 G6I      0.453200
     20 NAV        -0.2380    1.9090    0.9850 nb        1 G6I     -0.725000
     21 CBN         0.8290    1.1710    0.5250 ca        1 G6I      0.704200
     22 NBB         0.6590   -0.1790    0.2210 nh        1 G6I     -0.729300
     23 CBL        -0.5230   -0.9100    0.4700 ca        1 G6I      0.174600
     24 CAT        -1.7570   -0.4600   -0.0270 ca        1 G6I     -0.167000
     25 CBE        -0.4550   -2.1500    1.1590 ca        1 G6I     -0.137300
     26 CAB         0.8260   -2.6710    1.6910 c3        1 G6I     -0.052800
     27 CAM        -1.6260   -2.8880    1.3270 ca        1 G6I     -0.091000
     28 CAO        -2.8550   -2.4450    0.8530 ca        1 G6I     -0.164000
     29 CBG        -2.9370   -1.2160    0.1700 ca        1 G6I      0.074600
     30 NAZ        -4.1370   -0.7010   -0.3520 n         1 G6I     -0.464100
     31 CBD        -5.4120   -1.2240   -0.2040 c         1 G6I      0.679700
     32 OAC        -5.6640   -2.2680    0.4240 o         1 G6I     -0.576100
     33 CBI        -6.5100   -0.4410   -0.8540 ca        1 G6I     -0.150600
     34 CAU        -7.6980   -0.2580   -0.1360 ca        1 G6I     -0.032000
     35 CAK        -6.3860    0.0650   -2.1510 ca        1 G6I     -0.078000
     36 CAH        -7.4460    0.7650   -2.7280 ca        1 G6I     -0.140000
     37 CAL        -8.6270    0.9660   -2.0150 ca        1 G6I     -0.063000
     38 CBJ        -8.7470    0.4530   -0.7200 ca        1 G6I     -0.175300
     39 CBP       -10.0330    0.6850    0.0640 c3        1 G6I      0.689200
     40 FAF       -11.1660    0.7480   -0.7110 f         1 G6I     -0.234300
     41 FAD       -10.3160   -0.2780    1.0000 f         1 G6I     -0.234300
     42 FAE       -10.0500    1.8620    0.7740 f         1 G6I     -0.234300
     43 H1         12.5960    0.6200   -1.5720 h1        1 G6I      0.045700
     44 H2         13.0050   -0.0860    0.0740 h1        1 G6I      0.045700
     45 H3         13.6420   -0.8880   -1.4540 h1        1 G6I      0.045700
     46 H4          9.5890   -2.6400   -1.2460 ha        1 G6I      0.148000
     47 H5          7.3210   -2.0290   -0.4370 ha        1 G6I      0.145000
     48 H6         11.1130    1.1980    0.0870 ha        1 G6I      0.148000
     49 H7          8.8690    1.8290    0.8750 ha        1 G6I      0.145000
     50 H8          6.6900    0.9180    1.5890 hn        1 G6I      0.447800
     51 H9          4.2240   -0.6810   -2.8540 h5        1 G6I      0.061100
     52 H10         3.2650    3.6100    0.5540 ha        1 G6I      0.147000
     53 H11         1.2890    4.9250    1.4010 ha        1 G6I      0.148000
     54 H12        -0.9360    3.7390    1.6290 h4        1 G6I      0.023100
     55 H13         1.4920   -0.7260    0.1930 hn        1 G6I      0.443800
     56 H14        -1.8050    0.4950   -0.5740 ha        1 G6I      0.149000
     57 H15         1.3130   -1.9200    2.3620 hc        1 G6I      0.043700
     58 H16         0.6620   -3.6050    2.2830 hc        1 G6I      0.043700
     59 H17         1.5320   -2.9130    0.8570 hc        1 G6I      0.043700
     60 H18        -1.5810   -3.8520    1.8590 ha        1 G6I      0.136000
     61 H19        -3.7520   -3.0620    1.0220 ha        1 G6I      0.174000
     62 H20        -4.0590    0.1800   -0.8120 hn        1 G6I      0.320500
     63 H21        -7.8020   -0.6870    0.8750 ha        1 G6I      0.174000
     64 H22        -5.4650   -0.0990   -2.7310 ha        1 G6I      0.146000
     65 H23        -7.3520    1.1590   -3.7520 ha        1 G6I      0.148000
     66 H24        -9.4670    1.5180   -2.4660 ha        1 G6I      0.156000
@<TRIPOS>BOND
     1    1    2 1   
     2    1   43 1   
     3    1   44 1   
     4    1   45 1   
     5    2    3 1   
     6    3    4 ar  
     7    3    6 ar  
     8    4    5 ar  
     9    4   46 1   
    10    5    8 ar  
    11    5   47 1   
    12    6    7 ar  
    13    6   48 1   
    14    7    8 ar  
    15    7   49 1   
    16    8    9 1   
    17    9   10 1   
    18    9   50 1   
    19   10   11 ar  
    20   10   12 ar  
    21   11   15 ar  
    22   12   13 ar  
    23   13   14 ar  
    24   13   51 1   
    25   14   15 ar  
    26   15   16 1   
    27   16   17 ar  
    28   16   21 ar  
    29   17   18 ar  
    30   17   52 1   
    31   18   19 ar  
    32   18   53 1   
    33   19   20 ar  
    34   19   54 1   
    35   20   21 ar  
    36   21   22 1   
    37   22   23 1   
    38   22   55 1   
    39   23   24 ar  
    40   23   25 ar  
    41   24   29 ar  
    42   24   56 1   
    43   25   26 1   
    44   25   27 ar  
    45   26   57 1   
    46   26   58 1   
    47   26   59 1   
    48   27   28 ar  
    49   27   60 1   
    50   28   29 ar  
    51   28   61 1   
    52   29   30 1   
    53   30   31 1   
    54   30   62 1   
    55   31   32 2   
    56   31   33 1   
    57   33   34 ar  
    58   33   35 ar  
    59   34   38 ar  
    60   34   63 1   
    61   35   36 ar  
    62   35   64 1   
    63   36   37 ar  
    64   36   65 1   
    65   37   38 ar  
    66   37   66 1   
    67   38   39 1   
    68   39   40 1   
    69   39   41 1   
    70   39   42 1   
@<TRIPOS>SUBSTRUCTURE
     1 G6I         1 TEMP              0 ****  ****    0 ROOT
