@<TRIPOS>MOLECULE
G6K
   61    57     1     0     0
SMALL
bcc


@<TRIPOS>ATOM
      1 C1         -2.1500    7.1460    4.0540 c3        1 G6K     -0.205000
      2 C2         -1.9840    6.5470    2.6450 c3        1 G6K     -0.172000
      3 C3         -2.4650    5.1160    2.6380 c1        1 G6K      0.307000
      4 O4         -3.4660    4.8160    3.2320 o         1 G6K     -0.363000
      5 N5         -1.6960    4.0890    1.9360 n2        1 G6K     -0.350000
      6 C6         -0.5880    4.2570    1.2420 c3        1 G6K     -0.024000
      7 C7         -0.5620    3.0650    0.1260 c3        1 G6K     -0.199000
      8 C8         -1.0350    2.0210    0.7070 c3        1 G6K      0.008000
      9 C9         -2.0060    2.5940    1.8470 c3        1 G6K     -0.028000
     10 N10        -1.8000    1.2000   -0.2580 n3        1 G6K     -0.264000
     11 C11        -1.3050   -0.1120   -0.6490 c1        1 G6K      0.193000
     12 N12        -1.2270   -0.4460   -1.9800 n1        1 G6K     -0.223000
     13 C13        -0.7960   -1.6560   -2.3440 c1        1 G6K      0.090000
     14 C14        -0.6700   -2.0140   -3.8640 c2        1 G6K     -0.035000
     15 N15         0.5580   -1.4490   -4.3870 n3        1 G6K     -0.233000
     16 C16         1.6140   -2.3950   -4.2190 c3        1 G6K     -0.110500
     17 C17         1.4650   -3.6020   -5.1470 c3        1 G6K     -0.059000
     18 O18         1.2810   -3.2190   -6.5140 os        1 G6K     -0.267000
     19 C19         0.2310   -2.2780   -6.6840 c3        1 G6K     -0.059000
     20 C20         0.3730   -1.0680   -5.7550 c3        1 G6K     -0.110500
     21 C21        -0.4220   -2.5900   -1.3690 c2        1 G6K     -0.336000
     22 C22        -0.4980   -2.2610   -0.0480 c1        1 G6K      0.198000
     23 N23        -0.1630   -3.2030    0.9230 n2        1 G6K     -0.241000
     24 C24         0.9100   -2.9390    1.8370 c2        1 G6K     -0.101000
     25 N25         2.2210   -3.4530    1.9040 n2        1 G6K     -0.166000
     26 C26         2.6550   -3.5220    3.4180 c1        1 G6K     -0.071000
     27 C27         3.8040   -3.9030    3.9990 c1        1 G6K     -0.114500
     28 C28         3.9440   -3.8270    5.3960 c1        1 G6K     -0.114500
     29 C29         2.9000   -3.3600    6.1710 c1        1 G6K     -0.072000
     30 N30         1.7290   -2.9720    5.5790 n1        1 G6K     -0.094000
     31 C31         1.5900   -3.0460    4.2090 c1        1 G6K     -0.322000
     32 S32         0.4430   -2.6570    3.2630 s         1 G6K      0.564000
     33 N33        -0.9360   -1.0300    0.3190 n2        1 G6K     -0.289000
     34 H1         -1.7410    8.0400    4.0770 hc        1 G6K      0.085667
     35 H2         -3.1140    7.2170    4.2710 hc        1 G6K      0.085667
     36 H3         -1.6930    6.5490    4.7340 hc        1 G6K      0.085667
     37 H4         -2.5210    7.0780    1.9930 hc        1 G6K      0.100500
     38 H5         -1.0160    6.5780    2.3840 hc        1 G6K      0.100500
     39 H6          0.2460    4.1800    1.8740 h1        1 G6K      0.081500
     40 H7         -0.5960    5.1630    0.7820 h1        1 G6K      0.081500
     41 H8          0.3150    2.9080   -0.1580 hc        1 G6K      0.106000
     42 H9         -1.1120    3.3020   -0.6230 hc        1 G6K      0.106000
     43 H10        -0.2710    1.4650    1.1300 h1        1 G6K      0.135000
     44 H11        -2.9140    2.4600    1.6080 h1        1 G6K      0.107500
     45 H12        -1.8080    2.1440    2.7280 h1        1 G6K      0.107500
     46 H13        -2.5600    1.5660   -0.6910 hn        1 G6K      0.233000
     47 H14        -0.6540   -2.9900   -3.9710 h4        1 G6K      0.093000
     48 H15        -1.4560   -1.6360   -4.3630 h4        1 G6K      0.093000
     49 H17         1.6170   -2.6860   -3.3510 h1        1 G6K      0.106000
     50 H18         2.4980   -1.9360   -4.4160 h1        1 G6K      0.106000
     51 H19         0.7050   -4.1140   -4.8650 h1        1 G6K      0.090750
     52 H20         2.2470   -4.1460   -5.0780 h1        1 G6K      0.090750
     53 H21         0.2340   -1.9520   -7.6550 h1        1 G6K      0.090750
     54 H22        -0.6740   -2.7480   -6.4880 h1        1 G6K      0.090750
     55 H23        -0.4250   -0.5210   -5.8250 h1        1 G6K      0.106000
     56 H24         1.1390   -0.5430   -6.0390 h1        1 G6K      0.106000
     57 H25        -0.0940   -3.5090   -1.6450 ha        1 G6K      0.153000
     58 H26        -0.6090   -4.0850    0.9290 hn        1 G6K      0.263000
     59 H27         4.5520   -4.2350    3.4440 ha        1 G6K      0.150000
     60 H28         4.7550   -4.0950    5.8060 ha        1 G6K      0.150000
     61 H29         3.0020   -3.3020    7.1760 ha        1 G6K      0.162000
@<TRIPOS>BOND
     1    1    2 1   
     2    1   34 1   
     3    1   35 1   
     4    1   36 1   
     5    2    3 1   
     6    2   37 1   
     7    2   38 1   
     8    3    4 1   
     9    5    6 1   
    10    5    9 1   
    11    6    7 1   
    12    6   39 1   
    13    6   40 1   
    14    7    8 1   
    15    7   41 1   
    16    7   42 1   
    17    8    9 1   
    18    8   10 1   
    19    8   43 1   
    20    9   44 1   
    21    9   45 1   
    22   10   11 1   
    23   10   46 1   
    24   11   33 1   
    25   12   13 1   
    26   13   21 1   
    27   14   15 1   
    28   14   47 1   
    29   14   48 1   
    30   15   16 1   
    31   15   20 1   
    32   16   17 1   
    33   16   49 1   
    34   16   50 1   
    35   17   18 1   
    36   17   51 1   
    37   17   52 1   
    38   18   19 1   
    39   19   20 1   
    40   19   53 1   
    41   19   54 1   
    42   20   55 1   
    43   20   56 1   
    44   21   22 1   
    45   21   57 1   
    46   22   33 1   
    47   23   24 1   
    48   23   58 1   
    49   24   25 1   
    50   24   32 1   
    51   25   26 1   
    52   26   31 1   
    53   27   28 1   
    54   27   59 1   
    55   28   60 1   
    56   29   30 1   
    57   29   61 1   
@<TRIPOS>SUBSTRUCTURE
     1 G6K         1 TEMP              0 ****  ****    0 ROOT
