@<TRIPOS>MOLECULE
G6K
   63    67     1     0     0
SMALL
bcc


@<TRIPOS>ATOM
      1 C1         -0.8750   -1.1130    0.1900 c3        1 G6K     -0.097100
      2 C2          0.1240   -0.5380    1.1620 c3        1 G6K     -0.136400
      3 C3          1.2630   -1.5000    1.4020 c         1 G6K      0.661100
      4 O4          1.2960   -2.6690    0.9930 o         1 G6K     -0.540100
      5 N5          2.4000   -1.0230    2.0940 n         1 G6K     -0.510800
      6 C6          2.3770    0.1660    2.9250 c3        1 G6K      0.070000
      7 C7          3.6450    0.1280    3.8070 c3        1 G6K     -0.118400
      8 C8          4.4380   -1.1090    3.3410 c3        1 G6K      0.117500
      9 C9          3.3670   -1.9720    2.6050 c3        1 G6K      0.058000
     10 N10         5.5400   -0.7510    2.3640 n4        1 G6K     -0.744700
     11 C11         6.7550   -0.1980    3.0290 ca        1 G6K      0.756900
     12 N12         7.4860   -1.0810    3.7960 nb        1 G6K     -0.650000
     13 C13         8.6010   -0.5980    4.3770 ca        1 G6K      0.514600
     14 C14         9.4680   -1.5420    5.2130 c3        1 G6K      0.108500
     15 N15         9.9880   -0.8640    6.3810 n3        1 G6K     -0.766600
     16 C16         9.3050   -1.2400    7.6160 c3        1 G6K      0.129300
     17 C17         9.8980   -0.5410    8.8480 c3        1 G6K      0.125400
     18 O18        11.3030   -0.7320    8.9210 os        1 G6K     -0.382600
     19 C19        11.9700   -0.2590    7.7620 c3        1 G6K      0.125400
     20 C20        11.4430   -0.9460    6.4940 c3        1 G6K      0.129300
     21 C21         9.0070    0.7620    4.2030 ca        1 G6K     -0.228600
     22 C22         8.1770    1.5750    3.4150 ca        1 G6K      0.518200
     23 N23         8.5330    3.0020    3.1950 n4        1 G6K     -0.647700
     24 C24         9.5610    3.1570    2.1710 cc        1 G6K      0.220100
     25 N25        10.7700    2.5680    2.3080 nd        1 G6K     -0.465100
     26 C26        11.5490    2.9190    1.2300 ca        1 G6K     -0.037900
     27 C27        12.9010    2.5420    0.9760 ca        1 G6K     -0.015000
     28 C28        13.4970    3.0190   -0.1700 ca        1 G6K     -0.217300
     29 C29        12.7620    3.8620   -1.0610 ca        1 G6K      0.485200
     30 N30        11.4980    4.2400   -0.8640 nb        1 G6K     -0.617000
     31 C31        10.8950    3.7840    0.2610 ca        1 G6K      0.402600
     32 S32         9.3210    4.1150    0.7630 ss        1 G6K      0.146500
     33 N33         7.0340    1.1190    2.8100 nb        1 G6K     -0.685000
     34 H1         -1.2720   -2.0890    0.5620 hc        1 G6K      0.062033
     35 H2         -0.4010   -1.2900   -0.8060 hc        1 G6K      0.062033
     36 H3         -1.7270   -0.4010    0.0630 hc        1 G6K      0.062033
     37 H4         -0.3740   -0.3330    2.1490 hc        1 G6K      0.070700
     38 H5          0.5260    0.4340    0.7710 hc        1 G6K      0.070700
     39 H6          2.3750    1.0740    2.2610 h1        1 G6K      0.074200
     40 H7          1.4580    0.2110    3.5740 h1        1 G6K      0.074200
     41 H8          4.2180    1.0820    3.7270 hc        1 G6K      0.088700
     42 H9          3.3650   -0.0160    4.8830 hc        1 G6K      0.088700
     43 H10         4.9010   -1.6780    4.1930 hx        1 G6K      0.135700
     44 H11         3.7670   -2.6000    1.7610 h1        1 G6K      0.100200
     45 H12         2.9200   -2.6790    3.3640 h1        1 G6K      0.100200
     46 H13         5.1680   -0.0690    1.6840 hn        1 G6K      0.485800
     47 H14         8.8610   -2.4570    5.4850 h1        1 G6K      0.098700
     48 H15        10.2970   -1.8810    4.5210 h1        1 G6K      0.098700
     49 H17         9.3530   -2.3560    7.7850 h1        1 G6K      0.051450
     50 H18         8.2240   -0.9460    7.5190 h1        1 G6K      0.051450
     51 H19         9.6600    0.5550    8.8350 h1        1 G6K      0.069200
     52 H20         9.4990   -1.0140    9.7850 h1        1 G6K      0.069200
     53 H21        13.0470   -0.5320    7.9250 h1        1 G6K      0.069200
     54 H22        11.8600    0.8550    7.6850 h1        1 G6K      0.069200
     55 H23        11.7920   -2.0190    6.5010 h1        1 G6K      0.051450
     56 H24        11.8900   -0.4350    5.5960 h1        1 G6K      0.051450
     57 H25         9.9410    1.1240    4.6730 ha        1 G6K      0.232000
     58 H26         8.8890    3.3740    4.0940 hn        1 G6K      0.488800
     59 H27        13.4380    1.8940    1.6880 ha        1 G6K      0.179000
     60 H28        14.5410    2.7650   -0.4160 ha        1 G6K      0.189000
     61 H29        13.2390    4.2500   -1.9870 h4        1 G6K      0.073100
     62 H102        5.8160   -1.6070    1.8550 hn        1 G6K      0.485800
     63 H232        7.7030    3.5450    2.9080 hn        1 G6K      0.488800
@<TRIPOS>BOND
     1    1    2 1   
     2    1   34 1   
     3    1   35 1   
     4    1   36 1   
     5    2    3 1   
     6    2   37 1   
     7    2   38 1   
     8    3    4 2   
     9    3    5 1   
    10    5    6 1   
    11    5    9 1   
    12    6    7 1   
    13    6   39 1   
    14    6   40 1   
    15    7    8 1   
    16    7   41 1   
    17    7   42 1   
    18    8    9 1   
    19    8   10 1   
    20    8   43 1   
    21    9   44 1   
    22    9   45 1   
    23   10   11 1   
    24   10   46 1   
    25   10   62 1   
    26   11   12 ar  
    27   11   33 ar  
    28   12   13 ar  
    29   13   14 1   
    30   13   21 ar  
    31   14   15 1   
    32   14   47 1   
    33   14   48 1   
    34   15   16 1   
    35   15   20 1   
    36   16   17 1   
    37   16   49 1   
    38   16   50 1   
    39   17   18 1   
    40   17   51 1   
    41   17   52 1   
    42   18   19 1   
    43   19   20 1   
    44   19   53 1   
    45   19   54 1   
    46   20   55 1   
    47   20   56 1   
    48   21   22 ar  
    49   21   57 1   
    50   22   23 1   
    51   22   33 ar  
    52   23   24 1   
    53   23   58 1   
    54   23   63 1   
    55   24   25 2   
    56   24   32 1   
    57   25   26 1   
    58   26   27 ar  
    59   26   31 ar  
    60   27   28 ar  
    61   27   59 1   
    62   28   29 ar  
    63   28   60 1   
    64   29   30 ar  
    65   29   61 1   
    66   30   31 ar  
    67   31   32 1   
@<TRIPOS>SUBSTRUCTURE
     1 G6K         1 TEMP              0 ****  ****    0 ROOT
