@<TRIPOS>MOLECULE
G6K
   61    65     1     0     0
SMALL
bcc


@<TRIPOS>ATOM
      1 C1          6.4370    5.2490   -0.0300 c3        1 G6K     -0.088100
      2 C2          5.5090    4.1460   -0.4680 c3        1 G6K     -0.144400
      3 C3          4.2470    4.1240    0.3730 c         1 G6K      0.658100
      4 O4          4.1260    4.7950    1.4160 o         1 G6K     -0.599100
      5 N5          3.1820    3.3530   -0.0740 n         1 G6K     -0.478800
      6 C6          3.3130    2.3440   -1.1040 c3        1 G6K      0.088000
      7 C7          2.0980    1.4140   -1.0110 c3        1 G6K     -0.115400
      8 C8          1.3080    1.8410    0.2510 c3        1 G6K      0.208500
      9 C9          2.0150    3.1390    0.7570 c3        1 G6K      0.083000
     10 N10        -0.1100    2.0370    0.0720 nh        1 G6K     -0.826900
     11 C11        -0.9370    0.9840   -0.3430 ca        1 G6K      0.915900
     12 N12        -2.2400    1.3240   -0.7020 nb        1 G6K     -0.750000
     13 C13        -3.0690    0.3000   -0.9740 ca        1 G6K      0.512600
     14 C14        -4.5060    0.6140   -1.3690 c3        1 G6K      0.120500
     15 N15        -5.3610    0.7540   -0.2020 n3        1 G6K     -0.724600
     16 C16        -6.5010    1.6290   -0.4430 c3        1 G6K      0.134800
     17 C17        -7.4170    1.7390    0.7820 c3        1 G6K      0.126900
     18 O18        -7.8080    0.4590    1.2660 os        1 G6K     -0.415600
     19 C19        -6.6860   -0.3590    1.5780 c3        1 G6K      0.126900
     20 C20        -5.7580   -0.5250    0.3700 c3        1 G6K      0.134800
     21 C21        -2.6710   -1.0490   -0.9330 ca        1 G6K     -0.465600
     22 C22        -1.3080   -1.3110   -0.6050 ca        1 G6K      0.716200
     23 N23        -0.8600   -2.6370   -0.6270 nh        1 G6K     -0.786900
     24 C24         0.4140   -3.0490   -0.2540 cc        1 G6K      0.563100
     25 N25         0.7130   -4.3530   -0.0810 nd        1 G6K     -0.592100
     26 C26         2.0640   -4.4750    0.2200 ca        1 G6K      0.004100
     27 C27         2.7700   -5.6740    0.4690 ca        1 G6K     -0.053000
     28 C28         4.1210   -5.5830    0.7530 ca        1 G6K     -0.240300
     29 C29         4.7490   -4.3110    0.7860 ca        1 G6K      0.393200
     30 N30         4.1200   -3.1540    0.5570 nb        1 G6K     -0.622000
     31 C31         2.7970   -3.2300    0.2790 ca        1 G6K      0.334600
     32 S32         1.7500   -1.9340   -0.0400 ss        1 G6K      0.003500
     33 N33        -0.4320   -0.3060   -0.3110 nb        1 G6K     -0.818000
     34 H1          6.6930    5.1380    1.0520 hc        1 G6K      0.047033
     35 H2          7.3770    5.2170   -0.6310 hc        1 G6K      0.047033
     36 H3          5.9520    6.2460   -0.1670 hc        1 G6K      0.047033
     37 H4          5.2410    4.2770   -1.5500 hc        1 G6K      0.062700
     38 H5          6.0160    3.1500   -0.3600 hc        1 G6K      0.062700
     39 H6          3.3540    2.8460   -2.1110 h1        1 G6K      0.044200
     40 H7          4.2680    1.7600   -0.9750 h1        1 G6K      0.044200
     41 H8          1.4800    1.4960   -1.9380 hc        1 G6K      0.066200
     42 H9          2.4190    0.3450   -0.9100 hc        1 G6K      0.066200
     43 H10         1.4360    1.0420    1.0410 h1        1 G6K      0.088700
     44 H11         2.3140    3.0150    1.8350 h1        1 G6K      0.066200
     45 H12         1.3550    4.0480    0.6920 h1        1 G6K      0.066200
     46 H13        -0.3970    2.9490   -0.2170 hn        1 G6K      0.441800
     47 H14        -4.5240    1.5790   -1.9540 h1        1 G6K      0.054200
     48 H15        -4.8560   -0.2100   -2.0590 h1        1 G6K      0.054200
     49 H17        -6.1060    2.6550   -0.6840 h1        1 G6K      0.041950
     50 H18        -7.1180    1.2740   -1.3200 h1        1 G6K      0.041950
     51 H19        -6.9120    2.3120    1.6030 h1        1 G6K      0.056450
     52 H20        -8.3810    2.2370    0.4980 h1        1 G6K      0.056450
     53 H21        -6.1310    0.0790    2.4490 h1        1 G6K      0.056450
     54 H22        -7.1310   -1.3490    1.8610 h1        1 G6K      0.056450
     55 H23        -6.2780   -1.1770   -0.3920 h1        1 G6K      0.041950
     56 H24        -4.8210   -1.0560    0.7000 h1        1 G6K      0.041950
     57 H25        -3.3810   -1.8530   -1.1540 ha        1 G6K      0.155000
     58 H26        -1.5640   -3.3380   -0.7300 hn        1 G6K      0.465800
     59 H27         2.2490   -6.6420    0.4350 ha        1 G6K      0.154000
     60 H28         4.7160   -6.4840    0.9550 ha        1 G6K      0.146000
     61 H29         5.8280   -4.2300    1.0120 h4        1 G6K      0.025100
@<TRIPOS>BOND
     1    1    2 1   
     2    1   34 1   
     3    1   35 1   
     4    1   36 1   
     5    2    3 1   
     6    2   37 1   
     7    2   38 1   
     8    3    4 2   
     9    3    5 1   
    10    5    6 1   
    11    5    9 1   
    12    6    7 1   
    13    6   39 1   
    14    6   40 1   
    15    7    8 1   
    16    7   41 1   
    17    7   42 1   
    18    8    9 1   
    19    8   10 1   
    20    8   43 1   
    21    9   44 1   
    22    9   45 1   
    23   10   11 1   
    24   10   46 1   
    25   11   12 ar  
    26   11   33 ar  
    27   12   13 ar  
    28   13   14 1   
    29   13   21 ar  
    30   14   15 1   
    31   14   47 1   
    32   14   48 1   
    33   15   16 1   
    34   15   20 1   
    35   16   17 1   
    36   16   49 1   
    37   16   50 1   
    38   17   18 1   
    39   17   51 1   
    40   17   52 1   
    41   18   19 1   
    42   19   20 1   
    43   19   53 1   
    44   19   54 1   
    45   20   55 1   
    46   20   56 1   
    47   21   22 ar  
    48   21   57 1   
    49   22   23 1   
    50   22   33 ar  
    51   23   24 1   
    52   23   58 1   
    53   24   25 2   
    54   24   32 1   
    55   25   26 1   
    56   26   27 ar  
    57   26   31 ar  
    58   27   28 ar  
    59   27   59 1   
    60   28   29 ar  
    61   28   60 1   
    62   29   30 ar  
    63   29   61 1   
    64   30   31 ar  
    65   31   32 1   
@<TRIPOS>SUBSTRUCTURE
     1 G6K         1 TEMP              0 ****  ****    0 ROOT
