@<TRIPOS>MOLECULE
G6K
   61    65     1     0     0
SMALL
bcc


@<TRIPOS>ATOM
      1 C1         -0.0680   -0.3350   -0.1530 c3        1 G6K     -0.088100
      2 C2          1.4310   -0.3700   -0.0140 c3        1 G6K     -0.144400
      3 C3          1.8560   -0.1030    1.4170 c         1 G6K      0.658100
      4 O4          1.0620    0.3060    2.2850 o         1 G6K     -0.599100
      5 N5          3.1740   -0.3720    1.7640 n         1 G6K     -0.478800
      6 C6          4.2210   -0.5830    0.7870 c3        1 G6K      0.088000
      7 C7          5.5700   -0.3890    1.4910 c3        1 G6K     -0.115400
      8 C8          5.2540    0.1150    2.9210 c3        1 G6K      0.208500
      9 C9          3.7000    0.0230    3.0550 c3        1 G6K      0.083000
     10 N10         5.9270   -0.5740    3.9960 nh        1 G6K     -0.826900
     11 C11         7.3260   -0.5810    4.0850 ca        1 G6K      0.915900
     12 N12         7.8830   -1.4520    5.0200 nb        1 G6K     -0.750000
     13 C13         9.2140   -1.3650    5.1960 ca        1 G6K      0.512600
     14 C14         9.8740   -2.2910    6.2080 c3        1 G6K      0.120500
     15 N15         9.8450   -1.7260    7.5460 n3        1 G6K     -0.724600
     16 C16         9.8630   -2.7460    8.5870 c3        1 G6K      0.134800
     17 C17         9.8710   -2.1380    9.9950 c3        1 G6K      0.126900
     18 O18        10.9150   -1.1830   10.1520 os        1 G6K     -0.415600
     19 C19        10.8390   -0.1450    9.1820 c3        1 G6K      0.126900
     20 C20        10.8620   -0.7050    7.7560 c3        1 G6K      0.134800
     21 C21        10.0320   -0.4740    4.4760 ca        1 G6K     -0.465600
     22 C22         9.3920    0.3480    3.5030 ca        1 G6K      0.716200
     23 N23        10.1860    1.1920    2.7180 nh        1 G6K     -0.786900
     24 C24         9.6960    2.1040    1.7900 cc        1 G6K      0.563100
     25 N25        10.4900    3.0420    1.2330 nd        1 G6K     -0.592100
     26 C26         9.7570    3.7630    0.2980 ca        1 G6K      0.004100
     27 C27        10.2250    4.8290   -0.5030 ca        1 G6K     -0.053000
     28 C28         9.3320    5.4220   -1.3780 ca        1 G6K     -0.240300
     29 C29         7.9950    4.9500   -1.4460 ca        1 G6K      0.393200
     30 N30         7.5120    3.9470   -0.7080 nb        1 G6K     -0.622000
     31 C31         8.3760    3.3590    0.1530 ca        1 G6K      0.334600
     32 S32         8.0400    2.0800    1.2150 ss        1 G6K      0.003500
     33 N33         8.0430    0.3030    3.2950 nb        1 G6K     -0.818000
     34 H1         -0.3550   -0.4880   -1.2220 hc        1 G6K      0.047033
     35 H2         -0.4700    0.6480    0.1950 hc        1 G6K      0.047033
     36 H3         -0.5380   -1.1360    0.4660 hc        1 G6K      0.047033
     37 H4          1.8970    0.4150   -0.6680 hc        1 G6K      0.062700
     38 H5          1.8240   -1.3680   -0.3470 hc        1 G6K      0.062700
     39 H6          4.1190    0.1360   -0.0740 h1        1 G6K      0.044700
     40 H7          4.1350   -1.6260    0.3740 h1        1 G6K      0.044700
     41 H8          6.1950    0.3700    0.9540 hc        1 G6K      0.066200
     42 H9          6.1390   -1.3500    1.5030 hc        1 G6K      0.066200
     43 H10         5.5470    1.2040    2.9900 h1        1 G6K      0.088700
     44 H11         3.3720   -0.7310    3.8230 h1        1 G6K      0.065700
     45 H12         3.2840    1.0220    3.3640 h1        1 G6K      0.065700
     46 H13         5.4680   -1.3850    4.3560 hn        1 G6K      0.441800
     47 H14        10.9280   -2.4870    5.8500 h1        1 G6K      0.054200
     48 H15         9.3270   -3.2780    6.2150 h1        1 G6K      0.054200
     49 H17        10.7590   -3.4260    8.4860 h1        1 G6K      0.041950
     50 H18         8.9340   -3.3710    8.4750 h1        1 G6K      0.041950
     51 H19        10.1000   -2.9300   10.7550 h1        1 G6K      0.056450
     52 H20         8.8840   -1.6560   10.2230 h1        1 G6K      0.056450
     53 H21        11.7530    0.4780    9.3670 h1        1 G6K      0.056450
     54 H22         9.9140    0.4650    9.3540 h1        1 G6K      0.056450
     55 H23        10.6590    0.1320    7.0320 h1        1 G6K      0.041950
     56 H24        11.8990   -1.1030    7.5470 h1        1 G6K      0.041950
     57 H25        11.1110   -0.4300    4.6570 ha        1 G6K      0.155000
     58 H26        11.1440    1.2750    2.9900 hn        1 G6K      0.465800
     59 H27        11.2680    5.1680   -0.4220 ha        1 G6K      0.154000
     60 H28         9.6440    6.2550   -2.0230 ha        1 G6K      0.146000
     61 H29         7.2760    5.4180   -2.1430 h4        1 G6K      0.025100
@<TRIPOS>BOND
     1    1    2 1   
     2    1   34 1   
     3    1   35 1   
     4    1   36 1   
     5    2    3 1   
     6    2   37 1   
     7    2   38 1   
     8    3    4 2   
     9    3    5 1   
    10    5    6 1   
    11    5    9 1   
    12    6    7 1   
    13    6   39 1   
    14    6   40 1   
    15    7    8 1   
    16    7   41 1   
    17    7   42 1   
    18    8    9 1   
    19    8   10 1   
    20    8   43 1   
    21    9   44 1   
    22    9   45 1   
    23   10   11 1   
    24   10   46 1   
    25   11   12 ar  
    26   11   33 ar  
    27   12   13 ar  
    28   13   14 1   
    29   13   21 ar  
    30   14   15 1   
    31   14   47 1   
    32   14   48 1   
    33   15   16 1   
    34   15   20 1   
    35   16   17 1   
    36   16   49 1   
    37   16   50 1   
    38   17   18 1   
    39   17   51 1   
    40   17   52 1   
    41   18   19 1   
    42   19   20 1   
    43   19   53 1   
    44   19   54 1   
    45   20   55 1   
    46   20   56 1   
    47   21   22 ar  
    48   21   57 1   
    49   22   23 1   
    50   22   33 ar  
    51   23   24 1   
    52   23   58 1   
    53   24   25 2   
    54   24   32 1   
    55   25   26 1   
    56   26   27 ar  
    57   26   31 ar  
    58   27   28 ar  
    59   27   59 1   
    60   28   29 ar  
    61   28   60 1   
    62   29   30 ar  
    63   29   61 1   
    64   30   31 ar  
    65   31   32 1   
@<TRIPOS>SUBSTRUCTURE
     1 G6K         1 TEMP              0 ****  ****    0 ROOT
