@<TRIPOS>MOLECULE
G6K
   61    65     1     0     0
SMALL
bcc


@<TRIPOS>ATOM
      1 C1         -0.0680   -0.3430   -0.1540 c3        1 G6K     -0.088100
      2 C2          1.4320   -0.3770   -0.0150 c3        1 G6K     -0.144400
      3 C3          1.8560   -0.1080    1.4160 c         1 G6K      0.658100
      4 O4          1.0600    0.3000    2.2850 o         1 G6K     -0.599100
      5 N5          3.1740   -0.3720    1.7630 n         1 G6K     -0.478800
      6 C6          4.2220   -0.5820    0.7860 c3        1 G6K      0.088000
      7 C7          5.5700   -0.3850    1.4900 c3        1 G6K     -0.115400
      8 C8          5.2530    0.1160    2.9210 c3        1 G6K      0.208500
      9 C9          3.6990    0.0240    3.0540 c3        1 G6K      0.083000
     10 N10         5.9260   -0.5730    3.9950 nu        1 G6K     -0.826900
     11 C11         7.3250   -0.5800    4.0840 ca        1 G6K      0.915900
     12 N12         7.8830   -1.4520    5.0170 nb        1 G6K     -0.750000
     13 C13         9.2130   -1.3650    5.1930 ca        1 G6K      0.512600
     14 C14         9.8740   -2.2930    6.2040 c3        1 G6K      0.120500
     15 N15         9.8460   -1.7300    7.5430 n3        1 G6K     -0.724600
     16 C16         9.8650   -2.7510    8.5830 c3        1 G6K      0.134800
     17 C17         9.8740   -2.1440    9.9910 c3        1 G6K      0.126900
     18 O18        10.9180   -1.1910   10.1490 os        1 G6K     -0.415600
     19 C19        10.8420   -0.1500    9.1810 c3        1 G6K      0.126900
     20 C20        10.8640   -0.7090    7.7530 c3        1 G6K      0.134800
     21 C21        10.0310   -0.4730    4.4750 ca        1 G6K     -0.465600
     22 C22         9.3920    0.3510    3.5030 ca        1 G6K      0.716200
     23 N23        10.1840    1.1960    2.7200 nu        1 G6K     -0.786900
     24 C24         9.6940    2.1100    1.7930 cc        1 G6K      0.563100
     25 N25        10.4880    3.0480    1.2380 nd        1 G6K     -0.592100
     26 C26         9.7550    3.7710    0.3040 ca        1 G6K      0.004100
     27 C27        10.2220    4.8380   -0.4950 ca        1 G6K     -0.053000
     28 C28         9.3300    5.4330   -1.3690 ca        1 G6K     -0.240300
     29 C29         7.9920    4.9610   -1.4380 ca        1 G6K      0.393200
     30 N30         7.5100    3.9560   -0.7000 nb        1 G6K     -0.622000
     31 C31         8.3740    3.3680    0.1590 ca        1 G6K      0.334600
     32 S32         8.0380    2.0860    1.2190 ss        1 G6K      0.003500
     33 N33         8.0420    0.3050    3.2960 nb        1 G6K     -0.818000
     34 H1         -0.3540   -0.4980   -1.2220 hc        1 G6K      0.047033
     35 H2         -0.4710    0.6390    0.1930 hc        1 G6K      0.047033
     36 H3         -0.5370   -1.1450    0.4660 hc        1 G6K      0.047033
     37 H4          1.8970    0.4090   -0.6690 hc        1 G6K      0.062700
     38 H5          1.8260   -1.3740   -0.3470 hc        1 G6K      0.062700
     39 H6          4.1190    0.1360   -0.0750 h1        1 G6K      0.044700
     40 H7          4.1380   -1.6260    0.3730 h1        1 G6K      0.044700
     41 H8          6.1940    0.3760    0.9540 hc        1 G6K      0.066200
     42 H9          6.1420   -1.3450    1.5010 hc        1 G6K      0.066200
     43 H10         5.5460    1.2060    2.9910 h1        1 G6K      0.088700
     44 H11         3.2830    1.0230    3.3620 h1        1 G6K      0.066200
     45 H12         3.3720   -0.7300    3.8220 h1        1 G6K      0.066200
     46 H13         5.4680   -1.3850    4.3540 hn        1 G6K      0.441800
     47 H14         9.3270   -3.2790    6.2100 h1        1 G6K      0.054200
     48 H15        10.9280   -2.4890    5.8450 h1        1 G6K      0.054200
     49 H17         8.9350   -3.3750    8.4700 h1        1 G6K      0.041950
     50 H18        10.7600   -3.4310    8.4800 h1        1 G6K      0.041950
     51 H19         8.8870   -1.6620   10.2200 h1        1 G6K      0.056450
     52 H20        10.1020   -2.9380   10.7500 h1        1 G6K      0.056450
     53 H21        11.7570    0.4720    9.3660 h1        1 G6K      0.056450
     54 H22         9.9170    0.4590    9.3540 h1        1 G6K      0.056450
     55 H23        11.9000   -1.1070    7.5430 h1        1 G6K      0.041950
     56 H24        10.6610    0.1290    7.0300 h1        1 G6K      0.041950
     57 H25        11.1110   -0.4290    4.6560 ha        1 G6K      0.155000
     58 H26        11.1430    1.2790    2.9910 hn        1 G6K      0.465800
     59 H27        11.2660    5.1760   -0.4150 ha        1 G6K      0.154000
     60 H28         9.6410    6.2660   -2.0130 ha        1 G6K      0.146000
     61 H29         7.2730    5.4300   -2.1340 h4        1 G6K      0.025100
@<TRIPOS>BOND
     1    1    2 1   
     2    1   34 1   
     3    1   35 1   
     4    1   36 1   
     5    2    3 1   
     6    2   37 1   
     7    2   38 1   
     8    3    4 2   
     9    3    5 1   
    10    5    6 1   
    11    5    9 1   
    12    6    7 1   
    13    6   39 1   
    14    6   40 1   
    15    7    8 1   
    16    7   41 1   
    17    7   42 1   
    18    8    9 1   
    19    8   10 1   
    20    8   43 1   
    21    9   44 1   
    22    9   45 1   
    23   10   11 1   
    24   10   46 1   
    25   11   12 ar  
    26   11   33 ar  
    27   12   13 ar  
    28   13   14 1   
    29   13   21 ar  
    30   14   15 1   
    31   14   47 1   
    32   14   48 1   
    33   15   16 1   
    34   15   20 1   
    35   16   17 1   
    36   16   49 1   
    37   16   50 1   
    38   17   18 1   
    39   17   51 1   
    40   17   52 1   
    41   18   19 1   
    42   19   20 1   
    43   19   53 1   
    44   19   54 1   
    45   20   55 1   
    46   20   56 1   
    47   21   22 ar  
    48   21   57 1   
    49   22   23 1   
    50   22   33 ar  
    51   23   24 1   
    52   23   58 1   
    53   24   25 2   
    54   24   32 1   
    55   25   26 1   
    56   26   27 ar  
    57   26   31 ar  
    58   27   28 ar  
    59   27   59 1   
    60   28   29 ar  
    61   28   60 1   
    62   29   30 ar  
    63   29   61 1   
    64   30   31 ar  
    65   31   32 1   
@<TRIPOS>SUBSTRUCTURE
     1 G6K         1 TEMP              0 ****  ****    0 ROOT
