@<TRIPOS>MOLECULE
G6P
   27    27     1     0     0
SMALL
bcc


@<TRIPOS>ATOM
      1 C1         -0.3810    0.1310   -1.7680 c3        1 G6P      0.311900
      2 C2          1.1240    0.1260   -1.8190 c3        1 G6P      0.075100
      3 C3          1.7320    0.1270   -0.4720 c3        1 G6P      0.152100
      4 C4          1.1840   -0.9480    0.3920 c3        1 G6P      0.029100
      5 C5         -0.3330   -0.9410    0.4310 c3        1 G6P      0.083100
      6 C6         -0.7920    0.2740    1.1640 c3        1 G6P      0.200400
      7 O1         -0.8670   -0.0440   -3.0440 oh        1 G6P     -0.620800
      8 O2          1.5640   -1.0550   -2.5300 oh        1 G6P     -0.636800
      9 O3          1.4790    1.4150    0.1580 oh        1 G6P     -0.671800
     10 O4          1.6310   -2.2190   -0.1100 oh        1 G6P     -0.654800
     11 O5         -0.9230   -0.9390   -0.8980 os        1 G6P     -0.477600
     12 O6         -2.1370    0.1420    1.4890 os        1 G6P     -0.568200
     13 P          -2.6840    0.9350    2.7000 p5        1 G6P      1.329900
     14 O1P        -4.1740    0.7640    2.7780 o         1 G6P     -0.923167
     15 O2P        -2.0500    0.4170    3.9710 o         1 G6P     -0.923167
     16 O3P        -2.3540    2.3930    2.5350 o         1 G6P     -0.923167
     17 H1         -0.6840    1.0010   -1.4280 h2        1 G6P      0.091700
     18 H2          1.4270    0.9220   -2.3040 h1        1 G6P      0.065700
     19 H3          2.6970    0.0010   -0.5600 h1        1 G6P      0.028700
     20 H4          1.5220   -0.8290    1.2950 h1        1 G6P      0.185700
     21 H5         -0.6410   -1.7350    0.9120 h1        1 G6P      0.071700
     22 H61        -0.6710    1.0570    0.6010 h1        1 G6P      0.006200
     23 H62        -0.2600    0.3790    1.9940 h1        1 G6P      0.006200
     24 HO1        -1.6720    0.3010   -3.1000 ho        1 G6P      0.404000
     25 HO2         2.0790   -0.8190   -3.2000 ho        1 G6P      0.427000
     26 HO3         2.2520    1.8590    0.2500 ho        1 G6P      0.511000
     27 HO4         1.9310   -2.7150    0.5630 ho        1 G6P      0.421000
@<TRIPOS>BOND
     1    1    2 1   
     2    1    7 1   
     3    1   11 1   
     4    1   17 1   
     5    2    3 1   
     6    2    8 1   
     7    2   18 1   
     8    3    4 1   
     9    3    9 1   
    10    3   19 1   
    11    4    5 1   
    12    4   10 1   
    13    4   20 1   
    14    5    6 1   
    15    5   11 1   
    16    5   21 1   
    17    6   12 1   
    18    6   22 1   
    19    6   23 1   
    20    7   24 1   
    21    8   25 1   
    22    9   26 1   
    23   10   27 1   
    24   12   13 1   
    25   13   14 1   
    26   13   15 1   
    27   13   16 1   
@<TRIPOS>SUBSTRUCTURE
     1 G6P         1 TEMP              0 ****  ****    0 ROOT
