@<TRIPOS>MOLECULE
G6P
   27    27     1     0     0
SMALL
bcc


@<TRIPOS>ATOM
      1 C1         -1.6430   -1.2440    1.0130 c3        1 G6P      0.340900
      2 C2         -2.9930   -0.5580    0.6790 c3        1 G6P      0.074100
      3 C3         -2.8470    0.6160   -0.3030 c3        1 G6P      0.069100
      4 C4         -1.6040    1.4800    0.0000 c3        1 G6P      0.127100
      5 C5         -0.4030    0.5170    0.0190 c3        1 G6P      0.086100
      6 C6          1.0330    1.0950    0.1640 c3        1 G6P      0.247400
      7 O1         -1.3050   -2.1410   -0.0010 oh        1 G6P     -0.718800
      8 O2         -3.9310   -1.4840    0.1530 oh        1 G6P     -0.642800
      9 O3         -3.9890    1.4670   -0.2300 oh        1 G6P     -0.634800
     10 O4         -1.4340    2.4570   -1.0100 oh        1 G6P     -0.574800
     11 O5         -0.6130   -0.3040    1.1790 os        1 G6P     -0.411600
     12 O6          1.8510    0.6200   -0.8210 os        1 G6P     -0.560200
     13 P           2.7110   -0.8530   -0.4380 p5        1 G6P      1.340900
     14 O1P         3.6680   -0.9960   -1.5820 o         1 G6P     -0.932167
     15 O2P         3.2920   -0.5330    0.9090 o         1 G6P     -0.932167
     16 O3P         1.5310   -1.8080   -0.4300 o         1 G6P     -0.932167
     17 H1         -1.7280   -1.7820    2.0010 h2        1 G6P      0.041700
     18 H2         -3.4590   -0.1830    1.6330 h1        1 G6P      0.053700
     19 H3         -2.7650    0.2130   -1.3520 h1        1 G6P      0.056700
     20 H4         -1.7310    1.9870    0.9960 h1        1 G6P      0.029700
     21 H5         -0.4310   -0.1050   -0.9200 h1        1 G6P      0.096700
     22 H61         0.9410    2.2150    0.0770 h1        1 G6P      0.010700
     23 H62         1.4290    0.8110    1.1820 h1        1 G6P      0.010700
     24 HO1        -0.3110   -2.1130   -0.1430 ho        1 G6P      0.549000
     25 HO2        -3.4390   -2.0730   -0.4380 ho        1 G6P      0.430000
     26 HO3        -4.7560    0.8860   -0.2980 ho        1 G6P      0.396000
     27 HO4        -2.2660    2.9460   -1.0420 ho        1 G6P      0.379000
@<TRIPOS>BOND
     1    1    2 1   
     2    1    7 1   
     3    1   11 1   
     4    1   17 1   
     5    2    3 1   
     6    2    8 1   
     7    2   18 1   
     8    3    4 1   
     9    3    9 1   
    10    3   19 1   
    11    4    5 1   
    12    4   10 1   
    13    4   20 1   
    14    5    6 1   
    15    5   11 1   
    16    5   21 1   
    17    6   12 1   
    18    6   22 1   
    19    6   23 1   
    20    7   24 1   
    21    8   25 1   
    22    9   26 1   
    23   10   27 1   
    24   12   13 1   
    25   13   14 1   
    26   13   15 1   
    27   13   16 1   
@<TRIPOS>SUBSTRUCTURE
     1 G6P         1 TEMP              0 ****  ****    0 ROOT
