@<TRIPOS>MOLECULE
G6Q
   27    26     1     0     0
SMALL
bcc


@<TRIPOS>ATOM
      1 C1         -0.3210   -0.0570    0.2470 c         1 G6Q      0.584900
      2 C2          1.1370    0.3210    0.1200 c3        1 G6Q      0.034100
      3 C3          1.9060   -0.1950    1.3550 c3        1 G6Q      0.045100
      4 C4          3.4480    0.0830    1.1520 c3        1 G6Q      0.364800
      5 C5          4.1070    0.1420    2.5590 c3        1 G6Q      0.075100
      6 C6          5.6070    0.4450    2.4460 c3        1 G6Q      0.167400
      7 O1         -1.2260    0.7480    0.4940 o         1 G6Q     -0.607100
      8 O2          1.5980   -0.2490   -1.0950 oh        1 G6Q     -0.662800
      9 O3          1.6800   -1.5860    1.4780 oh        1 G6Q     -0.656800
     10 O4          3.9520   -0.8660    0.3690 o         1 G6Q     -0.902500
     11 O5          3.4500    1.1530    3.3210 oh        1 G6Q     -0.643800
     12 O6          6.1260    0.7410    3.7150 os        1 G6Q     -0.606200
     13 P           7.4020   -0.1440    4.2540 p5        1 G6Q      1.433800
     14 O1P         8.3290   -0.3770    3.1240 o         1 G6Q     -0.850000
     15 O2P         7.7930    0.3910    5.5750 o         1 G6Q     -0.850000
     16 O3P         6.6480   -1.5840    4.4420 oh        1 G6Q     -0.786400
     17 H1         -0.5290   -1.1420    0.1170 h4        1 G6Q     -0.010800
     18 H2          1.2530    1.4380    0.0460 h1        1 G6Q      0.047700
     19 H3          1.5060    0.2850    2.2830 h1        1 G6Q      0.059700
     20 H4          3.5190    1.1290    0.7130 h1        1 G6Q     -0.059300
     21 H5          3.9620   -0.8430    3.0830 h1        1 G6Q      0.021700
     22 H61         6.1450   -0.4270    1.9880 h1        1 G6Q      0.034200
     23 H62         5.7450    1.3500    1.7920 h1        1 G6Q      0.034200
     24 HO2         2.4770   -0.6440   -0.9170 ho        1 G6Q      0.472000
     25 HO3         2.4650   -2.0240    1.0950 ho        1 G6Q      0.433000
     26 HO4         6.5370   -2.0420    3.6170 ho        1 G6Q      0.424000
     27 HO5         4.0520    1.3790    4.0420 ho        1 G6Q      0.404000
@<TRIPOS>BOND
     1    1    2 1   
     2    1    7 2   
     3    1   17 1   
     4    2    3 1   
     5    2    8 1   
     6    2   18 1   
     7    3    4 1   
     8    3    9 1   
     9    3   19 1   
    10    4    5 1   
    11    4   10 1   
    12    4   20 1   
    13    5    6 1   
    14    5   11 1   
    15    5   21 1   
    16    6   12 1   
    17    6   22 1   
    18    6   23 1   
    19    8   24 1   
    20    9   25 1   
    21   11   27 1   
    22   12   13 1   
    23   13   14 1   
    24   13   15 1   
    25   13   16 1   
    26   16   26 1   
@<TRIPOS>SUBSTRUCTURE
     1 G6Q         1 TEMP              0 ****  ****    0 ROOT
