@<TRIPOS>MOLECULE
G6Q
   27    25     1     0     0
SMALL
bcc


@<TRIPOS>ATOM
      1 C1         -3.1620   -1.3010   -2.0070 c1        1 G6Q      0.171000
      2 C2         -1.6530   -1.2810   -1.9090 c2        1 G6Q     -0.083000
      3 C3         -1.2440   -1.0360   -0.4750 c3        1 G6Q     -0.017000
      4 C4          0.0860   -0.3180   -0.4450 c3        1 G6Q      0.044000
      5 C5          0.1920    0.4930    0.8250 c3        1 G6Q     -0.062000
      6 C6          1.5810    1.0810    0.9330 c3        1 G6Q      0.071000
      7 O1         -3.7800   -2.2930   -1.6720 o         1 G6Q     -0.339000
      8 O2         -1.1390   -2.5200   -2.3380 oh        1 G6Q     -0.342000
      9 O3         -1.1280   -2.2680    0.1970 oh        1 G6Q     -0.309000
     10 O4          1.1290   -1.2630   -0.4880 oh        1 G6Q     -0.322000
     11 O5         -0.7570    1.5320    0.8000 oh        1 G6Q     -0.413000
     12 O6          1.6450    1.9320    2.0530 os        1 G6Q     -0.725000
     13 P           3.0270    2.6180    2.4000 p5        1 G6Q      1.543500
     14 O1P         3.4980    3.4280    1.2160 o         1 G6Q     -0.927167
     15 O2P         2.8520    3.5260    3.5940 o         1 G6Q     -0.927167
     16 O3P         4.0490    1.5550    2.7220 o         1 G6Q     -0.927167
     17 H1         -3.6400   -0.5160   -2.3410 ha        1 G6Q      0.171000
     18 H2         -1.2990   -0.5670   -2.4750 h4        1 G6Q      0.132000
     19 H3         -1.9210   -0.4860   -0.0330 h1        1 G6Q      0.098000
     20 H4          0.1520    0.2760   -1.2180 h1        1 G6Q      0.085000
     21 H5          0.0230   -0.0850    1.5960 h1        1 G6Q      0.134000
     22 H61         2.2350    0.3580    1.0340 h1        1 G6Q      0.035000
     23 H62         1.7830    1.5930    0.1220 h1        1 G6Q      0.035000
     24 HO2        -1.2270   -2.5870   -3.2210 ho        1 G6Q      0.206000
     25 HO3        -1.8120   -2.3650    0.7580 ho        1 G6Q      0.188000
     26 HO4         1.5880   -1.1630   -1.2440 ho        1 G6Q      0.223000
     27 HO5        -1.0800    1.6590    1.6180 ho        1 G6Q      0.258000
@<TRIPOS>BOND
     1    1    7 1   
     2    1   17 1   
     3    2    3 1   
     4    2    8 1   
     5    2   18 1   
     6    3    4 1   
     7    3    9 1   
     8    3   19 1   
     9    4    5 1   
    10    4   10 1   
    11    4   20 1   
    12    5    6 1   
    13    5   11 1   
    14    5   21 1   
    15    6   12 1   
    16    6   22 1   
    17    6   23 1   
    18    8   24 1   
    19    9   25 1   
    20   10   26 1   
    21   11   27 1   
    22   12   13 1   
    23   13   14 1   
    24   13   15 1   
    25   13   16 1   
@<TRIPOS>SUBSTRUCTURE
     1 G6Q         1 TEMP              0 ****  ****    0 ROOT
