@<TRIPOS>MOLECULE
G6Q
   27    26     1     0     0
SMALL
bcc


@<TRIPOS>ATOM
      1 C1          0.5950    0.3590   -5.1140 c         1 G6Q      0.584900
      2 C2          0.0660   -0.4350   -3.9420 c3        1 G6Q      0.034100
      3 C3          0.3130    0.3560   -2.6390 c3        1 G6Q      0.045100
      4 C4         -0.3610   -0.4160   -1.4360 c3        1 G6Q      0.364800
      5 C5          0.3730    0.0090   -0.1330 c3        1 G6Q      0.075100
      6 C6         -0.2050   -0.7280    1.0830 c3        1 G6Q      0.167400
      7 O1          1.6140    0.0650   -5.7480 o         1 G6Q     -0.607100
      8 O2         -1.3100   -0.6650   -4.1960 oh        1 G6Q     -0.662800
      9 O3         -0.2680    1.6390   -2.7740 oh        1 G6Q     -0.656800
     10 O4         -1.6610   -0.1370   -1.4280 o         1 G6Q     -0.902500
     11 O5          1.7600   -0.2860   -0.2810 oh        1 G6Q     -0.643800
     12 O6          0.6240   -0.5260    2.1960 os        1 G6Q     -0.606200
     13 P          -0.0500    0.0980    3.5590 p5        1 G6Q      1.433800
     14 O1P        -1.3870   -0.5070    3.7470 o         1 G6Q     -0.850000
     15 O2P         1.0050    0.1620    4.5920 o         1 G6Q     -0.850000
     16 O3P        -0.3770    1.6040    3.0100 oh        1 G6Q     -0.786400
     17 H1         -0.0040    1.2630   -5.3660 h4        1 G6Q     -0.010800
     18 H2          0.5790   -1.4350   -3.8760 h1        1 G6Q      0.047700
     19 H3          1.4110    0.5070   -2.4850 h1        1 G6Q      0.059700
     20 H4         -0.1250   -1.5150   -1.6010 h1        1 G6Q     -0.059300
     21 H5          0.2630    1.1190    0.0150 h1        1 G6Q      0.021700
     22 H61        -1.2490   -0.3720    1.2920 h1        1 G6Q      0.034200
     23 H62        -0.2290   -1.8320    0.8590 h1        1 G6Q      0.034200
     24 HO2        -1.7930   -0.5040   -3.3580 ho        1 G6Q      0.472000
     25 HO3        -1.1280    1.5980   -2.3130 ho        1 G6Q      0.433000
     26 HO4        -1.1630    1.6290    2.4770 ho        1 G6Q      0.424000
     27 HO5         2.1270   -0.3080    0.6120 ho        1 G6Q      0.404000
@<TRIPOS>BOND
     1    1    2 1   
     2    1    7 2   
     3    1   17 1   
     4    2    3 1   
     5    2    8 1   
     6    2   18 1   
     7    3    4 1   
     8    3    9 1   
     9    3   19 1   
    10    4    5 1   
    11    4   10 1   
    12    4   20 1   
    13    5    6 1   
    14    5   11 1   
    15    5   21 1   
    16    6   12 1   
    17    6   22 1   
    18    6   23 1   
    19    8   24 1   
    20    9   25 1   
    21   11   27 1   
    22   12   13 1   
    23   13   14 1   
    24   13   15 1   
    25   13   16 1   
    26   16   26 1   
@<TRIPOS>SUBSTRUCTURE
     1 G6Q         1 TEMP              0 ****  ****    0 ROOT
