@<TRIPOS>MOLECULE
G6Q
   27    26     1     0     0
SMALL
bcc


@<TRIPOS>ATOM
      1 C1         -0.3420   -0.0700    0.3000 c         1 G6Q      0.584900
      2 C2          1.1220    0.2650    0.1300 c3        1 G6Q      0.034100
      3 C3          1.8960   -0.1900    1.3860 c3        1 G6Q      0.045100
      4 C4          3.4410    0.0400    1.1450 c3        1 G6Q      0.364800
      5 C5          4.1210    0.1720    2.5370 c3        1 G6Q      0.075100
      6 C6          5.6260    0.4330    2.3860 c3        1 G6Q      0.167400
      7 O1         -1.2260    0.7700    0.5060 o         1 G6Q     -0.607100
      8 O2          1.5520   -0.3910   -1.0520 oh        1 G6Q     -0.662800
      9 O3          1.6410   -1.5640    1.6000 oh        1 G6Q     -0.656800
     10 O4          3.9120   -0.9690    0.4180 o         1 G6Q     -0.902500
     11 O5          3.4980    1.2440    3.2420 oh        1 G6Q     -0.643800
     12 O6          6.1690    0.7960    3.6270 os        1 G6Q     -0.606200
     13 P           7.4340   -0.0810    4.2040 p5        1 G6Q      1.433800
     14 O1P         8.3390   -0.4040    3.0780 o         1 G6Q     -0.850000
     15 O2P         7.8550    0.5270    5.4830 o         1 G6Q     -0.850000
     16 O3P         6.6520   -1.4890    4.4920 oh        1 G6Q     -0.786400
     17 H1         -0.5770   -1.1560    0.2410 h4        1 G6Q     -0.010800
     18 H2          1.2620    1.3720   -0.0170 h1        1 G6Q      0.047700
     19 H3          1.5200    0.3580    2.2860 h1        1 G6Q      0.059700
     20 H4          3.5290    1.0530    0.6400 h1        1 G6Q     -0.059300
     21 H5          3.9620   -0.7740    3.1240 h1        1 G6Q      0.021700
     22 H61         6.1380   -0.4790    1.9780 h1        1 G6Q      0.033700
     23 H62         5.7740    1.2920    1.6730 h1        1 G6Q      0.033700
     24 HO2         2.4250   -0.7950   -0.8610 ho        1 G6Q      0.472000
     25 HO3         2.4100   -2.0440    1.2350 ho        1 G6Q      0.433000
     26 HO4         6.5210   -1.9960    3.6990 ho        1 G6Q      0.424000
     27 HO5         4.1150    1.5020    3.9390 ho        1 G6Q      0.404000
@<TRIPOS>BOND
     1    1    2 1   
     2    1    7 2   
     3    1   17 1   
     4    2    3 1   
     5    2    8 1   
     6    2   18 1   
     7    3    4 1   
     8    3    9 1   
     9    3   19 1   
    10    4    5 1   
    11    4   10 1   
    12    4   20 1   
    13    5    6 1   
    14    5   11 1   
    15    5   21 1   
    16    6   12 1   
    17    6   22 1   
    18    6   23 1   
    19    8   24 1   
    20    9   25 1   
    21   11   27 1   
    22   12   13 1   
    23   13   14 1   
    24   13   15 1   
    25   13   16 1   
    26   16   26 1   
@<TRIPOS>SUBSTRUCTURE
     1 G6Q         1 TEMP              0 ****  ****    0 ROOT
