@<TRIPOS>MOLECULE
G6S
   27    26     1     0     0
SMALL
bcc


@<TRIPOS>ATOM
      1 C1         -0.2910    0.1220   -1.9260 c3        1 G6S      0.303900
      2 C2          1.2160    0.0750   -1.9080 c3        1 G6S      0.070100
      3 C3          1.7630    0.0060   -0.5290 c3        1 G6S      0.150100
      4 C4          1.1390   -1.0970    0.2750 c3        1 G6S      0.102100
      5 C5         -0.3790   -1.0470    0.2460 c3        1 G6S      0.061100
      6 C6         -0.8450    0.1690    1.0190 c3        1 G6S      0.199400
      7 O1         -0.7060    1.3340   -1.4250 oh        1 G6S     -0.650800
      8 O2          1.6570   -1.0900   -2.6470 oh        1 G6S     -0.592800
      9 O4          1.5780   -0.9840    1.6350 oh        1 G6S     -0.627800
     10 O5         -0.9100   -0.9780   -1.1110 os        1 G6S     -0.428600
     11 O6         -2.2880    0.1450    1.1340 os        1 G6S     -0.594600
     12 S          -2.8650    0.6520    2.4520 s4        1 G6S      1.886600
     13 O7         -4.3860    0.6120    2.4420 o         1 G6S     -0.687400
     14 O8         -2.5530   -0.3060    3.5980 o         1 G6S     -0.687400
     15 O9         -2.3500    2.0530    2.7470 os        1 G6S     -1.069000
     16 O3          1.5190    1.2620    0.1340 oh        1 G6S     -0.591800
     17 H1         -0.6080    0.0380   -2.8790 h2        1 G6S      0.077700
     18 H2          1.5660    0.8860   -2.3500 h1        1 G6S      0.059700
     19 H3          2.7540   -0.1490   -0.5790 h1        1 G6S      0.077700
     20 H4          1.4390   -1.9690   -0.0890 h1        1 G6S      0.040700
     21 H5         -0.7330   -1.8560    0.6840 h1        1 G6S      0.119700
     22 H6         -0.4450    0.1610    1.9160 h1        1 G6S      0.022700
     23 H6A        -0.5750    0.9640    0.5560 h1        1 G6S      0.022700
     24 HO2         2.0530   -0.8320   -3.3960 ho        1 G6S      0.404000
     25 HO4         2.1270   -1.6630    1.8280 ho        1 G6S      0.474000
     26 HO3         2.3080    1.7100    0.2390 ho        1 G6S      0.422000
     27 HO1        -1.1850    1.7810   -2.0650 ho        1 G6S      0.435000
@<TRIPOS>BOND
     1    1    2 1   
     2    1    7 1   
     3    1   10 1   
     4    1   17 1   
     5    2    3 1   
     6    2    8 1   
     7    2   18 1   
     8    3    4 1   
     9    3   16 1   
    10    3   19 1   
    11    4    5 1   
    12    4    9 1   
    13    4   20 1   
    14    5    6 1   
    15    5   10 1   
    16    5   21 1   
    17    6   11 1   
    18    6   22 1   
    19    6   23 1   
    20    7   27 1   
    21    8   24 1   
    22    9   25 1   
    23   11   12 1   
    24   12   13 1   
    25   12   14 1   
    26   16   26 1   
@<TRIPOS>SUBSTRUCTURE
     1 G6S         1 TEMP              0 ****  ****    0 ROOT
