@<TRIPOS>MOLECULE
G6S
   27    27     1     0     0
SMALL
bcc


@<TRIPOS>ATOM
      1 C1         -2.0710    1.4930   -0.0740 c3        1 G6S      0.319900
      2 C2         -3.0880    0.3480    0.1210 c3        1 G6S      0.051100
      3 C3         -2.4160   -0.8300    0.8390 c3        1 G6S      0.106100
      4 C4         -1.1570   -1.2430    0.0500 c3        1 G6S      0.125100
      5 C5         -0.2440   -0.0200   -0.1040 c3        1 G6S      0.095100
      6 C6          1.0160   -0.3360   -0.9340 c3        1 G6S      0.223400
      7 O1         -2.6070    2.4800   -0.9220 oh        1 G6S     -0.623800
      8 O2         -4.1810    0.7700    0.9220 oh        1 G6S     -0.616800
      9 O4         -1.5250   -1.7230   -1.2330 oh        1 G6S     -0.591800
     10 O5         -0.9210    1.0550   -0.7690 os        1 G6S     -0.439600
     11 O6          1.8910   -1.0950   -0.1770 os        1 G6S     -0.606500
     12 S           3.0050   -0.3600    0.9370 s6        1 G6S      1.697300
     13 O7          2.1180    0.1510    1.8880 o         1 G6S     -0.752533
     14 O8          3.7680   -1.4540    1.3270 o         1 G6S     -0.752533
     15 O9          3.6320    0.5910    0.1360 o         1 G6S     -0.752533
     16 O3         -3.2780   -1.9560    0.8730 oh        1 G6S     -0.612800
     17 H1         -1.8170    1.9880    0.9030 h2        1 G6S      0.077700
     18 H2         -3.4690    0.0060   -0.8820 h1        1 G6S      0.063700
     19 H3         -2.1390   -0.5350    1.8880 h1        1 G6S      0.061700
     20 H4         -0.5960   -2.0400    0.6120 h1        1 G6S      0.083700
     21 H5          0.0680    0.3190    0.9280 h1        1 G6S      0.102700
     22 H6          0.7280   -0.9360   -1.8380 h1        1 G6S      0.040700
     23 H6A         1.4910    0.6330   -1.2540 h1        1 G6S      0.040700
     24 HO2        -4.4560    1.6280    0.5740 ho        1 G6S      0.414000
     25 HO4        -2.0580   -2.5130   -1.0760 ho        1 G6S      0.403000
     26 HO3        -4.1090   -1.6510    1.2590 ho        1 G6S      0.413000
     27 HO1        -2.3340    2.2750   -1.8280 ho        1 G6S      0.429000
@<TRIPOS>BOND
     1    1    2 1   
     2    1    7 1   
     3    1   10 1   
     4    1   17 1   
     5    2    3 1   
     6    2    8 1   
     7    2   18 1   
     8    3    4 1   
     9    3   16 1   
    10    3   19 1   
    11    4    5 1   
    12    4    9 1   
    13    4   20 1   
    14    5    6 1   
    15    5   10 1   
    16    5   21 1   
    17    6   11 1   
    18    6   22 1   
    19    6   23 1   
    20    7   27 1   
    21    8   24 1   
    22    9   25 1   
    23   11   12 1   
    24   12   13 1   
    25   12   14 1   
    26   12   15 1   
    27   16   26 1   
@<TRIPOS>SUBSTRUCTURE
     1 G6S         1 TEMP              0 ****  ****    0 ROOT
