@<TRIPOS>MOLECULE
G6T
   51    54     1     0     0
SMALL
bcc


@<TRIPOS>ATOM
      1 N1          0.1400   -0.4410   -0.0800 nb        1 G6T     -0.802000
      2 C2          1.5360   -0.6030    0.0480 ca        1 G6T      0.926900
      3 N2          2.2340   -0.7900   -1.1330 nv        1 G6T     -0.940500
      4 N3          2.2620   -0.6270    1.2250 nb        1 G6T     -0.740000
      5 C4          1.5090   -0.5130    2.3540 ca        1 G6T      0.617300
      6 C5          0.0560   -0.3670    2.3230 ca        1 G6T     -0.384800
      7 C6         -0.5760   -0.3330    1.0460 ca        1 G6T      0.740600
      8 O6         -1.9350   -0.1760    1.0650 os        1 G6T     -0.455100
      9 N7         -0.3820   -0.2990    3.6410 na        1 G6T     -0.206300
     10 C8          0.7760   -0.3710    4.4300 cc        1 G6T      0.423400
     11 N9          1.9230   -0.5110    3.7040 nd        1 G6T     -0.646700
     12 CAL        -2.6190   -0.1380   -0.2100 c3        1 G6T      0.140400
     13 CAM        -4.0970    0.0260    0.1240 c3        1 G6T     -0.072700
     14 CAN        -4.8370    0.5210   -1.1120 c3        1 G6T     -0.073400
     15 CAO        -6.3190    0.6640   -0.8330 c3        1 G6T     -0.076400
     16 CAP        -6.9160   -0.6320   -0.3230 c3        1 G6T     -0.079400
     17 CAQ        -6.1730   -1.1370    0.8980 c3        1 G6T     -0.076400
     18 CAR        -4.6920   -1.2840    0.6170 c3        1 G6T     -0.073400
     19 CAS         0.7650   -0.3430    5.8940 ca        1 G6T     -0.104900
     20 CAT        -0.2760   -0.9200    6.6370 ca        1 G6T      0.004000
     21 CAU        -0.2060   -0.9420    8.0330 ca        1 G6T     -0.142000
     22 CAV         0.8980   -0.4150    8.6880 ca        1 G6T      0.015000
     23 CAW         1.9580    0.1770    7.9630 ca        1 G6T     -0.547500
     24 CAX         1.8560    0.2220    6.5580 ca        1 G6T      0.031000
     25 SAY         3.2150    0.8280    8.7130 sy        1 G6T      1.492200
     26 OAZ         3.1900    0.7270   10.0870 o         1 G6T     -0.563800
     27 NBA         4.4860   -0.5460    8.2890 nz        1 G6T     -0.789500
     28 OBB         3.8120    1.8910    8.0750 o         1 G6T     -0.563800
     29 HN2         3.2250   -0.7730   -1.1100 hn        1 G6T      0.451800
     30 HN2A        1.7720   -0.6360   -1.9950 hn        1 G6T      0.451800
     31 HN7        -1.3040   -0.1050    3.9330 hn        1 G6T      0.322700
     32 HAL        -2.4220   -1.0930   -0.7620 h1        1 G6T      0.063700
     33 HALA       -2.2360    0.7350   -0.7990 h1        1 G6T      0.063700
     34 HAM        -4.1980    0.7960    0.9400 hc        1 G6T      0.062700
     35 HAN        -4.4180    1.5110   -1.4310 hc        1 G6T      0.044200
     36 HANA       -4.6790   -0.2030   -1.9540 hc        1 G6T      0.044200
     37 HAO        -6.4790    1.4740   -0.0740 hc        1 G6T      0.043450
     38 HAOA       -6.8440    0.9750   -1.7730 hc        1 G6T      0.043450
     39 HAP        -7.9950   -0.4710   -0.0660 hc        1 G6T      0.046200
     40 HAPA       -6.8740   -1.4070   -1.1330 hc        1 G6T      0.046200
     41 HAQ        -6.5940   -2.1280    1.2100 hc        1 G6T      0.043450
     42 HAQA       -6.3250   -0.4230    1.7490 hc        1 G6T      0.043450
     43 HAR        -4.5360   -2.0810   -0.1570 hc        1 G6T      0.044200
     44 HARA       -4.1560   -1.6050    1.5470 hc        1 G6T      0.044200
     45 HAT        -1.1460   -1.3690    6.1260 ha        1 G6T      0.172000
     46 HAU        -1.0300   -1.3890    8.6160 ha        1 G6T      0.179000
     47 HAV         0.9500   -0.4500    9.7930 ha        1 G6T      0.176000
     48 HAX         2.6530    0.7180    5.9680 ha        1 G6T      0.186000
     49 HNBA        5.2950   -0.1440    7.8150 hn        1 G6T      0.459133
     50 HNBB        4.0960   -1.2600    7.6800 hn        1 G6T      0.459133
     51 HBA3        4.8180   -1.0020    9.1370 hn        1 G6T      0.459133
@<TRIPOS>BOND
     1    1    2 ar  
     2    1    7 ar  
     3    2    3 1   
     4    2    4 ar  
     5    3   29 1   
     6    3   30 1   
     7    4    5 ar  
     8    5    6 ar  
     9    5   11 1   
    10    6    7 ar  
    11    6    9 1   
    12    7    8 1   
    13    8   12 1   
    14    9   10 1   
    15    9   31 1   
    16   10   11 2   
    17   10   19 1   
    18   12   13 1   
    19   12   32 1   
    20   12   33 1   
    21   13   14 1   
    22   13   18 1   
    23   13   34 1   
    24   14   15 1   
    25   14   35 1   
    26   14   36 1   
    27   15   16 1   
    28   15   37 1   
    29   15   38 1   
    30   16   17 1   
    31   16   39 1   
    32   16   40 1   
    33   17   18 1   
    34   17   41 1   
    35   17   42 1   
    36   18   43 1   
    37   18   44 1   
    38   19   20 ar  
    39   19   24 ar  
    40   20   21 ar  
    41   20   45 1   
    42   21   22 ar  
    43   21   46 1   
    44   22   23 ar  
    45   22   47 1   
    46   23   24 ar  
    47   23   25 1   
    48   24   48 1   
    49   25   26 2   
    50   25   27 1   
    51   25   28 2   
    52   27   49 1   
    53   27   50 1   
    54   27   51 1   
@<TRIPOS>SUBSTRUCTURE
     1 G6T         1 TEMP              0 ****  ****    0 ROOT
