@<TRIPOS>MOLECULE
G6T
   51    54     1     0     0
SMALL
bcc


@<TRIPOS>ATOM
      1 N1          0.1570   -0.4050   -0.0730 nb        1 G6T     -0.802000
      2 C2          1.5540   -0.5570    0.0610 ca        1 G6T      0.926900
      3 N2          2.2600   -0.7290   -1.1180 nh        1 G6T     -0.940500
      4 N3          2.2730   -0.5860    1.2420 nb        1 G6T     -0.740000
      5 C4          1.5130   -0.4870    2.3670 ca        1 G6T      0.617300
      6 C5          0.0590   -0.3520    2.3290 ca        1 G6T     -0.384800
      7 C6         -0.5650   -0.3120    1.0490 ca        1 G6T      0.740600
      8 O6         -1.9260   -0.1660    1.0620 os        1 G6T     -0.455100
      9 N7         -0.3860   -0.2990    3.6460 na        1 G6T     -0.206300
     10 C8          0.7680   -0.3690    4.4410 cc        1 G6T      0.423400
     11 N9          1.9200   -0.4940    3.7190 nd        1 G6T     -0.646700
     12 CAL        -2.6030   -0.1230   -0.2160 c3        1 G6T      0.140400
     13 CAM        -4.0850    0.0270    0.1110 c3        1 G6T     -0.072700
     14 CAN        -4.8210    0.5260   -1.1240 c3        1 G6T     -0.073400
     15 CAO        -6.3060    0.6550   -0.8520 c3        1 G6T     -0.076400
     16 CAP        -6.8960   -0.6500   -0.3570 c3        1 G6T     -0.079400
     17 CAQ        -6.1560   -1.1600    0.8630 c3        1 G6T     -0.076400
     18 CAR        -4.6720   -1.2930    0.5890 c3        1 G6T     -0.073400
     19 CAS         0.7490   -0.3530    5.9050 ca        1 G6T     -0.104900
     20 CAT        -0.2910   -0.9450    6.6360 ca        1 G6T      0.004000
     21 CAU        -0.2280   -0.9790    8.0330 ca        1 G6T     -0.142000
     22 CAV         0.8680   -0.4490    8.6980 ca        1 G6T      0.015000
     23 CAW         1.9270    0.1580    7.9840 ca        1 G6T     -0.547500
     24 CAX         1.8320    0.2140    6.5790 ca        1 G6T      0.031000
     25 SAY         3.1750    0.8120    8.7460 sy        1 G6T      1.492200
     26 OAZ         3.1440    0.6980   10.1190 o         1 G6T     -0.563800
     27 NBA         4.4590   -0.5470    8.3160 n4        1 G6T     -0.789500
     28 OBB         3.7660    1.8860    8.1210 o         1 G6T     -0.563800
     29 HN2         1.8010   -0.5710   -1.9820 hn        1 G6T      0.451800
     30 HN2A        3.2500   -0.7030   -1.0900 hn        1 G6T      0.451800
     31 HN7        -1.3110   -0.1150    3.9340 hn        1 G6T      0.322700
     32 HAL        -2.3960   -1.0710   -0.7750 h1        1 G6T      0.063700
     33 HALA       -2.2240    0.7590   -0.7950 h1        1 G6T      0.063700
     34 HAM        -4.1960    0.7880    0.9330 hc        1 G6T      0.062700
     35 HAN        -4.6540   -0.1880   -1.9720 hc        1 G6T      0.044200
     36 HANA       -4.4090    1.5220   -1.4320 hc        1 G6T      0.044200
     37 HAO        -6.4770    1.4570   -0.0870 hc        1 G6T      0.043450
     38 HAOA       -6.8290    0.9700   -1.7930 hc        1 G6T      0.043450
     39 HAP        -7.9780   -0.5000   -0.1050 hc        1 G6T      0.046200
     40 HAPA       -6.8430   -1.4170   -1.1730 hc        1 G6T      0.046200
     41 HAQ        -6.3170   -0.4540    1.7200 hc        1 G6T      0.043450
     42 HAQA       -6.5700   -2.1570    1.1640 hc        1 G6T      0.043450
     43 HAR        -4.1380   -1.6180    1.5190 hc        1 G6T      0.044200
     44 HARA       -4.5050   -2.0820   -0.1910 hc        1 G6T      0.044200
     45 HAT        -1.1550   -1.3970    6.1170 ha        1 G6T      0.172000
     46 HAU        -1.0510   -1.4380    8.6070 ha        1 G6T      0.179000
     47 HAV         0.9140   -0.4930    9.8030 ha        1 G6T      0.176000
     48 HAX         2.6280    0.7220    5.9980 ha        1 G6T      0.186000
     49 HNBA        4.7900   -1.0090    9.1610 hn        1 G6T      0.459133
     50 HNBB        5.2670   -0.1340    7.8500 hn        1 G6T      0.459133
     51 HBA3        4.0780   -1.2590    7.6980 hn        1 G6T      0.459133
@<TRIPOS>BOND
     1    1    2 ar  
     2    1    7 ar  
     3    2    3 1   
     4    2    4 ar  
     5    3   29 1   
     6    3   30 1   
     7    4    5 ar  
     8    5    6 ar  
     9    5   11 1   
    10    6    7 ar  
    11    6    9 1   
    12    7    8 1   
    13    8   12 1   
    14    9   10 1   
    15    9   31 1   
    16   10   11 2   
    17   10   19 1   
    18   12   13 1   
    19   12   32 1   
    20   12   33 1   
    21   13   14 1   
    22   13   18 1   
    23   13   34 1   
    24   14   15 1   
    25   14   35 1   
    26   14   36 1   
    27   15   16 1   
    28   15   37 1   
    29   15   38 1   
    30   16   17 1   
    31   16   39 1   
    32   16   40 1   
    33   17   18 1   
    34   17   41 1   
    35   17   42 1   
    36   18   43 1   
    37   18   44 1   
    38   19   20 ar  
    39   19   24 ar  
    40   20   21 ar  
    41   20   45 1   
    42   21   22 ar  
    43   21   46 1   
    44   22   23 ar  
    45   22   47 1   
    46   23   24 ar  
    47   23   25 1   
    48   24   48 1   
    49   25   26 2   
    50   25   27 1   
    51   25   28 2   
    52   27   49 1   
    53   27   50 1   
    54   27   51 1   
@<TRIPOS>SUBSTRUCTURE
     1 G6T         1 TEMP              0 ****  ****    0 ROOT
