@<TRIPOS>MOLECULE
G6X
   72    77     1     0     0
SMALL
bcc


@<TRIPOS>ATOM
      1 C1         -4.6450   -1.7170   -0.5680 c2        1 G6X     -0.134200
      2 C2         -5.2410   -2.3360   -1.5880 c2        1 G6X     -0.206200
      3 C3         -6.7190   -2.4980   -1.7360 c3        1 G6X      0.181300
      4 C4         -7.4350   -2.3040   -0.4040 c3        1 G6X     -0.115400
      5 O5         -7.3310    0.1030   -0.2590 os        1 G6X     -0.310900
      6 C6         -6.3940    2.3980   -0.2920 ca        1 G6X      0.103100
      7 C7         -5.2930    3.1880    0.0830 ca        1 G6X     -0.167000
      8 C8         -4.1910    2.6200    0.7160 ca        1 G6X     -0.131000
      9 C9         -2.9960    0.7110    1.8170 c3        1 G6X      0.231100
     10 N10        -2.5840   -0.6500    1.5260 n3        1 G6X     -0.753600
     11 C11        -3.4030   -1.7010    2.1100 c3        1 G6X      0.186800
     12 C12        -4.9150   -1.5940    1.9190 c3        1 G6X     -0.061400
     13 C13        -6.3130    1.0240   -0.0490 ca        1 G6X      0.085100
     14 C14        -5.1520    0.4430    0.5090 ca        1 G6X     -0.104300
     15 C15        -4.1130    1.2380    0.9660 ca        1 G6X     -0.054300
     16 C16        -7.5750    4.2560   -1.1820 c3        1 G6X      0.112700
     17 O17        -7.5590    2.8690   -0.8620 os        1 G6X     -0.307900
     18 O18        -7.2380   -1.6340   -2.7340 oh        1 G6X     -0.595800
     19 C19        -1.1630   -0.8770    1.7630 c3        1 G6X      0.181800
     20 C20        -0.2700   -0.3130    0.6570 c3        1 G6X     -0.082400
     21 C21         1.1770   -0.6600    0.9380 c3        1 G6X     -0.080400
     22 C22         2.0860   -0.1030   -0.1370 c3        1 G6X     -0.076400
     23 C23         3.5330   -0.4440    0.1500 c3        1 G6X     -0.109400
     24 C24         4.4250    0.1250   -0.9560 c3        1 G6X      0.099000
     25 N25         5.8360   -0.0450   -0.7290 n         1 G6X     -0.570200
     26 C26         6.5650   -1.0460   -1.3980 c         1 G6X      0.718100
     27 C27         7.9950   -0.9730   -0.9560 ca        1 G6X     -0.092600
     28 C28         9.0230   -1.7850   -1.3890 ca        1 G6X     -0.073000
     29 C29        10.3080   -1.5670   -0.8620 ca        1 G6X     -0.082000
     30 C30        10.5280   -0.5600    0.0700 ca        1 G6X     -0.131000
     31 C31         9.4710    0.2590    0.5020 ca        1 G6X      0.013000
     32 C32         8.2000    0.0590   -0.0060 ca        1 G6X     -0.334500
     33 S33         6.7430    0.8820    0.3240 sy        1 G6X      1.508900
     34 O34         6.0990   -1.8430   -2.2170 o         1 G6X     -0.562500
     35 O35         6.3480    0.6900    1.6500 o         1 G6X     -0.634300
     36 O36         6.8090    2.2120   -0.0950 o         1 G6X     -0.634300
     37 C41        -6.9110   -1.1390    0.4020 c3        1 G6X      0.131100
     38 C42        -5.3560   -1.0540    0.5680 c3        1 G6X      0.027500
     39 H1         -3.5450   -1.6360   -0.5410 ha        1 G6X      0.153000
     40 H2         -4.6480   -2.7620   -2.4130 ha        1 G6X      0.134000
     41 H3         -6.9490   -3.5300   -2.1360 h1        1 G6X      0.073700
     42 H4         -8.5280   -2.1430   -0.6030 hc        1 G6X      0.067700
     43 H4A        -7.3180   -3.2320    0.2130 hc        1 G6X      0.067700
     44 H7         -5.3080    4.2720   -0.1030 ha        1 G6X      0.139000
     45 H8         -3.3650    3.2720    1.0370 ha        1 G6X      0.133000
     46 H9         -3.3350    0.8120    2.8940 h1        1 G6X      0.041700
     47 H9A        -2.1050    1.3940    1.6870 h1        1 G6X      0.041700
     48 H11        -3.0630   -2.6660    1.6310 h1        1 G6X      0.030700
     49 H11A       -3.2170   -1.7920    3.2230 h1        1 G6X      0.030700
     50 H12        -5.3430   -2.6220    2.0600 hc        1 G6X      0.050200
     51 H12A       -5.3420   -0.9330    2.7200 hc        1 G6X      0.050200
     52 H16        -8.5750    4.3980   -1.6640 h1        1 G6X      0.043700
     53 H16A       -7.4940    4.8750   -0.2550 h1        1 G6X      0.043700
     54 H16B       -6.7530    4.5100   -1.8950 h1        1 G6X      0.043700
     55 HO18       -7.1590   -0.7290   -2.4010 ho        1 G6X      0.418000
     56 H19        -0.8350   -0.4370    2.7510 h1        1 G6X      0.031700
     57 H19A       -0.9790   -1.9880    1.8200 h1        1 G6X      0.031700
     58 H20        -0.5780   -0.7370   -0.3340 hc        1 G6X      0.050200
     59 H20A       -0.3830    0.8000    0.5910 hc        1 G6X      0.050200
     60 H21         1.4790   -0.2490    1.9370 hc        1 G6X      0.043200
     61 H21A        1.2960   -1.7750    0.9880 hc        1 G6X      0.043200
     62 H22         1.7890   -0.5200   -1.1350 hc        1 G6X      0.044200
     63 H22A        1.9630    1.0110   -0.1920 hc        1 G6X      0.044200
     64 H23         3.8330   -0.0270    1.1490 hc        1 G6X      0.059200
     65 H23A        3.6560   -1.5570    0.2020 hc        1 G6X      0.059200
     66 H24         4.1510   -0.3690   -1.9330 h1        1 G6X      0.068700
     67 H24A        4.2260    1.2330   -1.0610 h1        1 G6X      0.068700
     68 H28         8.8380   -2.5800   -2.1280 ha        1 G6X      0.165000
     69 H29        11.1420   -2.2050   -1.1950 ha        1 G6X      0.147000
     70 H30        11.5370   -0.3970    0.4770 ha        1 G6X      0.148000
     71 H31         9.6640    1.0540    1.2410 ha        1 G6X      0.152000
     72 H41        -7.3990   -1.1240    1.4150 h1        1 G6X      0.059700
@<TRIPOS>BOND
     1    1    2 2   
     2    1   38 1   
     3    1   39 1   
     4    2    3 1   
     5    2   40 1   
     6    3    4 1   
     7    3   18 1   
     8    3   41 1   
     9    4   37 1   
    10    4   42 1   
    11    4   43 1   
    12    5   13 1   
    13    5   37 1   
    14    6    7 ar  
    15    6   13 ar  
    16    6   17 1   
    17    7    8 ar  
    18    7   44 1   
    19    8   15 ar  
    20    8   45 1   
    21    9   10 1   
    22    9   15 1   
    23    9   46 1   
    24    9   47 1   
    25   10   11 1   
    26   10   19 1   
    27   11   12 1   
    28   11   48 1   
    29   11   49 1   
    30   12   38 1   
    31   12   50 1   
    32   12   51 1   
    33   13   14 ar  
    34   14   15 ar  
    35   14   38 1   
    36   16   17 1   
    37   16   52 1   
    38   16   53 1   
    39   16   54 1   
    40   18   55 1   
    41   19   20 1   
    42   19   56 1   
    43   19   57 1   
    44   20   21 1   
    45   20   58 1   
    46   20   59 1   
    47   21   22 1   
    48   21   60 1   
    49   21   61 1   
    50   22   23 1   
    51   22   62 1   
    52   22   63 1   
    53   23   24 1   
    54   23   64 1   
    55   23   65 1   
    56   24   25 1   
    57   24   66 1   
    58   24   67 1   
    59   25   26 1   
    60   25   33 1   
    61   26   27 1   
    62   26   34 2   
    63   27   28 ar  
    64   27   32 ar  
    65   28   29 ar  
    66   28   68 1   
    67   29   30 ar  
    68   29   69 1   
    69   30   31 ar  
    70   30   70 1   
    71   31   32 ar  
    72   31   71 1   
    73   32   33 1   
    74   33   35 2   
    75   33   36 2   
    76   37   38 1   
    77   37   72 1   
@<TRIPOS>SUBSTRUCTURE
     1 G6X         1 TEMP              0 ****  ****    0 ROOT
