@<TRIPOS>MOLECULE
G6X
   72    71     1     0     0
SMALL
bcc


@<TRIPOS>ATOM
      1 C1         -0.2840    0.5800    1.1290 c1        1 G6X     -0.115000
      2 C2          1.2590    0.8320    1.1200 c1        1 G6X     -0.115000
      3 C3          1.9760    0.8720    2.4610 c2        1 G6X      0.057000
      4 C4          1.4270   -0.1070    3.4470 c3        1 G6X     -0.200000
      5 O5         -0.4370   -1.3650    4.1700 os        1 G6X     -0.186000
      6 C6         -1.3580   -3.2400    2.6320 c1        1 G6X      0.058000
      7 C7         -1.7200   -3.4700    1.2900 c2        1 G6X     -0.169000
      8 C8         -2.1260   -2.3890    0.4740 c1        1 G6X     -0.127000
      9 C9         -3.4200   -0.1990    0.5520 c3        1 G6X     -0.008000
     10 N10        -3.2540    1.2220    0.9510 n3        1 G6X     -0.285000
     11 C11        -3.1740    1.3590    2.4290 c3        1 G6X     -0.049000
     12 C12        -1.7270    1.4690    2.8910 c3        1 G6X     -0.178000
     13 C13        -1.4000   -1.9420    3.1540 c2        1 G6X      0.053000
     14 C14        -1.8860   -0.8600    2.3440 c2        1 G6X     -0.110000
     15 C15        -2.1680   -1.0680    1.0110 c1        1 G6X     -0.070000
     16 C16        -1.5770   -5.4920    3.3380 c3        1 G6X     -0.078000
     17 O17        -1.7680   -4.1400    3.6580 o         1 G6X     -0.190000
     18 O18         3.4570    0.6880    2.2680 oh        1 G6X     -0.318000
     19 C19        -2.0670    1.7640    0.3420 c3        1 G6X     -0.061000
     20 C20        -2.4780    2.8200   -0.7690 c3        1 G6X     -0.160000
     21 C21        -1.4160    2.8330   -1.8710 c3        1 G6X     -0.164000
     22 C22        -1.9010    2.0120   -3.0530 c3        1 G6X     -0.156000
     23 C23        -0.6680    1.6150   -3.9550 c3        1 G6X     -0.185000
     24 C24        -0.2510    0.1690   -3.6480 c3        1 G6X     -0.024000
     25 N25         1.2330    0.0610   -3.6990 n         1 G6X     -0.796000
     26 C26         2.1800    1.1950   -3.7890 c2        1 G6X      0.357000
     27 C27         3.5760    0.7420   -3.0870 c2        1 G6X     -0.074000
     28 C28         4.6750    1.4970   -2.5980 c2        1 G6X     -0.072000
     29 C29         5.8380    0.8390   -2.1500 c1        1 G6X     -0.082000
     30 C30         5.9110   -0.5640   -2.1880 c1        1 G6X     -0.115000
     31 C31         4.8160   -1.3170   -2.6760 c1        1 G6X     -0.115000
     32 C32         3.6480   -0.6570   -3.1250 c1        1 G6X     -0.779000
     33 S33         2.0750   -1.2550   -3.4400 s6        1 G6X      2.844000
     34 O34         1.9810    2.2430   -4.3640 o         1 G6X     -0.296000
     35 O35         2.0570   -2.1290   -4.5760 o         1 G6X     -0.912500
     36 O36         1.5670   -1.9490   -2.2830 o         1 G6X     -0.912500
     37 C41        -0.0460   -0.0720    3.7130 c3        1 G6X      0.032000
     38 C42        -0.9740    0.2830    2.5230 c2        1 G6X      0.010000
     39 H1         -0.7410    0.3440    0.3010 ha        1 G6X      0.148000
     40 H2          1.7710    0.7100    0.2940 ha        1 G6X      0.148000
     41 H3          1.9490    1.7670    2.8350 h4        1 G6X      0.123000
     42 H4          1.8900    0.0390    4.3030 hc        1 G6X      0.106000
     43 H4A         1.6530   -1.0070    3.1310 hc        1 G6X      0.106000
     44 H7         -1.6760   -4.4120    0.9060 ha        1 G6X      0.139000
     45 H8         -2.3760   -2.5470   -0.4530 ha        1 G6X      0.136000
     46 H9         -3.5110   -0.2530   -0.4370 h1        1 G6X      0.086000
     47 H9A        -4.2390   -0.5620    0.9750 h1        1 G6X      0.086000
     48 H11        -3.6590    2.1600    2.7030 h1        1 G6X      0.094500
     49 H11A       -3.5870    0.5710    2.8480 h1        1 G6X      0.094500
     50 H12        -1.7090    1.5720    3.8520 hc        1 G6X      0.091000
     51 H12A       -1.3210    2.2400    2.4840 hc        1 G6X      0.091000
     52 H16        -2.2860   -6.0300    3.7550 h1        1 G6X      0.083333
     53 H16A       -1.6100   -5.6050    2.3760 h1        1 G6X      0.083333
     54 H16B       -0.7080   -5.7860    3.6710 h1        1 G6X      0.083333
     55 HO18        3.7150   -0.0770    2.6550 ho        1 G6X      0.199000
     56 H19        -1.5480    1.0330   -0.0750 h1        1 G6X      0.072000
     57 H19A       -1.5140    2.2100    1.0330 h1        1 G6X      0.072000
     58 H20        -3.3630    2.5660   -1.1610 hc        1 G6X      0.088000
     59 H20A       -2.5420    3.7060   -0.3670 hc        1 G6X      0.088000
     60 H21        -0.6010    2.4550   -1.5330 hc        1 G6X      0.083500
     61 H21A       -1.2530    3.7520   -2.1580 hc        1 G6X      0.083500
     62 H22        -2.3340    1.2190   -2.7350 hc        1 G6X      0.086000
     63 H22A       -2.5420    2.5460   -3.5860 hc        1 G6X      0.086000
     64 H23         0.0860    2.2210   -3.7650 hc        1 G6X      0.098500
     65 H23A       -0.9150    1.6900   -4.8960 hc        1 G6X      0.098500
     66 H24        -0.6450   -0.4340   -4.3130 h1        1 G6X      0.107500
     67 H24A       -0.5670   -0.0810   -2.7510 h1        1 G6X      0.107500
     68 H28         4.6250    2.4880   -2.5710 ha        1 G6X      0.166000
     69 H29         6.6080    1.3680   -1.8060 ha        1 G6X      0.148000
     70 H30         6.7230   -1.0220   -1.8750 ha        1 G6X      0.148000
     71 H31         4.8670   -2.2920   -2.7020 ha        1 G6X      0.148000
     72 H41        -0.2130    0.5750    4.4370 h1        1 G6X      0.108000
@<TRIPOS>BOND
     1    1    2 1   
     2    1   39 1   
     3    2   40 1   
     4    3    4 1   
     5    3   18 1   
     6    3   41 1   
     7    4   37 1   
     8    4   42 1   
     9    4   43 1   
    10    5   13 1   
    11    5   37 1   
    12    6    7 1   
    13    6   13 1   
    14    7    8 1   
    15    7   44 1   
    16    8   45 1   
    17    9   10 1   
    18    9   15 1   
    19    9   46 1   
    20    9   47 1   
    21   10   11 1   
    22   10   19 1   
    23   11   12 1   
    24   11   48 1   
    25   11   49 1   
    26   12   38 1   
    27   12   50 1   
    28   12   51 1   
    29   13   14 1   
    30   14   15 1   
    31   14   38 1   
    32   16   17 1   
    33   16   52 1   
    34   16   53 1   
    35   16   54 1   
    36   18   55 1   
    37   19   20 1   
    38   19   56 1   
    39   19   57 1   
    40   20   21 1   
    41   20   58 1   
    42   20   59 1   
    43   21   22 1   
    44   21   60 1   
    45   21   61 1   
    46   22   23 1   
    47   22   62 1   
    48   22   63 1   
    49   23   24 1   
    50   23   64 1   
    51   23   65 1   
    52   24   25 1   
    53   24   66 1   
    54   24   67 1   
    55   25   26 1   
    56   25   33 1   
    57   26   27 1   
    58   26   34 1   
    59   27   28 1   
    60   27   32 1   
    61   28   29 1   
    62   28   68 1   
    63   29   69 1   
    64   30   31 1   
    65   30   70 1   
    66   31   71 1   
    67   32   33 1   
    68   33   35 1   
    69   33   36 1   
    70   37   38 1   
    71   37   72 1   
@<TRIPOS>SUBSTRUCTURE
     1 G6X         1 TEMP              0 ****  ****    0 ROOT
