@<TRIPOS>MOLECULE
G6X
   72    77     1     0     0
SMALL
bcc


@<TRIPOS>ATOM
      1 C1         -0.1820   -0.1270   -0.2730 c2        1 G6X     -0.134200
      2 C2          1.1290   -0.2920   -0.4570 c2        1 G6X     -0.206200
      3 C3          2.1380   -0.3700    0.6420 c3        1 G6X      0.181300
      4 C4          1.5920    0.2150    1.9390 c3        1 G6X     -0.115400
      5 O5          0.1600   -1.6080    2.6100 os        1 G6X     -0.310900
      6 C6         -1.5670   -3.3820    2.4760 ca        1 G6X      0.103100
      7 C7         -2.8430   -3.6990    1.9770 ca        1 G6X     -0.167000
      8 C8         -3.5590   -2.7790    1.2170 ca        1 G6X     -0.131000
      9 C9         -3.9110   -0.5030    0.2280 c3        1 G6X      0.231100
     10 N10        -3.2330    0.4420   -0.6410 n3        1 G6X     -0.753600
     11 C11        -2.5850    1.5630    0.0200 c3        1 G6X      0.186800
     12 C12        -1.6730    1.2420    1.2030 c3        1 G6X     -0.061400
     13 C13        -1.0350   -2.1350    2.1360 ca        1 G6X      0.085100
     14 C14        -1.7300   -1.2440    1.2870 ca        1 G6X     -0.104300
     15 C15        -3.0260   -1.5210    0.8820 ca        1 G6X     -0.054300
     16 C16        -1.3300   -5.4890    3.5430 c3        1 G6X      0.112700
     17 O17        -0.8020   -4.1920    3.2910 os        1 G6X     -0.307900
     18 O18         2.6020   -1.6980    0.8270 oh        1 G6X     -0.595800
     19 C19        -4.0590    0.8780   -1.7610 c3        1 G6X      0.181800
     20 C20        -4.1590   -0.1620   -2.8780 c3        1 G6X     -0.082400
     21 C21        -4.9610    0.3990   -4.0320 c3        1 G6X     -0.080400
     22 C22        -5.0890   -0.6160   -5.1490 c3        1 G6X     -0.076400
     23 C23        -5.8970   -0.0550   -6.2990 c3        1 G6X     -0.109400
     24 C24        -6.0010   -1.1000   -7.4130 c3        1 G6X      0.099000
     25 N25        -6.8410   -0.7140   -8.5150 n         1 G6X     -0.570200
     26 C26        -6.2890   -0.2610   -9.7280 c         1 G6X      0.718100
     27 C27        -7.4080    0.0630  -10.6710 ca        1 G6X     -0.092600
     28 C28        -7.2730    0.5320  -11.9620 ca        1 G6X     -0.073000
     29 C29        -8.4420    0.7800  -12.7030 ca        1 G6X     -0.082000
     30 C30        -9.6930    0.5580  -12.1440 ca        1 G6X     -0.131000
     31 C31        -9.8150    0.0800  -10.8280 ca        1 G6X      0.013000
     32 C32        -8.6760   -0.1700  -10.0840 ca        1 G6X     -0.334500
     33 S33        -8.5110   -0.7440   -8.4860 sy        1 G6X      1.508900
     34 O34        -5.0830   -0.1580   -9.9700 o         1 G6X     -0.562500
     35 O35        -9.0270    0.1740   -7.5680 o         1 G6X     -0.634300
     36 O36        -8.9960   -2.0480   -8.3670 o         1 G6X     -0.634300
     37 C41         0.1670   -0.1890    2.2340 c3        1 G6X      0.131100
     38 C42        -0.8560   -0.0320    1.0580 c3        1 G6X      0.027500
     39 H1         -0.8580   -0.0860   -1.1430 ha        1 G6X      0.153000
     40 H2          1.5460   -0.3980   -1.4720 ha        1 G6X      0.134000
     41 H3          3.0700    0.1950    0.3420 h1        1 G6X      0.073700
     42 H4          1.6290    1.3340    1.8800 hc        1 G6X      0.067700
     43 H4A         2.2450   -0.1200    2.7880 hc        1 G6X      0.067700
     44 H7         -3.2930   -4.6750    2.2070 ha        1 G6X      0.139000
     45 H8         -4.5740   -3.0400    0.8800 ha        1 G6X      0.133000
     46 H9         -4.6920   -1.0530   -0.3760 h1        1 G6X      0.041700
     47 H9A        -4.4570    0.0350    1.0640 h1        1 G6X      0.041700
     48 H11        -3.3460    2.3170    0.3860 h1        1 G6X      0.030700
     49 H11A       -1.9580    2.0730   -0.7690 h1        1 G6X      0.030700
     50 H12        -0.9750    2.1110    1.3320 hc        1 G6X      0.050200
     51 H12A       -2.2920    1.1610    2.1350 hc        1 G6X      0.050200
     52 H16        -2.2920   -5.4200    4.1060 h1        1 G6X      0.043700
     53 H16A       -0.5390   -5.9710    4.1720 h1        1 G6X      0.043700
     54 H16B       -1.4740   -6.0530    2.5900 h1        1 G6X      0.043700
     55 HO18        1.8640   -2.2130    1.1820 ho        1 G6X      0.418000
     56 H19        -5.1040    1.1450   -1.4220 h1        1 G6X      0.031700
     57 H19A       -3.6060    1.8120   -2.2020 h1        1 G6X      0.031700
     58 H20        -3.1320   -0.4440   -3.2290 hc        1 G6X      0.050200
     59 H20A       -4.6490   -1.0970   -2.5000 hc        1 G6X      0.050200
     60 H21        -4.4650    1.3260   -4.4240 hc        1 G6X      0.043200
     61 H21A       -5.9830    0.6960   -3.6770 hc        1 G6X      0.043200
     62 H22        -5.5810   -1.5450   -4.7570 hc        1 G6X      0.044200
     63 H22A       -4.0670   -0.9080   -5.5100 hc        1 G6X      0.044200
     64 H23        -5.4030    0.8710   -6.6930 hc        1 G6X      0.059200
     65 H23A       -6.9190    0.2370   -5.9400 hc        1 G6X      0.059200
     66 H24        -6.4160   -2.0590   -6.9840 h1        1 G6X      0.068700
     67 H24A       -4.9640   -1.3170   -7.8040 h1        1 G6X      0.068700
     68 H28        -6.2760    0.7050  -12.3970 ha        1 G6X      0.165000
     69 H29        -8.3560    1.1550  -13.7360 ha        1 G6X      0.147000
     70 H30       -10.6030    0.7550  -12.7320 ha        1 G6X      0.148000
     71 H31       -10.8170   -0.0910  -10.4000 ha        1 G6X      0.152000
     72 H41        -0.2100    0.3670    3.1360 h1        1 G6X      0.059700
@<TRIPOS>BOND
     1    1    2 2   
     2    1   38 1   
     3    1   39 1   
     4    2    3 1   
     5    2   40 1   
     6    3    4 1   
     7    3   18 1   
     8    3   41 1   
     9    4   37 1   
    10    4   42 1   
    11    4   43 1   
    12    5   13 1   
    13    5   37 1   
    14    6    7 ar  
    15    6   13 ar  
    16    6   17 1   
    17    7    8 ar  
    18    7   44 1   
    19    8   15 ar  
    20    8   45 1   
    21    9   10 1   
    22    9   15 1   
    23    9   46 1   
    24    9   47 1   
    25   10   11 1   
    26   10   19 1   
    27   11   12 1   
    28   11   48 1   
    29   11   49 1   
    30   12   38 1   
    31   12   50 1   
    32   12   51 1   
    33   13   14 ar  
    34   14   15 ar  
    35   14   38 1   
    36   16   17 1   
    37   16   52 1   
    38   16   53 1   
    39   16   54 1   
    40   18   55 1   
    41   19   20 1   
    42   19   56 1   
    43   19   57 1   
    44   20   21 1   
    45   20   58 1   
    46   20   59 1   
    47   21   22 1   
    48   21   60 1   
    49   21   61 1   
    50   22   23 1   
    51   22   62 1   
    52   22   63 1   
    53   23   24 1   
    54   23   64 1   
    55   23   65 1   
    56   24   25 1   
    57   24   66 1   
    58   24   67 1   
    59   25   26 1   
    60   25   33 1   
    61   26   27 1   
    62   26   34 2   
    63   27   28 ar  
    64   27   32 ar  
    65   28   29 ar  
    66   28   68 1   
    67   29   30 ar  
    68   29   69 1   
    69   30   31 ar  
    70   30   70 1   
    71   31   32 ar  
    72   31   71 1   
    73   32   33 1   
    74   33   35 2   
    75   33   36 2   
    76   37   38 1   
    77   37   72 1   
@<TRIPOS>SUBSTRUCTURE
     1 G6X         1 TEMP              0 ****  ****    0 ROOT
