@<TRIPOS>MOLECULE
G6X
   72    77     1     0     0
SMALL
bcc


@<TRIPOS>ATOM
      1 C1         -0.1810   -0.1310   -0.2690 c2        1 G6X     -0.134200
      2 C2          1.1300   -0.2980   -0.4510 c2        1 G6X     -0.206200
      3 C3          2.1380   -0.3770    0.6500 c3        1 G6X      0.181300
      4 C4          1.5900    0.2090    1.9460 c3        1 G6X     -0.115400
      5 O5          0.1540   -1.6130    2.6150 os        1 G6X     -0.310900
      6 C6         -1.5740   -3.3850    2.4780 ca        1 G6X      0.103100
      7 C7         -2.8500   -3.7000    1.9770 ca        1 G6X     -0.167000
      8 C8         -3.5640   -2.7790    1.2160 ca        1 G6X     -0.131000
      9 C9         -3.9120   -0.5020    0.2260 c3        1 G6X      0.231100
     10 N10        -3.2310    0.4410   -0.6420 n3        1 G6X     -0.753600
     11 C11        -2.5820    1.5610    0.0200 c3        1 G6X      0.186800
     12 C12        -1.6720    1.2390    1.2040 c3        1 G6X     -0.061400
     13 C13        -1.0400   -2.1380    2.1390 ca        1 G6X      0.085100
     14 C14        -1.7330   -1.2470    1.2890 ca        1 G6X     -0.104300
     15 C15        -3.0280   -1.5220    0.8810 ca        1 G6X     -0.054300
     16 C16        -1.3420   -5.4920    3.5450 c3        1 G6X      0.112700
     17 O17        -0.8130   -4.1960    3.2940 os        1 G6X     -0.307900
     18 O18         2.5990   -1.7060    0.8360 oh        1 G6X     -0.595800
     19 C19        -4.0550    0.8790   -1.7630 c3        1 G6X      0.181800
     20 C20        -4.1540   -0.1610   -2.8800 c3        1 G6X     -0.082400
     21 C21        -4.9560    0.4010   -4.0350 c3        1 G6X     -0.080400
     22 C22        -5.0800   -0.6130   -5.1530 c3        1 G6X     -0.076400
     23 C23        -5.8900   -0.0530   -6.3020 c3        1 G6X     -0.109400
     24 C24        -5.9900   -1.0970   -7.4180 c3        1 G6X      0.099000
     25 N25        -6.8330   -0.7120   -8.5190 n         1 G6X     -0.570200
     26 C26        -6.2830   -0.2540   -9.7310 c         1 G6X      0.718100
     27 C27        -7.4040    0.0660  -10.6730 ca        1 G6X     -0.092600
     28 C28        -7.2720    0.5380  -11.9630 ca        1 G6X     -0.073000
     29 C29        -8.4430    0.7820  -12.7040 ca        1 G6X     -0.082000
     30 C30        -9.6930    0.5530  -12.1440 ca        1 G6X     -0.131000
     31 C31        -9.8120    0.0720  -10.8280 ca        1 G6X      0.013000
     32 C32        -8.6710   -0.1730  -10.0860 ca        1 G6X     -0.334500
     33 S33        -8.5030   -0.7500   -8.4890 sy        1 G6X      1.508900
     34 O34        -5.0780   -0.1450   -9.9740 o         1 G6X     -0.562500
     35 O35        -9.0220    0.1640   -7.5690 o         1 G6X     -0.634300
     36 O36        -8.9810   -2.0560   -8.3720 o         1 G6X     -0.634300
     37 C41         0.1640   -0.1940    2.2390 c3        1 G6X      0.131100
     38 C42        -0.8570   -0.0360    1.0610 c3        1 G6X      0.027500
     39 H1         -0.8560   -0.0900   -1.1400 ha        1 G6X      0.153000
     40 H2          1.5490   -0.4050   -1.4640 ha        1 G6X      0.134000
     41 H3          3.0710    0.1860    0.3510 h1        1 G6X      0.073700
     42 H4          2.2410   -0.1270    2.7960 hc        1 G6X      0.067700
     43 H4A         1.6290    1.3270    1.8870 hc        1 G6X      0.067700
     44 H7         -3.3020   -4.6750    2.2060 ha        1 G6X      0.139000
     45 H8         -4.5780   -3.0390    0.8770 ha        1 G6X      0.133000
     46 H9         -4.6920   -1.0520   -0.3790 h1        1 G6X      0.041700
     47 H9A        -4.4580    0.0360    1.0610 h1        1 G6X      0.041700
     48 H11        -3.3430    2.3160    0.3850 h1        1 G6X      0.030700
     49 H11A       -1.9530    2.0710   -0.7680 h1        1 G6X      0.030700
     50 H12        -2.2930    1.1590    2.1360 hc        1 G6X      0.050200
     51 H12A       -0.9730    2.1080    1.3350 hc        1 G6X      0.050200
     52 H16        -2.3050   -5.4230    4.1070 h1        1 G6X      0.043700
     53 H16A       -1.4850   -6.0560    2.5910 h1        1 G6X      0.043700
     54 H16B       -0.5520   -5.9760    4.1750 h1        1 G6X      0.043700
     55 HO18        1.8600   -2.2200    1.1900 ho        1 G6X      0.418000
     56 H19        -3.6010    1.8130   -2.2030 h1        1 G6X      0.031700
     57 H19A       -5.1000    1.1460   -1.4260 h1        1 G6X      0.031700
     58 H20        -4.6430   -1.0970   -2.5040 hc        1 G6X      0.050200
     59 H20A       -3.1260   -0.4420   -3.2310 hc        1 G6X      0.050200
     60 H21        -4.4610    1.3290   -4.4250 hc        1 G6X      0.043200
     61 H21A       -5.9790    0.6950   -3.6800 hc        1 G6X      0.043200
     62 H22        -5.5700   -1.5450   -4.7620 hc        1 G6X      0.044200
     63 H22A       -4.0580   -0.9020   -5.5140 hc        1 G6X      0.044200
     64 H23        -6.9140    0.2350   -5.9430 hc        1 G6X      0.059200
     65 H23A       -5.4000    0.8760   -6.6940 hc        1 G6X      0.059200
     66 H24        -4.9530   -1.3080   -7.8100 h1        1 G6X      0.068700
     67 H24A       -6.4010   -2.0590   -6.9910 h1        1 G6X      0.068700
     68 H28        -6.2760    0.7160  -12.3990 ha        1 G6X      0.165000
     69 H29        -8.3590    1.1590  -13.7350 ha        1 G6X      0.147000
     70 H30       -10.6040    0.7470  -12.7310 ha        1 G6X      0.148000
     71 H31       -10.8120   -0.1050  -10.4000 ha        1 G6X      0.152000
     72 H41        -0.2140    0.3630    3.1400 h1        1 G6X      0.059700
@<TRIPOS>BOND
     1    1    2 2   
     2    1   38 1   
     3    1   39 1   
     4    2    3 1   
     5    2   40 1   
     6    3    4 1   
     7    3   18 1   
     8    3   41 1   
     9    4   37 1   
    10    4   42 1   
    11    4   43 1   
    12    5   13 1   
    13    5   37 1   
    14    6    7 ar  
    15    6   13 ar  
    16    6   17 1   
    17    7    8 ar  
    18    7   44 1   
    19    8   15 ar  
    20    8   45 1   
    21    9   10 1   
    22    9   15 1   
    23    9   46 1   
    24    9   47 1   
    25   10   11 1   
    26   10   19 1   
    27   11   12 1   
    28   11   48 1   
    29   11   49 1   
    30   12   38 1   
    31   12   50 1   
    32   12   51 1   
    33   13   14 ar  
    34   14   15 ar  
    35   14   38 1   
    36   16   17 1   
    37   16   52 1   
    38   16   53 1   
    39   16   54 1   
    40   18   55 1   
    41   19   20 1   
    42   19   56 1   
    43   19   57 1   
    44   20   21 1   
    45   20   58 1   
    46   20   59 1   
    47   21   22 1   
    48   21   60 1   
    49   21   61 1   
    50   22   23 1   
    51   22   62 1   
    52   22   63 1   
    53   23   24 1   
    54   23   64 1   
    55   23   65 1   
    56   24   25 1   
    57   24   66 1   
    58   24   67 1   
    59   25   26 1   
    60   25   33 1   
    61   26   27 1   
    62   26   34 2   
    63   27   28 ar  
    64   27   32 ar  
    65   28   29 ar  
    66   28   68 1   
    67   29   30 ar  
    68   29   69 1   
    69   30   31 ar  
    70   30   70 1   
    71   31   32 ar  
    72   31   71 1   
    73   32   33 1   
    74   33   35 2   
    75   33   36 2   
    76   37   38 1   
    77   37   72 1   
@<TRIPOS>SUBSTRUCTURE
     1 G6X         1 TEMP              0 ****  ****    0 ROOT
