@<TRIPOS>MOLECULE
G6X
   72    77     1     0     0
SMALL
bcc


@<TRIPOS>ATOM
      1 C1         -0.1860   -0.1250   -0.2700 c2        1 G6X     -0.134200
      2 C2          1.1250   -0.2880   -0.4540 c2        1 G6X     -0.206200
      3 C3          2.1340   -0.3650    0.6450 c3        1 G6X      0.181300
      4 C4          1.5870    0.2170    1.9430 c3        1 G6X     -0.115400
      5 O5          0.1570   -1.6100    2.6110 os        1 G6X     -0.310900
      6 C6         -1.5660   -3.3860    2.4750 ca        1 G6X      0.103100
      7 C7         -2.8420   -3.7050    1.9750 ca        1 G6X     -0.167000
      8 C8         -3.5590   -2.7850    1.2160 ca        1 G6X     -0.131000
      9 C9         -3.9150   -0.5080    0.2290 c3        1 G6X      0.231100
     10 N10        -3.2390    0.4390   -0.6380 n3        1 G6X     -0.753600
     11 C11        -2.5920    1.5600    0.0250 c3        1 G6X      0.186800
     12 C12        -1.6800    1.2390    1.2070 c3        1 G6X     -0.061400
     13 C13        -1.0360   -2.1380    2.1370 ca        1 G6X      0.085100
     14 C14        -1.7330   -1.2470    1.2890 ca        1 G6X     -0.104300
     15 C15        -3.0280   -1.5260    0.8830 ca        1 G6X     -0.054300
     16 C16        -1.3260   -5.4950    3.5390 c3        1 G6X      0.112700
     17 O17        -0.8010   -4.1960    3.2890 os        1 G6X     -0.307900
     18 O18         2.5990   -1.6930    0.8280 oh        1 G6X     -0.595800
     19 C19        -4.0650    0.8750   -1.7580 c3        1 G6X      0.181800
     20 C20        -4.1640   -0.1650   -2.8750 c3        1 G6X     -0.082400
     21 C21        -4.9640    0.3980   -4.0310 c3        1 G6X     -0.080400
     22 C22        -5.0920   -0.6160   -5.1470 c3        1 G6X     -0.076400
     23 C23        -5.8960   -0.0540   -6.2990 c3        1 G6X     -0.109400
     24 C24        -6.0020   -1.0990   -7.4120 c3        1 G6X      0.099000
     25 N25        -6.8390   -0.7110   -8.5170 n         1 G6X     -0.570200
     26 C26        -6.2820   -0.2610   -9.7290 c         1 G6X      0.718100
     27 C27        -7.3970    0.0670  -10.6750 ca        1 G6X     -0.092600
     28 C28        -7.2570    0.5330  -11.9660 ca        1 G6X     -0.073000
     29 C29        -8.4240    0.7850  -12.7100 ca        1 G6X     -0.082000
     30 C30        -9.6770    0.5680  -12.1530 ca        1 G6X     -0.131000
     31 C31        -9.8040    0.0930  -10.8370 ca        1 G6X      0.013000
     32 C32        -8.6680   -0.1600  -10.0900 ca        1 G6X     -0.334500
     33 S33        -8.5090   -0.7330   -8.4910 sy        1 G6X      1.508900
     34 O34        -5.0750   -0.1630   -9.9690 o         1 G6X     -0.562500
     35 O35        -9.0230    0.1880   -7.5760 o         1 G6X     -0.634300
     36 O36        -8.9990   -2.0350   -8.3710 o         1 G6X     -0.634300
     37 C41         0.1620   -0.1900    2.2370 c3        1 G6X      0.131100
     38 C42        -0.8610   -0.0340    1.0610 c3        1 G6X      0.027500
     39 H1         -0.8630   -0.0850   -1.1400 ha        1 G6X      0.153000
     40 H2          1.5430   -0.3920   -1.4680 ha        1 G6X      0.134000
     41 H3          3.0650    0.2010    0.3460 h1        1 G6X      0.073700
     42 H4          1.6220    1.3360    1.8860 hc        1 G6X      0.067700
     43 H4A         2.2400   -0.1180    2.7920 hc        1 G6X      0.067700
     44 H7         -3.2910   -4.6820    2.2040 ha        1 G6X      0.139000
     45 H8         -4.5730   -3.0470    0.8780 ha        1 G6X      0.133000
     46 H9         -4.4620    0.0270    1.0660 h1        1 G6X      0.041700
     47 H9A        -4.6940   -1.0590   -0.3750 h1        1 G6X      0.041700
     48 H11        -3.3550    2.3120    0.3920 h1        1 G6X      0.030700
     49 H11A       -1.9660    2.0720   -0.7630 h1        1 G6X      0.030700
     50 H12        -2.2990    1.1560    2.1400 hc        1 G6X      0.050200
     51 H12A       -0.9830    2.1100    1.3380 hc        1 G6X      0.050200
     52 H16        -2.2880   -5.4290    4.1020 h1        1 G6X      0.043700
     53 H16A       -1.4690   -6.0570    2.5840 h1        1 G6X      0.043700
     54 H16B       -0.5340   -5.9770    4.1670 h1        1 G6X      0.043700
     55 HO18        1.8630   -2.2100    1.1830 ho        1 G6X      0.418000
     56 H19        -3.6130    1.8100   -2.1970 h1        1 G6X      0.031700
     57 H19A       -5.1100    1.1410   -1.4180 h1        1 G6X      0.031700
     58 H20        -3.1360   -0.4460   -3.2250 hc        1 G6X      0.050200
     59 H20A       -4.6540   -1.1000   -2.4990 hc        1 G6X      0.050200
     60 H21        -4.4660    1.3250   -4.4210 hc        1 G6X      0.043200
     61 H21A       -5.9860    0.6960   -3.6750 hc        1 G6X      0.043200
     62 H22        -5.5870   -1.5440   -4.7560 hc        1 G6X      0.044200
     63 H22A       -4.0700   -0.9110   -5.5060 hc        1 G6X      0.044200
     64 H23        -6.9190    0.2420   -5.9420 hc        1 G6X      0.059200
     65 H23A       -5.3990    0.8710   -6.6930 hc        1 G6X      0.059200
     66 H24        -6.4220   -2.0570   -6.9840 h1        1 G6X      0.068700
     67 H24A       -4.9650   -1.3200   -7.8010 h1        1 G6X      0.068700
     68 H28        -6.2590    0.7010  -12.3990 ha        1 G6X      0.165000
     69 H29        -8.3340    1.1580  -13.7430 ha        1 G6X      0.147000
     70 H30       -10.5850    0.7680  -12.7430 ha        1 G6X      0.148000
     71 H31       -10.8070   -0.0740  -10.4110 ha        1 G6X      0.152000
     72 H41        -0.2160    0.3640    3.1400 h1        1 G6X      0.059700
@<TRIPOS>BOND
     1    1    2 2   
     2    1   38 1   
     3    1   39 1   
     4    2    3 1   
     5    2   40 1   
     6    3    4 1   
     7    3   18 1   
     8    3   41 1   
     9    4   37 1   
    10    4   42 1   
    11    4   43 1   
    12    5   13 1   
    13    5   37 1   
    14    6    7 ar  
    15    6   13 ar  
    16    6   17 1   
    17    7    8 ar  
    18    7   44 1   
    19    8   15 ar  
    20    8   45 1   
    21    9   10 1   
    22    9   15 1   
    23    9   46 1   
    24    9   47 1   
    25   10   11 1   
    26   10   19 1   
    27   11   12 1   
    28   11   48 1   
    29   11   49 1   
    30   12   38 1   
    31   12   50 1   
    32   12   51 1   
    33   13   14 ar  
    34   14   15 ar  
    35   14   38 1   
    36   16   17 1   
    37   16   52 1   
    38   16   53 1   
    39   16   54 1   
    40   18   55 1   
    41   19   20 1   
    42   19   56 1   
    43   19   57 1   
    44   20   21 1   
    45   20   58 1   
    46   20   59 1   
    47   21   22 1   
    48   21   60 1   
    49   21   61 1   
    50   22   23 1   
    51   22   62 1   
    52   22   63 1   
    53   23   24 1   
    54   23   64 1   
    55   23   65 1   
    56   24   25 1   
    57   24   66 1   
    58   24   67 1   
    59   25   26 1   
    60   25   33 1   
    61   26   27 1   
    62   26   34 2   
    63   27   28 ar  
    64   27   32 ar  
    65   28   29 ar  
    66   28   68 1   
    67   29   30 ar  
    68   29   69 1   
    69   30   31 ar  
    70   30   70 1   
    71   31   32 ar  
    72   31   71 1   
    73   32   33 1   
    74   33   35 2   
    75   33   36 2   
    76   37   38 1   
    77   37   72 1   
@<TRIPOS>SUBSTRUCTURE
     1 G6X         1 TEMP              0 ****  ****    0 ROOT
