@<TRIPOS>MOLECULE
G73
   52    54     1     0     0
SMALL
bcc


@<TRIPOS>ATOM
      1 C01        -0.0460   -0.3530   -0.2060 c3        1 G73     -0.077000
      2 O02         1.2670    0.1760   -0.0630 os        1 G73     -0.208000
      3 C03         1.8320    0.0710    1.1930 ca        1 G73      0.070000
      4 C04         3.1400    0.5800    1.3000 ca        1 G73     -0.165500
      5 C05         3.8010    0.5330    2.5170 ca        1 G73     -0.105500
      6 C06         1.1970   -0.4860    2.3070 ca        1 G73     -0.165500
      7 C07         1.8680   -0.5400    3.5260 ca        1 G73     -0.105500
      8 C08         3.1740   -0.0270    3.6530 ca        1 G73      0.001000
      9 N09         3.8090    0.0100    4.9220 nu        1 G73     -0.224000
     10 C10         5.0880   -0.5630    5.1070 c2        1 G73      0.181000
     11 N11         5.7770   -1.1580    4.1060 n2        1 G73     -0.251000
     12 C12         7.0670   -1.6260    4.3700 c2        1 G73      0.146000
     13 N13         7.7760   -2.0930    3.2250 nu        1 G73     -0.206000
     14 C14         8.8040   -3.0640    3.4040 ca        1 G73      0.018000
     15 C15         8.5180   -4.4480    3.2970 ca        1 G73     -0.042000
     16 C16         7.1320   -4.9200    3.0550 c3        1 G73     -0.184000
     17 C17         9.5460   -5.3820    3.4110 ca        1 G73     -0.132000
     18 C18        10.8650   -4.9710    3.6370 ca        1 G73      0.014000
     19 C19        11.9210   -5.9580    3.7630 c2        1 G73     -0.410000
     20 C20        13.1970   -5.7460    4.0080 c1        1 G73      0.160000
     21 C21        15.0590   -7.4470    4.2570 c1        1 G73     -0.160000
     22 N22        14.4960   -8.4400    4.0400 n1        1 G73     -0.090000
     23 C23        11.1470   -3.6050    3.7360 ca        1 G73     -0.132000
     24 C24        10.1380   -2.6440    3.6180 ca        1 G73     -0.042000
     25 C25        10.4980   -1.2100    3.7170 c3        1 G73     -0.184000
     26 N26         7.7190   -1.6200    5.5840 n2        1 G73     -0.158000
     27 C27         7.0240   -1.0260    6.5880 c2        1 G73      0.053000
     28 C28         5.6890   -0.4630    6.3950 c2        1 G73     -0.218000
     29 N29         5.2800    0.0370    7.6360 na        1 G73     -0.217000
     30 C30         6.3630   -0.1790    8.5040 c2        1 G73     -0.017000
     31 N31         7.4000   -0.8280    7.9470 n2        1 G73     -0.126000
     32 H1         -0.0590   -1.4470    0.0200 h1        1 G73      0.084000
     33 H2         -0.2830   -0.1700   -1.2850 h1        1 G73      0.084000
     34 H3         -0.7640    0.1920    0.4530 h1        1 G73      0.084000
     35 H4          3.6240    1.0120    0.4120 ha        1 G73      0.146500
     36 H5          4.8250    0.9340    2.5890 ha        1 G73      0.141500
     37 H6          0.1760   -0.8870    2.2360 ha        1 G73      0.146500
     38 H7          1.3550   -0.9880    4.3910 ha        1 G73      0.141500
     39 H8          3.1880   -0.2270    5.6720 hn        1 G73      0.204000
     40 H9          7.1670   -2.3270    2.4610 hn        1 G73      0.219000
     41 H10         7.0720   -6.0350    3.1010 hc        1 G73      0.090000
     42 H11         6.7790   -4.5960    2.0440 hc        1 G73      0.090000
     43 H12         6.4330   -4.5030    3.8240 hc        1 G73      0.090000
     44 H13         9.3150   -6.4550    3.3290 ha        1 G73      0.135000
     45 H14        11.6020   -7.0180    3.6390 ha        1 G73      0.201000
     46 H16        15.5700   -6.5260    4.4550 ha        1 G73      0.254000
     47 H18        12.1830   -3.2750    3.9110 ha        1 G73      0.135000
     48 H19        10.1180   -0.7830    4.6790 hc        1 G73      0.090000
     49 H20        11.6080   -1.0720    3.6870 hc        1 G73      0.090000
     50 H21        10.0510   -0.6280    2.8730 hc        1 G73      0.090000
     51 H22         4.5460    0.6810    7.7690 hn        1 G73      0.258000
     52 H23         6.3250    0.1330    9.5570 h5        1 G73      0.203000
@<TRIPOS>BOND
     1    1    2 1   
     2    1   32 1   
     3    1   33 1   
     4    1   34 1   
     5    2    3 1   
     6    3    4 1   
     7    3    6 1   
     8    4    5 1   
     9    4   35 1   
    10    5    8 1   
    11    5   36 1   
    12    6    7 1   
    13    6   37 1   
    14    7    8 1   
    15    7   38 1   
    16    8    9 1   
    17    9   10 1   
    18    9   39 1   
    19   10   11 1   
    20   10   28 1   
    21   11   12 1   
    22   12   13 1   
    23   12   26 1   
    24   13   14 1   
    25   13   40 1   
    26   14   15 1   
    27   14   24 1   
    28   15   16 1   
    29   15   17 1   
    30   16   41 1   
    31   16   42 1   
    32   16   43 1   
    33   17   18 1   
    34   17   44 1   
    35   18   19 1   
    36   18   23 1   
    37   19   20 1   
    38   19   45 1   
    39   21   22 1   
    40   21   46 1   
    41   23   24 1   
    42   23   47 1   
    43   24   25 1   
    44   25   48 1   
    45   25   49 1   
    46   25   50 1   
    47   26   27 1   
    48   27   28 1   
    49   27   31 1   
    50   28   29 1   
    51   29   30 1   
    52   29   51 1   
    53   30   31 1   
    54   30   52 1   
@<TRIPOS>SUBSTRUCTURE
     1 G73         1 TEMP              0 ****  ****    0 ROOT
