@<TRIPOS>MOLECULE
G73
   54    56     1     0     0
SMALL
bcc


@<TRIPOS>ATOM
      1 C01        -0.6290    0.5140    0.8780 c3        1 G73      0.092700
      2 O02         0.8060    0.3480    0.7420 os        1 G73     -0.213900
      3 C03         1.5440    0.0720    1.8000 ca        1 G73      0.363100
      4 C04         2.9630   -0.0720    1.5480 ca        1 G73     -0.220000
      5 C05         3.8140   -0.3610    2.5590 ca        1 G73      0.019500
      6 C06         1.0490   -0.0830    3.1390 ca        1 G73     -0.220000
      7 C07         1.8940   -0.3700    4.1580 ca        1 G73      0.019500
      8 C08         3.3550   -0.5440    3.9450 ca        1 G73      0.144400
      9 N09         4.0430   -0.8270    5.0130 ne        1 G73     -0.466100
     10 C10         5.4130   -1.0700    5.1650 cd        1 G73      0.642900
     11 N11         6.3110   -1.2490    4.1430 nd        1 G73     -0.687000
     12 C12         7.6110   -1.5090    4.4680 cc        1 G73      0.642200
     13 N13         8.5540   -1.7050    3.3130 n4        1 G73     -0.551400
     14 C14         9.3800   -2.9120    3.4290 ca        1 G73     -0.081400
     15 C15         8.8400   -4.1590    3.0350 ca        1 G73     -0.017800
     16 C16         7.4660   -4.2820    2.4920 c3        1 G73     -0.089800
     17 C17         9.6380   -5.2950    3.1430 ca        1 G73     -0.114000
     18 C18        10.9570   -5.2190    3.6250 ca        1 G73      0.032200
     19 C19        11.7340   -6.4420    3.7320 ce        1 G73     -0.124200
     20 C20        13.0770   -6.4850    3.7630 cf        1 G73      0.032300
     21 C21        13.7900   -7.7070    3.8650 ch        1 G73      0.144500
     22 N22        14.3920   -8.7000    3.9490 n1        1 G73     -0.280800
     23 C23        11.4730   -3.9710    3.9960 ca        1 G73     -0.114000
     24 C24        10.7060   -2.8070    3.9050 ca        1 G73     -0.017800
     25 C25        11.3160   -1.5100    4.2870 c3        1 G73     -0.089800
     26 N26         8.1910   -1.6060    5.7170 nc        1 G73     -0.248300
     27 C27         7.3330   -1.4350    6.7340 cd        1 G73      0.364300
     28 C28         5.8790   -1.1660    6.5060 cd        1 G73     -0.191500
     29 N29         5.3120   -1.0550    7.7530 na        1 G73     -0.311900
     30 C30         6.3610   -1.2460    8.6920 cc        1 G73      0.540400
     31 N31         7.5600   -1.4670    8.1380 nd        1 G73     -0.591000
     32 H1         -0.9400    0.7030   -0.1860 h1        1 G73      0.103700
     33 H2         -1.0790   -0.4260    1.2770 h1        1 G73      0.103700
     34 H3         -0.8400    1.3980    1.5270 h1        1 G73      0.103700
     35 H4          3.3120    0.0690    0.5070 ha        1 G73      0.203000
     36 H5          4.8930   -0.4540    2.3410 ha        1 G73      0.193500
     37 H6         -0.0350    0.0380    3.3260 ha        1 G73      0.203000
     38 H7          1.5030   -0.4880    5.1900 ha        1 G73      0.193500
     39 H8          0.7570    2.8630   -0.9320 ha        1 G73      0.000000
     40 H9          8.0070   -1.7670    2.4420 hn        1 G73      0.473800
     41 H10         7.2150   -5.3550    2.2840 hc        1 G73      0.067533
     42 H11         7.3700   -3.7240    1.5260 hc        1 G73      0.067533
     43 H12         6.7090   -3.8930    3.2170 hc        1 G73      0.067533
     44 H13         9.2300   -6.2740    2.8390 ha        1 G73      0.171500
     45 H14        11.1410   -7.3750    3.7760 ha        1 G73      0.161000
     46 H16        13.7130   -5.5820    3.7000 ha        1 G73      0.158000
     47 H18        12.5070   -3.8980    4.3780 ha        1 G73      0.171500
     48 H19        10.7730   -1.0440    5.1480 hc        1 G73      0.067533
     49 H20        12.3810   -1.6510    4.6070 hc        1 G73      0.067533
     50 H21        11.3240   -0.7990    3.4220 hc        1 G73      0.067533
     51 H22         4.3550   -0.8920    7.9580 hn        1 G73      0.350700
     52 H23         6.1700   -1.2070    9.7820 h5        1 G73      0.119100
     53 H092        0.6270    2.4410   -0.4180 ha        1 G73      0.000000
     54 H132        9.1690   -0.8770    3.2770 hn        1 G73      0.473800
@<TRIPOS>BOND
     1    1    2 1   
     2    1   32 1   
     3    1   33 1   
     4    1   34 1   
     5    2    3 1   
     6    3    4 ar  
     7    3    6 ar  
     8    4    5 ar  
     9    4   35 1   
    10    5    8 ar  
    11    5   36 1   
    12    6    7 ar  
    13    6   37 1   
    14    7    8 ar  
    15    7   38 1   
    16    8    9 1   
    17    9   10 2   
    18   10   11 1   
    19   10   28 1   
    20   11   12 2   
    21   12   13 1   
    22   12   26 1   
    23   13   14 1   
    24   13   40 1   
    25   13   54 1   
    26   14   15 ar  
    27   14   24 ar  
    28   15   16 1   
    29   15   17 ar  
    30   16   41 1   
    31   16   42 1   
    32   16   43 1   
    33   17   18 ar  
    34   17   44 1   
    35   18   19 1   
    36   18   23 ar  
    37   19   20 2   
    38   19   45 1   
    39   20   21 1   
    40   20   46 1   
    41   21   22 3   
    42   23   24 ar  
    43   23   47 1   
    44   24   25 1   
    45   25   48 1   
    46   25   49 1   
    47   25   50 1   
    48   26   27 2   
    49   27   28 1   
    50   27   31 1   
    51   28   29 2   
    52   29   30 1   
    53   29   51 1   
    54   30   31 2   
    55   30   52 1   
    56   39   53 1   
@<TRIPOS>SUBSTRUCTURE
     1 G73         1 TEMP              0 ****  ****    0 ROOT
