@<TRIPOS>MOLECULE
G73
   52    41     1     0     0
SMALL
bcc


@<TRIPOS>ATOM
      1 C01        -6.8450    4.4040    0.4710 c3        1 G73     -0.077000
      2 O02        -5.5500    4.1820    1.0470 os        1 G73     -0.207000
      3 C03        -4.9750    2.9160    0.7150 c2        1 G73      0.066000
      4 C04        -5.1310    1.8410    1.5750 c2        1 G73     -0.138000
      5 C05        -4.5880    0.6040    1.2510 c1        1 G73     -0.142000
      6 C06        -4.2760    2.7590   -0.4710 c1        1 G73     -0.186000
      7 C07        -3.7330    1.5250   -0.7970 c1        1 G73     -0.111000
      8 C08        -3.8920    0.4440    0.0720 c1        1 G73     -0.011000
      9 N09        -3.4030   -0.8560   -0.3010 n2        1 G73     -0.234000
     10 C10        -2.0380   -1.1840   -0.1020 c2        1 G73      0.182000
     11 N11        -1.1030   -0.6740   -0.9180 n2        1 G73     -0.263000
     12 C12         0.1860   -1.0980   -0.8250 c1        1 G73      0.144000
     13 N13         1.2490   -0.5050   -1.5590 n3        1 G73     -0.208000
     14 C14         2.6080   -0.5420   -1.0340 c2        1 G73      0.033000
     15 C15         3.4390   -1.6290   -1.3280 c1        1 G73     -0.018000
     16 C16         3.0370   -2.6130   -2.4320 c2        1 G73     -0.184000
     17 C17         4.7150   -1.7010   -0.7650 c1        1 G73     -0.116000
     18 C18         5.1590   -0.6920    0.0880 c1        1 G73     -0.065000
     19 C19         6.5370   -0.8100    0.7730 c2        1 G73     -0.048000
     20 C20         7.6000   -0.1440    0.2680 c1        1 G73     -0.111000
     21 C21         7.4370    0.7040   -0.9520 c1        1 G73     -0.027000
     22 N22         7.3110    1.3480   -1.8800 n1        1 G73     -0.103500
     23 C23         4.3270    0.3940    0.3810 c1        1 G73     -0.104000
     24 C24         3.0550    0.4680   -0.1780 c1        1 G73     -0.085000
     25 C25         2.1830    1.7220    0.0550 c2        1 G73     -0.184000
     26 N26         0.5280   -2.0360    0.0900 n1        1 G73     -0.103500
     27 C27        -0.4170   -2.5560    0.9200 c1        1 G73     -0.027000
     28 C28        -1.6900   -2.1400    0.8310 c1        1 G73     -0.197000
     29 N29        -2.4260   -2.8550    1.7170 n1        1 G73     -0.171000
     30 C30        -1.6020   -3.7110    2.3500 c1        1 G73     -0.015000
     31 N31        -0.3600   -3.5310    1.8620 n1        1 G73     -0.171000
     32 H1         -7.2170    5.2620    0.8150 h1        1 G73      0.086000
     33 H2         -6.7630    4.4500   -0.5200 h1        1 G73      0.086000
     34 H3         -7.4520    3.6570    0.7200 h1        1 G73      0.086000
     35 H4         -5.6220    1.9530    2.4100 ha        1 G73      0.156000
     36 H5         -4.6990   -0.1510    1.8590 ha        1 G73      0.151000
     37 H6         -4.1660    3.5160   -1.0760 ha        1 G73      0.143000
     38 H7         -3.2430    1.4130   -1.6260 ha        1 G73      0.145000
     39 H8         -3.9850   -1.4870   -0.6420 hn        1 G73      0.226000
     40 H9          1.0770   -0.0860   -2.3630 hn        1 G73      0.218000
     41 H10         3.2940   -2.2490   -3.3040 ha        1 G73      0.090333
     42 H11         3.4970   -3.4780   -2.2880 ha        1 G73      0.090333
     43 H12         2.0630   -2.7520   -2.4080 ha        1 G73      0.090333
     44 H13         5.2930   -2.4560   -0.9700 ha        1 G73      0.136000
     45 H14         6.6410   -1.3590    1.5630 ha        1 G73      0.138000
     46 H16         8.4770   -0.2170    0.7020 ha        1 G73      0.152000
     47 H18         4.6330    1.0850    0.9670 ha        1 G73      0.142000
     48 H19         1.4010    1.6800   -0.5140 ha        1 G73      0.090333
     49 H20         2.7010    2.5250   -0.1600 ha        1 G73      0.090333
     50 H21         1.9010    1.7560    0.9980 ha        1 G73      0.090333
     51 H22        -3.3190   -2.7700    1.8590 DU        1 G73      0.237000
     52 H23        -1.8540   -4.3250    3.0570 DU        1 G73      0.237000
@<TRIPOS>BOND
     1    1    2 1   
     2    1   32 1   
     3    1   33 1   
     4    1   34 1   
     5    2    3 1   
     6    3    4 1   
     7    3    6 1   
     8    4    5 1   
     9    4   35 1   
    10    5   36 1   
    11    6   37 1   
    12    7    8 1   
    13    7   38 1   
    14    9   10 1   
    15    9   39 1   
    16   10   11 1   
    17   10   28 1   
    18   11   12 1   
    19   12   13 1   
    20   13   14 1   
    21   13   40 1   
    22   14   15 1   
    23   14   24 1   
    24   15   17 1   
    25   16   41 1   
    26   16   42 1   
    27   16   43 1   
    28   17   44 1   
    29   18   19 1   
    30   18   23 1   
    31   19   20 1   
    32   19   45 1   
    33   20   46 1   
    34   21   22 1   
    35   23   47 1   
    36   25   48 1   
    37   25   49 1   
    38   25   50 1   
    39   26   27 1   
    40   29   30 1   
    41   30   31 1   
@<TRIPOS>SUBSTRUCTURE
     1 G73         1 TEMP              0 ****  ****    0 ROOT
