@<TRIPOS>MOLECULE
G73
   52    55     1     0     0
SMALL
bcc


@<TRIPOS>ATOM
      1 C01         7.5770    3.3360    0.3910 c3        1 G73      0.112700
      2 O02         6.6380    2.9440   -0.6030 os        1 G73     -0.324900
      3 C03         5.8870    1.8190   -0.3210 ca        1 G73      0.116100
      4 C04         4.9530    1.4660   -1.3130 ca        1 G73     -0.165500
      5 C05         4.1490    0.3500   -1.1380 ca        1 G73     -0.105500
      6 C06         6.0080    1.0530    0.8420 ca        1 G73     -0.165500
      7 C07         5.1920   -0.0620    1.0180 ca        1 G73     -0.105500
      8 C08         4.2580   -0.4350    0.0320 ca        1 G73      0.081600
      9 N09         3.5060   -1.6310    0.1720 nh        1 G73     -0.703300
     10 C10         2.0950   -1.6130    0.0870 ca        1 G73      0.703200
     11 N11         1.3900   -0.4820   -0.1470 nb        1 G73     -0.777000
     12 C12         0.0040   -0.5800   -0.2920 ca        1 G73      0.865900
     13 N13        -0.6380    0.6300   -0.6890 nh        1 G73     -0.688300
     14 C14        -2.0110    0.8200   -0.3590 ca        1 G73      0.115600
     15 C15        -2.3800    1.5180    0.8190 ca        1 G73     -0.059300
     16 C16        -1.3480    2.0150    1.7620 c3        1 G73     -0.059300
     17 C17        -3.7250    1.7500    1.0950 ca        1 G73     -0.112500
     18 C18        -4.7290    1.2920    0.2300 ca        1 G73     -0.070800
     19 C19        -6.1190    1.5460    0.5690 ce        1 G73     -0.042200
     20 C20        -7.1600    0.8520    0.0780 cf        1 G73     -0.071700
     21 C21        -8.5010    1.1370    0.4360 ch        1 G73      0.187500
     22 N22        -9.6100    1.3550    0.7180 n1        1 G73     -0.371800
     23 C23        -4.3600    0.6160   -0.9360 ca        1 G73     -0.112500
     24 C24        -3.0170    0.3790   -1.2490 ca        1 G73     -0.059300
     25 C25        -2.6920   -0.3270   -2.5110 c3        1 G73     -0.059300
     26 N26        -0.7680   -1.7120   -0.1500 nb        1 G73     -0.686000
     27 C27        -0.0580   -2.8450    0.0880 ca        1 G73      0.600300
     28 C28         1.3980   -2.8500    0.2060 ca        1 G73     -0.392800
     29 N29         1.7760   -4.1710    0.4710 na        1 G73     -0.260300
     30 C30         0.5830   -4.9140    0.4540 cc        1 G73      0.439700
     31 N31        -0.5250   -4.1780    0.2640 nd        1 G73     -0.632700
     32 H1          8.0480    4.2530   -0.0440 h1        1 G73      0.045033
     33 H2          7.0600    3.5750    1.3520 h1        1 G73      0.045033
     34 H3          8.3430    2.5370    0.5470 h1        1 G73      0.045033
     35 H4          4.8710    2.0820   -2.2200 ha        1 G73      0.146500
     36 H5          3.4210    0.0830   -1.9200 ha        1 G73      0.141500
     37 H6          6.7330    1.3180    1.6230 ha        1 G73      0.146500
     38 H7          5.2960   -0.6510    1.9430 ha        1 G73      0.141500
     39 H8          3.8220   -2.1990    0.9350 hn        1 G73      0.409800
     40 H9         -0.0860    1.4460   -0.4900 hn        1 G73      0.424800
     41 H10        -0.7270    2.8120    1.2810 hc        1 G73      0.051367
     42 H11        -1.8170    2.4490    2.6800 hc        1 G73      0.051367
     43 H12        -0.6700    1.1830    2.0810 hc        1 G73      0.051367
     44 H13        -4.0050    2.2930    2.0120 ha        1 G73      0.136000
     45 H14        -6.2850    2.3670    1.2920 ha        1 G73      0.136000
     46 H16        -7.0360    0.0120   -0.6290 ha        1 G73      0.156000
     47 H18        -5.1370    0.2660   -1.6340 ha        1 G73      0.136000
     48 H19        -2.3530   -1.3710   -2.2910 hc        1 G73      0.051367
     49 H20        -3.5860   -0.3830   -3.1800 hc        1 G73      0.051367
     50 H21        -1.8740    0.1980   -3.0630 hc        1 G73      0.051367
     51 H22         2.6880   -4.5290    0.3670 hn        1 G73      0.308700
     52 H23         0.5820   -6.0000    0.6220 h5        1 G73      0.074800
@<TRIPOS>BOND
     1    1    2 1   
     2    1   32 1   
     3    1   33 1   
     4    1   34 1   
     5    2    3 1   
     6    3    4 ar  
     7    3    6 ar  
     8    4    5 ar  
     9    4   35 1   
    10    5    8 ar  
    11    5   36 1   
    12    6    7 ar  
    13    6   37 1   
    14    7    8 ar  
    15    7   38 1   
    16    8    9 1   
    17    9   10 1   
    18    9   39 1   
    19   10   11 ar  
    20   10   28 ar  
    21   11   12 ar  
    22   12   13 1   
    23   12   26 ar  
    24   13   14 1   
    25   13   40 1   
    26   14   15 ar  
    27   14   24 ar  
    28   15   16 1   
    29   15   17 ar  
    30   16   41 1   
    31   16   42 1   
    32   16   43 1   
    33   17   18 ar  
    34   17   44 1   
    35   18   19 1   
    36   18   23 ar  
    37   19   20 2   
    38   19   45 1   
    39   20   21 1   
    40   20   46 1   
    41   21   22 3   
    42   23   24 ar  
    43   23   47 1   
    44   24   25 1   
    45   25   48 1   
    46   25   49 1   
    47   25   50 1   
    48   26   27 ar  
    49   27   28 ar  
    50   27   31 1   
    51   28   29 1   
    52   29   30 1   
    53   29   51 1   
    54   30   31 2   
    55   30   52 1   
@<TRIPOS>SUBSTRUCTURE
     1 G73         1 TEMP              0 ****  ****    0 ROOT
