@<TRIPOS>MOLECULE
G74
   52    52     1     0     0
SMALL
bcc


@<TRIPOS>ATOM
      1 O88         0.2970    0.7780    0.2790 o         1 G74     -0.528000
      2 C84         1.1450   -0.1040    0.1370 c         1 G74      0.631100
      3 O86         1.6740   -0.7220    1.2240 os        1 G74     -0.433900
      4 C3          1.2110   -0.2630    2.5160 c3        1 G74      0.140400
      5 C5          1.9550   -1.0840    3.5380 c3        1 G74     -0.104100
      6 C82         1.7200   -0.6160   -1.1540 c3        1 G74     -0.152400
      7 C63         0.7570   -0.3580   -2.2930 c3        1 G74     -0.117400
      8 C57         1.4350   -0.3910   -3.6620 c3        1 G74      0.121500
      9 C59         0.4850    0.1570   -4.7390 c3        1 G74     -0.091400
     10 C61         0.6010    1.6650   -4.8260 c3        1 G74     -0.149700
     11 C73        -0.4760    2.2900   -5.7240 c3        1 G74     -0.093400
     12 C71         0.2830    3.1930   -6.7230 c3        1 G74      0.084000
     13 N69         1.6950    2.9460   -6.5140 n         1 G74     -0.553900
     14 C65         1.9340    2.0930   -5.4660 c         1 G74      0.697500
     15 O66         3.0570    1.7000   -5.0910 o         1 G74     -0.679500
     16 N49         1.8940   -1.7960   -3.9900 n4        1 G74     -0.652800
     17 C39         2.9050   -1.8070   -5.1080 c         1 G74      0.644100
     18 O47         2.5390   -1.9110   -6.2700 o         1 G74     -0.442000
     19 O37         4.1370   -1.7300   -4.6060 os        1 G74     -0.415900
     20 C1          5.3040   -1.6500   -5.5430 c3        1 G74      0.204800
     21 C2          5.1270   -0.4660   -6.4650 c3        1 G74     -0.132100
     22 C4          6.4490   -1.4470   -4.5630 c3        1 G74     -0.132100
     23 C6          5.4120   -2.9650   -6.2840 c3        1 G74     -0.132100
     24 H821        1.9430   -1.7100   -1.0380 hc        1 G74      0.082200
     25 H822        2.6930   -0.0780   -1.3190 hc        1 G74      0.082200
     26 H31C        1.4370    0.8320    2.6040 h1        1 G74      0.061200
     27 H32C        0.1020   -0.4190    2.5690 h1        1 G74      0.061200
     28 H51C        3.0570   -0.9340    3.4410 hc        1 G74      0.056367
     29 H52C        1.7340   -2.1710    3.4090 hc        1 G74      0.056367
     30 H53C        1.6320   -0.7650    4.5590 hc        1 G74      0.056367
     31 H631       -0.1010   -1.0810   -2.2490 hc        1 G74      0.099200
     32 H632        0.3120    0.6730   -2.1680 hc        1 G74      0.099200
     33 H57         2.3820    0.2430   -3.6390 hx        1 G74      0.154700
     34 H591       -0.5730   -0.1200   -4.4840 hc        1 G74      0.081200
     35 H592        0.7220   -0.2840   -5.7460 hc        1 G74      0.081200
     36 H49         2.3210   -2.2030   -3.1490 hn        1 G74      0.464800
     37 H61         0.5560    2.1190   -3.7990 hc        1 G74      0.096700
     38 H731       -1.1960    2.8940   -5.1210 hc        1 G74      0.072700
     39 H732       -1.0530    1.5060   -6.2730 hc        1 G74      0.072700
     40 H711        0.0050    2.9430   -7.7830 h1        1 G74      0.066200
     41 H712        0.0450    4.2770   -6.5400 h1        1 G74      0.066200
     42 H69         2.3980    3.4210   -7.0210 hn        1 G74      0.351500
     43 H21C        6.0990   -0.2530   -6.9740 hc        1 G74      0.073589
     44 H22C        4.3560   -0.6810   -7.2450 hc        1 G74      0.073589
     45 H23C        4.8170    0.4420   -5.8880 hc        1 G74      0.073589
     46 H41C        7.4070   -1.4460   -5.1390 hc        1 G74      0.073589
     47 H42C        6.4760   -2.2710   -3.8120 hc        1 G74      0.073589
     48 H43C        6.3400   -0.4720   -4.0310 hc        1 G74      0.073589
     49 H61C        4.5240   -3.1230   -6.9440 hc        1 G74      0.073589
     50 H62C        6.3300   -2.9460   -6.9230 hc        1 G74      0.073589
     51 H63C        5.4930   -3.8170   -5.5680 hc        1 G74      0.073589
     52 H492        1.0890   -2.3630   -4.2790 hn        1 G74      0.464800
@<TRIPOS>BOND
     1    1    2 2   
     2    2    3 1   
     3    2    6 1   
     4    3    4 1   
     5    4    5 1   
     6    4   26 1   
     7    4   27 1   
     8    5   28 1   
     9    5   29 1   
    10    5   30 1   
    11    6    7 1   
    12    6   24 1   
    13    6   25 1   
    14    7    8 1   
    15    7   31 1   
    16    7   32 1   
    17    8    9 1   
    18    8   16 1   
    19    8   33 1   
    20    9   10 1   
    21    9   34 1   
    22    9   35 1   
    23   10   11 1   
    24   10   14 1   
    25   10   37 1   
    26   11   12 1   
    27   11   38 1   
    28   11   39 1   
    29   12   13 1   
    30   12   40 1   
    31   12   41 1   
    32   13   14 1   
    33   13   42 1   
    34   14   15 2   
    35   16   17 1   
    36   16   36 1   
    37   16   52 1   
    38   17   18 2   
    39   17   19 1   
    40   19   20 1   
    41   20   21 1   
    42   20   22 1   
    43   20   23 1   
    44   21   43 1   
    45   21   44 1   
    46   21   45 1   
    47   22   46 1   
    48   22   47 1   
    49   22   48 1   
    50   23   49 1   
    51   23   50 1   
    52   23   51 1   
@<TRIPOS>SUBSTRUCTURE
     1 G74         1 TEMP              0 ****  ****    0 ROOT
