@<TRIPOS>MOLECULE
G74
   52    52     1     0     0
SMALL
bcc


@<TRIPOS>ATOM
      1 O88         0.2400    0.7490    0.2560 o         1 G74     -0.528000
      2 C84         1.0940   -0.1290    0.1200 c         1 G74      0.631100
      3 O86         1.6130   -0.7500    1.2100 os        1 G74     -0.433900
      4 C3          1.1310   -0.3010    2.4990 c3        1 G74      0.140400
      5 C5          1.8670   -1.1240    3.5260 c3        1 G74     -0.104100
      6 C82         1.6880   -0.6300   -1.1670 c3        1 G74     -0.152400
      7 C63         0.7390   -0.3670   -2.3170 c3        1 G74     -0.117400
      8 C57         1.4360   -0.3890   -3.6760 c3        1 G74      0.121500
      9 C59         0.4990    0.1640   -4.7620 c3        1 G74     -0.091400
     10 C61         0.6120    1.6730   -4.8380 c3        1 G74     -0.149700
     11 C73        -0.4550    2.3000   -5.7460 c3        1 G74     -0.093400
     12 C71         0.3150    3.2120   -6.7280 c3        1 G74      0.084000
     13 N69         1.7240    2.9680   -6.5020 ns        1 G74     -0.553900
     14 C65         1.9520    2.1080   -5.4570 c         1 G74      0.697500
     15 O66         3.0710    1.7160   -5.0700 o         1 G74     -0.679500
     16 N49         1.9030   -1.7910   -4.0080 ny        1 G74     -0.652800
     17 C39         2.9290   -1.7910   -5.1120 c         1 G74      0.644100
     18 O47         2.5790   -1.8890   -6.2800 o         1 G74     -0.442000
     19 O37         4.1540   -1.7150   -4.5930 os        1 G74     -0.415900
     20 C1          5.3330   -1.6250   -5.5140 c3        1 G74      0.204800
     21 C2          5.1650   -0.4350   -6.4310 c3        1 G74     -0.132100
     22 C4          6.4650   -1.4260   -4.5180 c3        1 G74     -0.132100
     23 C6          5.4550   -2.9350   -6.2630 c3        1 G74     -0.132100
     24 H821        1.9130   -1.7230   -1.0550 hc        1 G74      0.082200
     25 H822        2.6620   -0.0880   -1.3150 hc        1 G74      0.082200
     26 H31C        0.0220   -0.4650    2.5370 h1        1 G74      0.061200
     27 H32C        1.3490    0.7940    2.5960 h1        1 G74      0.061200
     28 H51C        1.5290   -0.8130    4.5440 hc        1 G74      0.056367
     29 H52C        2.9690   -0.9670    3.4430 hc        1 G74      0.056367
     30 H53C        1.6540   -2.2110    3.3870 hc        1 G74      0.056367
     31 H631        0.2900    0.6610   -2.1910 hc        1 G74      0.099200
     32 H632       -0.1160   -1.0930   -2.2890 hc        1 G74      0.099200
     33 H57         2.3810    0.2480   -3.6370 hx        1 G74      0.154700
     34 H591       -0.5610   -0.1180   -4.5240 hc        1 G74      0.081200
     35 H592        0.7500   -0.2700   -5.7690 hc        1 G74      0.081200
     36 H49         2.3200   -2.2020   -3.1640 hn        1 G74      0.464800
     37 H61         0.5510    2.1190   -3.8080 hc        1 G74      0.096700
     38 H731       -1.0220    1.5190   -6.3080 hc        1 G74      0.072700
     39 H732       -1.1850    2.8990   -5.1480 hc        1 G74      0.072700
     40 H711        0.0520    2.9690   -7.7940 h1        1 G74      0.066200
     41 H712        0.0710    4.2950   -6.5420 h1        1 G74      0.066200
     42 H69         2.4330    3.4480   -6.9970 hn        1 G74      0.351500
     43 H21C        6.1440   -0.2160   -6.9250 hc        1 G74      0.073589
     44 H22C        4.8450    0.4680   -5.8520 hc        1 G74      0.073589
     45 H23C        4.4050   -0.6470   -7.2220 hc        1 G74      0.073589
     46 H41C        6.3460   -0.4550   -3.9800 hc        1 G74      0.073589
     47 H42C        6.4840   -2.2550   -3.7710 hc        1 G74      0.073589
     48 H43C        7.4300   -1.4180   -5.0800 hc        1 G74      0.073589
     49 H61C        4.5770   -3.0910   -6.9360 hc        1 G74      0.073589
     50 H62C        6.3810   -2.9090   -6.8890 hc        1 G74      0.073589
     51 H63C        5.5290   -3.7920   -5.5510 hc        1 G74      0.073589
     52 H492        1.1040   -2.3580   -4.3110 hn        1 G74      0.464800
@<TRIPOS>BOND
     1    1    2 2   
     2    2    3 1   
     3    2    6 1   
     4    3    4 1   
     5    4    5 1   
     6    4   26 1   
     7    4   27 1   
     8    5   28 1   
     9    5   29 1   
    10    5   30 1   
    11    6    7 1   
    12    6   24 1   
    13    6   25 1   
    14    7    8 1   
    15    7   31 1   
    16    7   32 1   
    17    8    9 1   
    18    8   16 1   
    19    8   33 1   
    20    9   10 1   
    21    9   34 1   
    22    9   35 1   
    23   10   11 1   
    24   10   14 1   
    25   10   37 1   
    26   11   12 1   
    27   11   38 1   
    28   11   39 1   
    29   12   13 1   
    30   12   40 1   
    31   12   41 1   
    32   13   14 1   
    33   13   42 1   
    34   14   15 2   
    35   16   17 1   
    36   16   36 1   
    37   16   52 1   
    38   17   18 2   
    39   17   19 1   
    40   19   20 1   
    41   20   21 1   
    42   20   22 1   
    43   20   23 1   
    44   21   43 1   
    45   21   44 1   
    46   21   45 1   
    47   22   46 1   
    48   22   47 1   
    49   22   48 1   
    50   23   49 1   
    51   23   50 1   
    52   23   51 1   
@<TRIPOS>SUBSTRUCTURE
     1 G74         1 TEMP              0 ****  ****    0 ROOT
