@<TRIPOS>MOLECULE
G74
   51    51     1     0     0
SMALL
bcc


@<TRIPOS>ATOM
      1 O88         4.3680   -0.0780   -1.1320 o         1 G74     -0.552000
      2 C84         3.7890    0.6380   -0.3100 c         1 G74      0.631100
      3 O86         4.5290    1.5490    0.3910 os        1 G74     -0.442900
      4 C3          5.9410    1.5800    0.1140 c3        1 G74      0.139400
      5 C5          6.5240    2.6410    1.0150 c3        1 G74     -0.100100
      6 C82         2.3380    0.6720    0.0590 c3        1 G74     -0.127400
      7 C63         1.5520   -0.3230   -0.7660 c3        1 G74     -0.077400
      8 C57         0.0870   -0.4050   -0.3120 c3        1 G74      0.086700
      9 C59        -0.6170   -1.5830   -1.0130 c3        1 G74     -0.096400
     10 C61        -0.1150   -2.9470   -0.5890 c3        1 G74     -0.135700
     11 C73        -0.9090   -4.0660   -1.2840 c3        1 G74     -0.094400
     12 C71        -1.5720   -4.8860   -0.1550 c3        1 G74      0.092000
     13 N69        -1.1050   -4.3280    1.0900 n         1 G74     -0.583900
     14 C65        -0.2960   -3.2180    0.9120 c         1 G74      0.702500
     15 O66         0.2320   -2.5910    1.8430 o         1 G74     -0.630500
     16 N49        -0.5890    0.8640   -0.5350 n         1 G74     -0.523900
     17 C39        -1.8510    1.0630    0.0090 c         1 G74      0.734100
     18 O47        -2.3810    0.4420    0.9430 o         1 G74     -0.581000
     19 O37        -2.4970    2.1160   -0.5990 os        1 G74     -0.455900
     20 C1         -3.6810    2.6780    0.0250 c3        1 G74      0.186800
     21 C2         -3.3820    3.1380    1.4410 c3        1 G74     -0.113767
     22 C4         -3.9950    3.8770   -0.8690 c3        1 G74     -0.113767
     23 C6         -4.8260    1.6790   -0.0100 c3        1 G74     -0.113767
     24 H821        2.2440    0.4350    1.1540 hc        1 G74      0.091200
     25 H822        1.9600    1.7180   -0.0920 hc        1 G74      0.091200
     26 H31C        6.3710    0.5660    0.3250 h1        1 G74      0.050700
     27 H32C        6.0890    1.8210   -0.9710 h1        1 G74      0.050700
     28 H51C        6.0630    3.6340    0.8020 hc        1 G74      0.047700
     29 H52C        6.3390    2.3900    2.0870 hc        1 G74      0.047700
     30 H53C        7.6250    2.7030    0.8380 hc        1 G74      0.047700
     31 H631        1.6180   -0.0570   -1.8530 hc        1 G74      0.062200
     32 H632        2.0150   -1.3380   -0.6440 hc        1 G74      0.062200
     33 H57         0.0580   -0.5980    0.8060 h1        1 G74      0.117700
     34 H591       -1.7180   -1.5210   -0.7910 hc        1 G74      0.055200
     35 H592       -0.4830   -1.4910   -2.1230 hc        1 G74      0.055200
     36 H49        -0.4140    1.3100   -1.4090 hn        1 G74      0.306500
     37 H61         0.9790   -3.0500   -0.8210 hc        1 G74      0.085700
     38 H731       -1.6880   -3.6510   -1.9680 hc        1 G74      0.058200
     39 H732       -0.2280   -4.7150   -1.8860 hc        1 G74      0.058200
     40 H711       -2.6930   -4.8240   -0.2240 h1        1 G74      0.042700
     41 H712       -1.2790   -5.9700   -0.2250 h1        1 G74      0.042700
     42 H69        -1.4400   -4.6330    1.9660 hn        1 G74      0.334500
     43 H21C       -2.4810    3.7960    1.4490 hc        1 G74      0.051478
     44 H22C       -4.2540    3.7120    1.8360 hc        1 G74      0.051478
     45 H23C       -3.1950    2.2600    2.1060 hc        1 G74      0.051478
     46 H41C       -4.1740    3.5400   -1.9170 hc        1 G74      0.051478
     47 H42C       -4.9090    4.3880   -0.4840 hc        1 G74      0.051478
     48 H43C       -3.1410    4.5950   -0.8650 hc        1 G74      0.051478
     49 H61C       -4.6190    0.8250    0.6790 hc        1 G74      0.051478
     50 H62C       -5.7680    2.1840    0.3100 hc        1 G74      0.051478
     51 H63C       -4.9580    1.2840   -1.0450 hc        1 G74      0.051478
@<TRIPOS>BOND
     1    1    2 2   
     2    2    3 1   
     3    2    6 1   
     4    3    4 1   
     5    4    5 1   
     6    4   26 1   
     7    4   27 1   
     8    5   28 1   
     9    5   29 1   
    10    5   30 1   
    11    6    7 1   
    12    6   24 1   
    13    6   25 1   
    14    7    8 1   
    15    7   31 1   
    16    7   32 1   
    17    8    9 1   
    18    8   16 1   
    19    8   33 1   
    20    9   10 1   
    21    9   34 1   
    22    9   35 1   
    23   10   11 1   
    24   10   14 1   
    25   10   37 1   
    26   11   12 1   
    27   11   38 1   
    28   11   39 1   
    29   12   13 1   
    30   12   40 1   
    31   12   41 1   
    32   13   14 1   
    33   13   42 1   
    34   14   15 2   
    35   16   17 1   
    36   16   36 1   
    37   17   18 2   
    38   17   19 1   
    39   19   20 1   
    40   20   21 1   
    41   20   22 1   
    42   20   23 1   
    43   21   43 1   
    44   21   44 1   
    45   21   45 1   
    46   22   46 1   
    47   22   47 1   
    48   22   48 1   
    49   23   49 1   
    50   23   50 1   
    51   23   51 1   
@<TRIPOS>SUBSTRUCTURE
     1 G74         1 TEMP              0 ****  ****    0 ROOT
