@<TRIPOS>MOLECULE
G75
   74    76     1     0     0
SMALL
bcc


@<TRIPOS>ATOM
      1 O88         2.0620   -2.1550   -1.6380 o         1 G75     -0.662000
      2 C84         1.0920   -1.6000   -1.0830 c         1 G75      0.659100
      3 O86         0.5070   -2.2000   -0.0350 os        1 G75     -0.388900
      4 C3          1.0420   -3.4780    0.4020 c3        1 G75      0.144400
      5 C5          0.1790   -3.9010    1.5640 c3        1 G75     -0.111100
      6 C82         0.4830   -0.2710   -1.4240 c3        1 G75     -0.160400
      7 C63         0.4640    0.0520   -2.9010 c3        1 G75     -0.102400
      8 C57         1.7900    0.6150   -3.4410 c3        1 G75      0.134500
      9 C59         1.5260    1.5150   -4.6570 c3        1 G75     -0.096400
     10 C61         2.7150    2.3560   -5.0740 c3        1 G75     -0.155700
     11 C65         3.6690    1.6440   -6.0470 c         1 G75      0.720500
     12 O66         4.2310    0.5360   -5.8180 o         1 G75     -0.830500
     13 N69         3.8450    2.3810   -7.1750 n         1 G75     -0.507900
     14 C71         3.0880    3.6230   -7.1550 c3        1 G75      0.070000
     15 C73         2.2850    3.6240   -5.8360 c3        1 G75     -0.096400
     16 N49         2.7460   -0.5050   -3.7810 n4        1 G75     -0.674800
     17 C39         4.1510   -0.2970   -3.3340 c         1 G75      0.553100
     18 O47         4.5070    0.7840   -2.8940 o         1 G75     -0.392100
     19 C37         5.0680   -1.5300   -3.4260 c3        1 G75      0.069500
     20 C41         6.1660   -1.3950   -2.3460 c3        1 G75     -0.042100
     21 C51         7.1420   -2.5100   -2.4370 ca        1 G75     -0.183300
     22 C55         8.3860   -2.3040   -3.0500 ca        1 G75     -0.128000
     23 C11         9.3260   -3.3330   -3.0860 ca        1 G75     -0.109500
     24 C9          9.0310   -4.5700   -2.5090 ca        1 G75     -0.083000
     25 C7          7.7960   -4.7770   -1.8940 ca        1 G75     -0.109500
     26 C53         6.8530   -3.7500   -1.8550 ca        1 G75     -0.128000
     27 N33         5.6630   -1.6710   -4.7960 n4        1 G75     -0.649800
     28 C31         4.8010   -2.4830   -5.7200 c         1 G75      0.648100
     29 O35         3.5790   -2.5220   -5.5890 o         1 G75     -0.510000
     30 O1          5.5360   -3.1110   -6.6300 os        1 G75     -0.389900
     31 C1          4.7960   -3.9430   -7.6300 c3        1 G75      0.230700
     32 C2          5.8560   -4.6530   -8.3730 ca        1 G75     -0.168300
     33 C4          6.2480   -5.9400   -7.9770 ca        1 G75     -0.083000
     34 C6          7.2050   -6.6330   -8.7150 ca        1 G75     -0.128000
     35 C8          7.7800   -6.0440   -9.8430 ca        1 G75     -0.068000
     36 C12         7.3970   -4.7590  -10.2350 ca        1 G75     -0.128000
     37 C10         6.4400   -4.0620   -9.5020 ca        1 G75     -0.083000
     38 H821        1.0400    0.5140   -0.8410 hc        1 G75      0.116200
     39 H822       -0.5790   -0.2650   -1.0410 hc        1 G75      0.116200
     40 H31C        2.1120   -3.3240    0.6960 h1        1 G75      0.057700
     41 H32C        0.9840   -4.1930   -0.4580 h1        1 G75      0.057700
     42 H51C        0.5500   -4.8840    1.9440 hc        1 G75      0.069033
     43 H52C       -0.8860   -4.0100    1.2480 hc        1 G75      0.069033
     44 H53C        0.2280   -3.1500    2.3890 hc        1 G75      0.069033
     45 H631       -0.3210    0.8460   -3.0580 hc        1 G75      0.097200
     46 H632        0.1330   -0.8430   -3.4930 hc        1 G75      0.097200
     47 H57         2.2760    1.2400   -2.6290 hx        1 G75      0.121700
     48 H591        0.6960    2.2180   -4.3580 hc        1 G75      0.095700
     49 H592        1.1460    0.9110   -5.5230 hc        1 G75      0.095700
     50 H49         2.3980   -1.3950   -3.3640 hn        1 G75      0.497800
     51 H61         3.3210    2.6410   -4.1670 hc        1 G75      0.104700
     52 H731        1.1890    3.6200   -6.0550 hc        1 G75      0.087200
     53 H732        2.5160    4.5400   -5.2390 hc        1 G75      0.087200
     54 H69         4.4470    2.1420   -7.9250 hn        1 G75      0.358500
     55 H711        3.7930    4.5000   -7.2010 h1        1 G75      0.087200
     56 H712        2.4060    3.6660   -8.0480 h1        1 G75      0.087200
     57 H37         4.4710   -2.4720   -3.2030 hx        1 G75      0.153700
     58 H411        6.6790   -0.3990   -2.4430 hc        1 G75      0.106200
     59 H412        5.6440   -1.4100   -1.3490 hc        1 G75      0.106200
     60 H33         6.5910   -2.1350   -4.7060 hn        1 G75      0.505300
     61 H55         8.6480   -1.3160   -3.4600 ha        1 G75      0.137500
     62 H53         5.8910   -3.9100   -1.3450 ha        1 G75      0.137500
     63 H11        10.3100   -3.1630   -3.5540 ha        1 G75      0.164000
     64 H9          9.7820   -5.3790   -2.5260 ha        1 G75      0.168000
     65 H7          7.5700   -5.7470   -1.4230 ha        1 G75      0.164000
     66 H11C        4.1180   -4.6210   -7.0520 h1        1 G75      0.085200
     67 H12C        4.2140   -3.2200   -8.2570 h1        1 G75      0.085200
     68 H4          5.7900   -6.4110   -7.0930 ha        1 G75      0.136000
     69 H10         6.1340   -3.0530   -9.8170 ha        1 G75      0.136000
     70 H6          7.5030   -7.6490   -8.4120 ha        1 G75      0.159000
     71 H8          8.5330   -6.5970  -10.4290 ha        1 G75      0.162000
     72 H12         7.8480   -4.2990  -11.1280 ha        1 G75      0.159000
     73 H492        2.7750   -0.6240   -4.8130 hn        1 G75      0.497800
     74 H332        5.8030   -0.7400   -5.2320 hn        1 G75      0.505300
@<TRIPOS>BOND
     1    1    2 2   
     2    2    3 1   
     3    2    6 1   
     4    3    4 1   
     5    4    5 1   
     6    4   40 1   
     7    4   41 1   
     8    5   42 1   
     9    5   43 1   
    10    5   44 1   
    11    6    7 1   
    12    6   38 1   
    13    6   39 1   
    14    7    8 1   
    15    7   45 1   
    16    7   46 1   
    17    8    9 1   
    18    8   16 1   
    19    8   47 1   
    20    9   10 1   
    21    9   48 1   
    22    9   49 1   
    23   10   11 1   
    24   10   15 1   
    25   10   51 1   
    26   11   12 2   
    27   11   13 1   
    28   13   14 1   
    29   13   54 1   
    30   14   15 1   
    31   14   55 1   
    32   14   56 1   
    33   15   52 1   
    34   15   53 1   
    35   16   17 1   
    36   16   50 1   
    37   16   73 1   
    38   17   18 2   
    39   17   19 1   
    40   19   20 1   
    41   19   27 1   
    42   19   57 1   
    43   20   21 1   
    44   20   58 1   
    45   20   59 1   
    46   21   22 ar  
    47   21   26 ar  
    48   22   23 ar  
    49   22   61 1   
    50   23   24 ar  
    51   23   63 1   
    52   24   25 ar  
    53   24   64 1   
    54   25   26 ar  
    55   25   65 1   
    56   26   62 1   
    57   27   28 1   
    58   27   60 1   
    59   27   74 1   
    60   28   29 2   
    61   28   30 1   
    62   30   31 1   
    63   31   32 1   
    64   31   66 1   
    65   31   67 1   
    66   32   33 ar  
    67   32   37 ar  
    68   33   34 ar  
    69   33   68 1   
    70   34   35 ar  
    71   34   70 1   
    72   35   36 ar  
    73   35   71 1   
    74   36   37 ar  
    75   36   72 1   
    76   37   69 1   
@<TRIPOS>SUBSTRUCTURE
     1 G75         1 TEMP              0 ****  ****    0 ROOT
