@<TRIPOS>MOLECULE
G75
   72    69     1     0     0
SMALL
bcc


@<TRIPOS>ATOM
      1 O88        -3.4990    1.6090    4.6020 o         1 G75     -0.363000
      2 C84        -2.9400    2.4920    3.9840 c1        1 G75      0.302000
      3 O86        -3.4490    3.7840    4.0110 o         1 G75     -0.281000
      4 C3         -4.7740    3.8520    4.4090 c3        1 G75     -0.012000
      5 C5         -5.2300    5.2720    4.3860 c3        1 G75     -0.218000
      6 C82        -1.5530    2.2040    3.2750 c3        1 G75     -0.158000
      7 C63        -1.6970    0.9730    2.3030 c3        1 G75     -0.176000
      8 C57        -0.5610    1.0120    1.2440 c3        1 G75      0.032000
      9 C59        -1.1640    1.0000   -0.1390 c3        1 G75     -0.166000
     10 C61        -1.7710    2.3390   -0.4360 c3        1 G75     -0.125000
     11 C65        -0.9060    3.0670   -1.5170 c2        1 G75      0.307000
     12 O66         0.0430    3.8600   -1.2930 o         1 G75     -0.365000
     13 N69        -1.5370    2.8420   -2.7820 n         1 G75     -0.395000
     14 C71        -2.8570    2.3500   -2.5380 c3        1 G75     -0.025000
     15 C73        -3.0240    2.1550   -1.0770 c3        1 G75     -0.175000
     16 N49         0.2700   -0.1160    1.4060 n         1 G75     -0.373000
     17 C39         1.6190   -0.1070    0.8700 c2        1 G75      0.293000
     18 O47         2.1220    0.9240    0.5480 o         1 G75     -0.381000
     19 C37         2.4290   -1.3920    0.8190 c3        1 G75      0.020000
     20 C41         3.7430   -1.1990    1.6130 c3        1 G75     -0.131000
     21 C51         4.2610   -2.5760    2.1130 c2        1 G75     -0.090000
     22 C55         5.4390   -3.1300    1.5670 c2        1 G75     -0.131000
     23 C11         5.9620   -4.3040    2.0920 c1        1 G75     -0.125000
     24 C9          5.3360   -4.9210    3.1370 c1        1 G75     -0.124500
     25 C7          4.1710   -4.3730    3.6780 c1        1 G75     -0.124500
     26 C53         3.6440   -3.1940    3.1520 c1        1 G75     -0.123000
     27 N33         2.7240   -1.6980   -0.4990 n         1 G75     -0.336000
     28 C31         1.7620   -2.3580   -1.3040 c2        1 G75      0.396000
     29 O35         0.9270   -3.0830   -0.7860 o         1 G75     -0.425000
     30 O1          1.7460   -2.1440   -2.7130 os        1 G75     -0.268000
     31 C1          0.7240   -2.8670   -3.4010 c3        1 G75      0.035000
     32 C2          0.4050   -2.1620   -4.7220 c2        1 G75     -0.119000
     33 C4          0.6910   -2.7910   -5.9350 c2        1 G75     -0.116000
     34 C6          0.3520   -2.1760   -7.1360 c1        1 G75     -0.136000
     35 C8         -0.2700   -0.9370   -7.1300 c1        1 G75     -0.124500
     36 C12        -0.5560   -0.3070   -5.9160 c1        1 G75     -0.124500
     37 C10        -0.2160   -0.9240   -4.7130 c1        1 G75     -0.114000
     38 H821       -1.2830    2.9830    2.7700 hc        1 G75      0.130000
     39 H822       -0.8370    1.9930    3.9930 hc        1 G75      0.130000
     40 H31C       -5.3200    3.3280    3.8030 h1        1 G75      0.089000
     41 H32C       -4.8590    3.4990    5.3110 h1        1 G75      0.089000
     42 H51C       -4.7120    5.7860    5.0120 hc        1 G75      0.087000
     43 H52C       -5.1150    5.6240    3.5210 hc        1 G75      0.087000
     44 H53C       -6.1880    5.3160    4.6350 hc        1 G75      0.087000
     45 H631       -2.6020    1.0130    1.8320 hc        1 G75      0.100000
     46 H632       -1.6310    0.1160    2.8350 hc        1 G75      0.100000
     47 H57        -0.0300    1.8280    1.3630 h1        1 G75      0.119000
     48 H591       -1.8590    0.3090   -0.1840 hc        1 G75      0.106500
     49 H592       -0.4720    0.8060   -0.7930 hc        1 G75      0.106500
     50 H49        -0.0460   -0.8620    1.8480 hn        1 G75      0.257000
     51 H61        -1.7870    2.7300    0.4430 hc        1 G75      0.128000
     52 H731       -3.6730    2.8150   -0.7270 hc        1 G75      0.100500
     53 H732       -3.3490    1.2570   -0.9040 hc        1 G75      0.100500
     54 H69        -1.2040    3.1090   -3.6290 hn        1 G75      0.248000
     55 H711       -2.9880    1.4680   -3.0170 h1        1 G75      0.083500
     56 H712       -3.5310    3.0170   -2.8670 h1        1 G75      0.083500
     57 H37         1.9180   -2.1120    1.2090 h1        1 G75      0.118000
     58 H411        4.4250   -0.7820    1.0260 hc        1 G75      0.120000
     59 H412        3.5770   -0.6260    2.3710 hc        1 G75      0.120000
     60 H33         3.5350   -1.4570   -0.8560 hn        1 G75      0.251000
     61 H55         5.8890   -2.6860    0.8160 ha        1 G75      0.133000
     62 H53         2.8370   -2.8160    3.5290 ha        1 G75      0.133000
     63 H11         6.7820   -4.6920    1.7130 ha        1 G75      0.135000
     64 H9          5.6970   -5.7310    3.5000 ha        1 G75      0.141750
     65 H7          3.7480   -4.7950    4.3890 ha        1 G75      0.141750
     66 H11C       -0.0970   -2.9030   -2.8360 h1        1 G75      0.116000
     67 H12C        1.0420   -3.7990   -3.5880 h1        1 G75      0.116000
     68 H4          1.1330   -3.6740   -5.9400 ha        1 G75      0.128000
     69 H10        -0.4170   -0.4760   -3.8500 ha        1 G75      0.140000
     70 H6          0.5570   -2.6250   -7.9990 ha        1 G75      0.130000
     71 H8         -0.5120   -0.4970   -7.9880 ha        1 G75      0.141750
     72 H12        -0.9940    0.5640   -5.9110 ha        1 G75      0.141750
@<TRIPOS>BOND
     1    1    2 1   
     2    2    6 1   
     3    3    4 1   
     4    4    5 1   
     5    4   40 1   
     6    4   41 1   
     7    5   42 1   
     8    5   43 1   
     9    5   44 1   
    10    6    7 1   
    11    6   38 1   
    12    6   39 1   
    13    7    8 1   
    14    7   45 1   
    15    7   46 1   
    16    8    9 1   
    17    8   16 1   
    18    8   47 1   
    19    9   10 1   
    20    9   48 1   
    21    9   49 1   
    22   10   11 1   
    23   10   15 1   
    24   10   51 1   
    25   11   12 1   
    26   11   13 1   
    27   13   14 1   
    28   13   54 1   
    29   14   15 1   
    30   14   55 1   
    31   14   56 1   
    32   15   52 1   
    33   15   53 1   
    34   16   17 1   
    35   16   50 1   
    36   17   18 1   
    37   17   19 1   
    38   19   20 1   
    39   19   27 1   
    40   19   57 1   
    41   20   21 1   
    42   20   58 1   
    43   20   59 1   
    44   21   22 1   
    45   21   26 1   
    46   22   23 1   
    47   22   61 1   
    48   23   63 1   
    49   24   25 1   
    50   24   64 1   
    51   25   65 1   
    52   26   62 1   
    53   27   28 1   
    54   27   60 1   
    55   28   29 1   
    56   28   30 1   
    57   30   31 1   
    58   31   32 1   
    59   31   66 1   
    60   31   67 1   
    61   32   33 1   
    62   32   37 1   
    63   33   34 1   
    64   33   68 1   
    65   34   70 1   
    66   35   36 1   
    67   35   71 1   
    68   36   72 1   
    69   37   69 1   
@<TRIPOS>SUBSTRUCTURE
     1 G75         1 TEMP              0 ****  ****    0 ROOT
