@<TRIPOS>MOLECULE
G75
   74    76     1     0     0
SMALL
bcc


@<TRIPOS>ATOM
      1 O88         2.0280   -2.1380   -1.6700 o         1 G75     -0.662000
      2 C84         1.0430   -1.5870   -1.1370 c         1 G75      0.659100
      3 O86         0.4500   -2.1800   -0.0890 os        1 G75     -0.388900
      4 C3          0.9950   -3.4450    0.3740 c3        1 G75      0.144400
      5 C5          0.1200   -3.8610    1.5290 c3        1 G75     -0.111100
      6 C82         0.4230   -0.2710   -1.5060 c3        1 G75     -0.160400
      7 C63         0.4220    0.0310   -2.9890 c3        1 G75     -0.102400
      8 C57         1.7480    0.6020   -3.5170 c3        1 G75      0.134500
      9 C59         1.4910    1.4820   -4.7500 c3        1 G75     -0.096400
     10 C61         2.6760    2.3320   -5.1610 c3        1 G75     -0.155700
     11 C65         3.6530    1.6180   -6.1090 c         1 G75      0.720500
     12 O66         4.2260    0.5210   -5.8560 o         1 G75     -0.830500
     13 N69         3.8370    2.3410   -7.2450 ns        1 G75     -0.507900
     14 C71         3.0640    3.5730   -7.2550 c3        1 G75      0.070000
     15 C73         2.2410    3.5830   -5.9480 c3        1 G75     -0.096400
     16 N49         2.7230   -0.5100   -3.8260 ny        1 G75     -0.674800
     17 C39         4.1180   -0.2780   -3.3610 c         1 G75      0.553100
     18 O47         4.4550    0.8150   -2.9320 o         1 G75     -0.392100
     19 C37         5.0530   -1.4990   -3.4210 c3        1 G75      0.069500
     20 C41         6.1330   -1.3340   -2.3280 c3        1 G75     -0.042100
     21 C51         7.1250   -2.4370   -2.3880 ca        1 G75     -0.183300
     22 C55         8.3750   -2.2250   -2.9860 ca        1 G75     -0.128000
     23 C11         9.3280   -3.2420   -2.9930 ca        1 G75     -0.109500
     24 C9          9.0410   -4.4740   -2.4020 ca        1 G75     -0.083000
     25 C7          7.7980   -4.6880   -1.8010 ca        1 G75     -0.109500
     26 C53         6.8430   -3.6730   -1.7920 ca        1 G75     -0.128000
     27 N33         5.6700   -1.6530   -4.7800 ny        1 G75     -0.649800
     28 C31         4.8320   -2.4910   -5.7040 c         1 G75      0.648100
     29 O35         3.6090   -2.5420   -5.5910 o         1 G75     -0.510000
     30 O1          5.5880   -3.1250   -6.5910 os        1 G75     -0.389900
     31 C1          4.8740   -3.9810   -7.5910 c3        1 G75      0.230700
     32 C2          5.9530   -4.7070   -8.2890 ca        1 G75     -0.168300
     33 C4          6.3330   -5.9850   -7.8570 ca        1 G75     -0.083000
     34 C6          7.3090   -6.6930   -8.5550 ca        1 G75     -0.128000
     35 C8          7.9150   -6.1280   -9.6790 ca        1 G75     -0.068000
     36 C12         7.5440   -4.8510  -10.1070 ca        1 G75     -0.128000
     37 C10         6.5680   -4.1390   -9.4140 ca        1 G75     -0.083000
     38 H821       -0.6450   -0.2740   -1.1390 hc        1 G75      0.116200
     39 H822        0.9610    0.5290   -0.9270 hc        1 G75      0.116200
     40 H31C        2.0580   -3.2720    0.6820 h1        1 G75      0.057700
     41 H32C        0.9590   -4.1720   -0.4760 h1        1 G75      0.057700
     42 H51C        0.1470   -3.0980    2.3430 hc        1 G75      0.069033
     43 H52C        0.4970   -4.8350    1.9290 hc        1 G75      0.069033
     44 H53C       -0.9390   -3.9890    1.1990 hc        1 G75      0.069033
     45 H631       -0.3700    0.8120   -3.1690 hc        1 G75      0.096700
     46 H632        0.1110   -0.8770   -3.5720 hc        1 G75      0.096700
     47 H57         2.2140    1.2450   -2.7070 hx        1 G75      0.121700
     48 H591        1.1310    0.8600   -5.6120 hc        1 G75      0.095700
     49 H592        0.6480    2.1780   -4.4730 hc        1 G75      0.095700
     50 H49         2.3800   -1.3980   -3.4010 hn        1 G75      0.497800
     51 H61         3.2640    2.6370   -4.2500 hc        1 G75      0.104700
     52 H731        2.4520    4.5100   -5.3610 hc        1 G75      0.087200
     53 H732        1.1490    3.5620   -6.1830 hc        1 G75      0.087200
     54 H69         4.4520    2.0980   -7.9830 hn        1 G75      0.358500
     55 H711        3.7580    4.4580   -7.3030 h1        1 G75      0.087200
     56 H712        2.3940    3.5940   -8.1580 h1        1 G75      0.087200
     57 H37         4.4650   -2.4460   -3.1930 hx        1 G75      0.153700
     58 H411        6.6340   -0.3330   -2.4320 hc        1 G75      0.106200
     59 H412        5.5970   -1.3410   -1.3380 hc        1 G75      0.106200
     60 H33         6.6020   -2.1030   -4.6700 hn        1 G75      0.505300
     61 H55         8.6300   -1.2400   -3.4060 ha        1 G75      0.137500
     62 H53         5.8750   -3.8370   -1.2930 ha        1 G75      0.137500
     63 H11        10.3160   -3.0670   -3.4490 ha        1 G75      0.164000
     64 H9          9.8010   -5.2730   -2.3960 ha        1 G75      0.168000
     65 H7          7.5780   -5.6540   -1.3190 ha        1 G75      0.164000
     66 H11C        4.3090   -3.2720   -8.2480 h1        1 G75      0.085200
     67 H12C        4.1820   -4.6470   -7.0150 h1        1 G75      0.085200
     68 H4          5.8510   -6.4380   -6.9770 ha        1 G75      0.136000
     69 H10         6.2720   -3.1360   -9.7580 ha        1 G75      0.136000
     70 H6          7.5980   -7.7040   -8.2230 ha        1 G75      0.159000
     71 H8          8.6830   -6.6920  -10.2320 ha        1 G75      0.162000
     72 H12         8.0200   -4.4090  -10.9970 ha        1 G75      0.159000
     73 H492        2.7700   -0.6430   -4.8560 hn        1 G75      0.497800
     74 H332        5.8030   -0.7280   -5.2280 hn        1 G75      0.505300
@<TRIPOS>BOND
     1    1    2 2   
     2    2    3 1   
     3    2    6 1   
     4    3    4 1   
     5    4    5 1   
     6    4   40 1   
     7    4   41 1   
     8    5   42 1   
     9    5   43 1   
    10    5   44 1   
    11    6    7 1   
    12    6   38 1   
    13    6   39 1   
    14    7    8 1   
    15    7   45 1   
    16    7   46 1   
    17    8    9 1   
    18    8   16 1   
    19    8   47 1   
    20    9   10 1   
    21    9   48 1   
    22    9   49 1   
    23   10   11 1   
    24   10   15 1   
    25   10   51 1   
    26   11   12 2   
    27   11   13 1   
    28   13   14 1   
    29   13   54 1   
    30   14   15 1   
    31   14   55 1   
    32   14   56 1   
    33   15   52 1   
    34   15   53 1   
    35   16   17 1   
    36   16   50 1   
    37   16   73 1   
    38   17   18 2   
    39   17   19 1   
    40   19   20 1   
    41   19   27 1   
    42   19   57 1   
    43   20   21 1   
    44   20   58 1   
    45   20   59 1   
    46   21   22 ar  
    47   21   26 ar  
    48   22   23 ar  
    49   22   61 1   
    50   23   24 ar  
    51   23   63 1   
    52   24   25 ar  
    53   24   64 1   
    54   25   26 ar  
    55   25   65 1   
    56   26   62 1   
    57   27   28 1   
    58   27   60 1   
    59   27   74 1   
    60   28   29 2   
    61   28   30 1   
    62   30   31 1   
    63   31   32 1   
    64   31   66 1   
    65   31   67 1   
    66   32   33 ar  
    67   32   37 ar  
    68   33   34 ar  
    69   33   68 1   
    70   34   35 ar  
    71   34   70 1   
    72   35   36 ar  
    73   35   71 1   
    74   36   37 ar  
    75   36   72 1   
    76   37   69 1   
@<TRIPOS>SUBSTRUCTURE
     1 G75         1 TEMP              0 ****  ****    0 ROOT
