@<TRIPOS>MOLECULE
G75
   74    76     1     0     0
SMALL
bcc


@<TRIPOS>ATOM
      1 O88         2.0820   -2.1710   -1.6300 o         1 G75     -0.662000
      2 C84         1.0870   -1.6440   -1.0920 c         1 G75      0.659100
      3 O86         0.5280   -2.2400   -0.0270 os        1 G75     -0.388900
      4 C3          1.1200   -3.4780    0.4480 c3        1 G75      0.144400
      5 C5          0.2760   -3.9060    1.6210 c3        1 G75     -0.111100
      6 C82         0.4190   -0.3550   -1.4720 c3        1 G75     -0.160400
      7 C63         0.3870   -0.0770   -2.9590 c3        1 G75     -0.102400
      8 C57         1.6860    0.5290   -3.5150 c3        1 G75      0.134500
      9 C59         1.3830    1.3800   -4.7580 c3        1 G75     -0.096400
     10 C61         2.5330    2.2610   -5.1990 c3        1 G75     -0.155700
     11 C65         3.5200    1.5650   -6.1510 c         1 G75      0.720500
     12 O66         4.1320    0.4910   -5.8880 o         1 G75     -0.830500
     13 N69         3.6630    2.2750   -7.3000 n         1 G75     -0.507900
     14 C71         2.8500    3.4810   -7.3180 c3        1 G75      0.070000
     15 C73         2.0460    3.4840   -5.9990 c3        1 G75     -0.096400
     16 N49         2.6930   -0.5550   -3.8210 n4        1 G75     -0.674800
     17 C39         4.0860   -0.2700   -3.3810 c         1 G75      0.553100
     18 O47         4.3920    0.8400   -2.9730 o         1 G75     -0.392100
     19 C37         5.0590   -1.4610   -3.4340 c3        1 G75      0.069500
     20 C41         6.1490   -1.2430   -2.3600 c3        1 G75     -0.042100
     21 C51         7.1750   -2.3140   -2.4170 ca        1 G75     -0.183300
     22 C55         8.4100   -2.0700   -3.0370 ca        1 G75     -0.128000
     23 C11         9.3960   -3.0550   -3.0410 ca        1 G75     -0.109500
     24 C9          9.1580   -4.2860   -2.4270 ca        1 G75     -0.083000
     25 C7          7.9320   -4.5310   -1.8060 ca        1 G75     -0.109500
     26 C53         6.9430   -3.5480   -1.7980 ca        1 G75     -0.128000
     27 N33         5.6620   -1.6160   -4.8000 n4        1 G75     -0.649800
     28 C31         4.8390   -2.4960   -5.6980 c         1 G75      0.648100
     29 O35         3.6200   -2.5860   -5.5660 o         1 G75     -0.510000
     30 O1          5.6030   -3.1190   -6.5870 os        1 G75     -0.389900
     31 C1          4.9040   -4.0140   -7.5620 c3        1 G75      0.230700
     32 C2          5.9960   -4.7110   -8.2690 ca        1 G75     -0.168300
     33 C4          6.4300   -5.9680   -7.8250 ca        1 G75     -0.083000
     34 C6          7.4190   -6.6510   -8.5300 ca        1 G75     -0.128000
     35 C8          7.9840   -6.0810   -9.6730 ca        1 G75     -0.068000
     36 C12         7.5600   -4.8250  -10.1120 ca        1 G75     -0.128000
     37 C10         6.5710   -4.1380   -9.4130 ca        1 G75     -0.083000
     38 H821       -0.6430   -0.3870   -1.0890 hc        1 G75      0.116200
     39 H822        0.9380    0.4710   -0.9130 hc        1 G75      0.116200
     40 H31C        1.0970   -4.2200   -0.3910 h1        1 G75      0.057700
     41 H32C        2.1820   -3.2660    0.7380 h1        1 G75      0.057700
     42 H51C        0.6900   -4.8600    2.0310 hc        1 G75      0.069033
     43 H52C       -0.7830   -4.0730    1.3080 hc        1 G75      0.069033
     44 H53C        0.2880   -3.1290    2.4230 hc        1 G75      0.069033
     45 H631        0.0980   -1.0040   -3.5240 hc        1 G75      0.097200
     46 H632       -0.4330    0.6750   -3.1390 hc        1 G75      0.097200
     47 H57         2.1420    1.2000   -2.7220 hx        1 G75      0.121700
     48 H591        0.5210    2.0520   -4.4790 hc        1 G75      0.095700
     49 H592        1.0320    0.7320   -5.6050 hc        1 G75      0.095700
     50 H49         2.7290   -0.7040   -4.8490 hn        1 G75      0.497800
     51 H61         3.1230    2.6010   -4.3020 hc        1 G75      0.104700
     52 H731        0.9520    3.4240   -6.2180 hc        1 G75      0.087200
     53 H732        2.2340    4.4280   -5.4300 hc        1 G75      0.087200
     54 H69         4.2770    2.0410   -8.0430 hn        1 G75      0.358500
     55 H711        2.1680    3.4650   -8.2120 h1        1 G75      0.087200
     56 H712        3.5140    4.3870   -7.3900 h1        1 G75      0.087200
     57 H37         4.5060   -2.4220   -3.1830 hx        1 G75      0.153700
     58 H411        5.6270   -1.2520   -1.3630 hc        1 G75      0.106200
     59 H412        6.6150   -0.2280   -2.4870 hc        1 G75      0.106200
     60 H33         5.7590   -0.6950   -5.2640 hn        1 G75      0.505300
     61 H55         8.6260   -1.0830   -3.4760 ha        1 G75      0.137500
     62 H53         5.9890   -3.7360   -1.2830 ha        1 G75      0.137500
     63 H11        10.3710   -2.8540   -3.5140 ha        1 G75      0.164000
     64 H9          9.9440   -5.0600   -2.4200 ha        1 G75      0.168000
     65 H7          7.7500   -5.4960   -1.3060 ha        1 G75      0.164000
     66 H11C        4.2460   -4.6960   -6.9650 h1        1 G75      0.085200
     67 H12C        4.3020   -3.3360   -8.2190 h1        1 G75      0.085200
     68 H4          5.9800   -6.4240   -6.9300 ha        1 G75      0.136000
     69 H10         6.2320   -3.1520   -9.7660 ha        1 G75      0.136000
     70 H6          7.7500   -7.6450   -8.1890 ha        1 G75      0.159000
     71 H8          8.7630   -6.6260  -10.2320 ha        1 G75      0.162000
     72 H12         8.0040   -4.3800  -11.0170 ha        1 G75      0.159000
     73 H492        2.3860   -1.4470   -3.3780 hn        1 G75      0.497800
     74 H332        6.6100   -2.0340   -4.6960 hn        1 G75      0.505300
@<TRIPOS>BOND
     1    1    2 2   
     2    2    3 1   
     3    2    6 1   
     4    3    4 1   
     5    4    5 1   
     6    4   40 1   
     7    4   41 1   
     8    5   42 1   
     9    5   43 1   
    10    5   44 1   
    11    6    7 1   
    12    6   38 1   
    13    6   39 1   
    14    7    8 1   
    15    7   45 1   
    16    7   46 1   
    17    8    9 1   
    18    8   16 1   
    19    8   47 1   
    20    9   10 1   
    21    9   48 1   
    22    9   49 1   
    23   10   11 1   
    24   10   15 1   
    25   10   51 1   
    26   11   12 2   
    27   11   13 1   
    28   13   14 1   
    29   13   54 1   
    30   14   15 1   
    31   14   55 1   
    32   14   56 1   
    33   15   52 1   
    34   15   53 1   
    35   16   17 1   
    36   16   50 1   
    37   16   73 1   
    38   17   18 2   
    39   17   19 1   
    40   19   20 1   
    41   19   27 1   
    42   19   57 1   
    43   20   21 1   
    44   20   58 1   
    45   20   59 1   
    46   21   22 ar  
    47   21   26 ar  
    48   22   23 ar  
    49   22   61 1   
    50   23   24 ar  
    51   23   63 1   
    52   24   25 ar  
    53   24   64 1   
    54   25   26 ar  
    55   25   65 1   
    56   26   62 1   
    57   27   28 1   
    58   27   60 1   
    59   27   74 1   
    60   28   29 2   
    61   28   30 1   
    62   30   31 1   
    63   31   32 1   
    64   31   66 1   
    65   31   67 1   
    66   32   33 ar  
    67   32   37 ar  
    68   33   34 ar  
    69   33   68 1   
    70   34   35 ar  
    71   34   70 1   
    72   35   36 ar  
    73   35   71 1   
    74   36   37 ar  
    75   36   72 1   
    76   37   69 1   
@<TRIPOS>SUBSTRUCTURE
     1 G75         1 TEMP              0 ****  ****    0 ROOT
