@<TRIPOS>MOLECULE
G75
   72    74     1     0     0
SMALL
bcc


@<TRIPOS>ATOM
      1 O88         6.4940   -0.6030    0.6620 o         1 G75     -0.556000
      2 C84         5.5480   -1.3530    0.4030 c         1 G75      0.633100
      3 O86         5.7610   -2.7030    0.4630 os        1 G75     -0.442900
      4 C3          7.0940   -3.1300    0.7950 c3        1 G75      0.138400
      5 C5          7.0740   -4.6390    0.7680 c3        1 G75     -0.100100
      6 C82         4.1490   -1.0060    0.0030 c3        1 G75     -0.129400
      7 C63         3.7210    0.3100    0.6150 c3        1 G75     -0.092400
      8 C57         2.4700    0.8740   -0.0840 c3        1 G75      0.096700
      9 C59         2.2410    2.3190    0.4040 c3        1 G75     -0.077400
     10 C61         3.1580    3.3060   -0.2890 c3        1 G75     -0.139700
     11 C65         2.7150    3.5930   -1.7300 c         1 G75      0.694500
     12 O66         2.6230    2.7680   -2.6510 o         1 G75     -0.622500
     13 N69         2.4300    4.9440   -1.8690 n         1 G75     -0.585900
     14 C71         2.7110    5.6970   -0.6720 c3        1 G75      0.091000
     15 C73         3.1500    4.6780    0.4030 c3        1 G75     -0.093400
     16 N49         1.2940    0.0570    0.1300 n         1 G75     -0.562900
     17 C39         0.9220   -0.9380   -0.7380 c         1 G75      0.650100
     18 O47         1.6220   -1.2820   -1.7110 o         1 G75     -0.611100
     19 C37        -0.4100   -1.6740   -0.4230 c3        1 G75      0.044700
     20 C41        -0.5420   -2.8540   -1.4010 c3        1 G75     -0.046100
     21 C51        -1.7810   -3.6400   -1.1620 ca        1 G75     -0.095300
     22 C55        -2.9040   -3.4530   -1.9760 ca        1 G75     -0.127500
     23 C11        -4.0610   -4.2000   -1.7590 ca        1 G75     -0.125500
     24 C9         -4.1060   -5.1370   -0.7280 ca        1 G75     -0.127000
     25 C7         -2.9890   -5.3290    0.0860 ca        1 G75     -0.125500
     26 C53        -1.8310   -4.5850   -0.1300 ca        1 G75     -0.127500
     27 N33        -1.5380   -0.7730   -0.4870 n         1 G75     -0.526900
     28 C31        -1.9450   -0.0950    0.6410 c         1 G75      0.740100
     29 O35        -1.2970    0.1040    1.6870 o         1 G75     -0.612000
     30 O1         -3.2060    0.4470    0.5210 os        1 G75     -0.434900
     31 C1         -3.6130    1.2760    1.6310 c3        1 G75      0.198700
     32 C2         -4.9710    1.8060    1.3180 ca        1 G75     -0.098300
     33 C4         -5.9190    1.0220    0.6540 ca        1 G75     -0.110500
     34 C6         -7.1940    1.5290    0.4070 ca        1 G75     -0.131500
     35 C8         -7.5290    2.8170    0.8240 ca        1 G75     -0.123000
     36 C12        -6.5840    3.6010    1.4860 ca        1 G75     -0.131500
     37 C10        -5.3060    3.1020    1.7300 ca        1 G75     -0.110500
     38 H821        4.1150   -0.9470   -1.1210 hc        1 G75      0.093700
     39 H822        3.4540   -1.8330    0.3040 hc        1 G75      0.093700
     40 H31C        7.8070   -2.7070    0.0400 h1        1 G75      0.049700
     41 H32C        7.3560   -2.7320    1.8090 h1        1 G75      0.049700
     42 H51C        6.3420   -5.0350    1.5110 hc        1 G75      0.047033
     43 H52C        6.7810   -5.0090   -0.2440 hc        1 G75      0.047033
     44 H53C        8.0920   -5.0210    1.0170 hc        1 G75      0.047033
     45 H631        3.5270    0.1760    1.7110 hc        1 G75      0.057700
     46 H632        4.5540    1.0540    0.5100 hc        1 G75      0.057700
     47 H57         2.6700    0.9010   -1.2030 h1        1 G75      0.109700
     48 H591        1.1770    2.6290    0.2240 hc        1 G75      0.055700
     49 H592        2.4230    2.3660    1.5100 hc        1 G75      0.055700
     50 H49         0.7200    0.2670    0.9160 hn        1 G75      0.336500
     51 H61         4.2040    2.9000   -0.3350 hc        1 G75      0.089700
     52 H731        2.4380    4.6950    1.2630 hc        1 G75      0.058700
     53 H732        4.1660    4.9320    0.7880 hc        1 G75      0.058700
     54 H69         2.2500    5.3810   -2.7350 hn        1 G75      0.331500
     55 H711        3.5230    6.4540   -0.8570 h1        1 G75      0.041700
     56 H712        1.7890    6.2520   -0.3440 h1        1 G75      0.041700
     57 H37        -0.3240   -2.0870    0.6300 h1        1 G75      0.079700
     58 H411       -0.5090   -2.4710   -2.4570 hc        1 G75      0.082700
     59 H412        0.3660   -3.5020   -1.2630 hc        1 G75      0.082700
     60 H33        -2.2070   -0.9230   -1.2100 hn        1 G75      0.337500
     61 H55        -2.8690   -2.7230   -2.7990 ha        1 G75      0.133000
     62 H53        -0.9490   -4.7410    0.5090 ha        1 G75      0.133000
     63 H11        -4.9390   -4.0500   -2.4050 ha        1 G75      0.134000
     64 H9         -5.0190   -5.7260   -0.5570 ha        1 G75      0.134000
     65 H7         -3.0200   -6.0700    0.8980 ha        1 G75      0.134000
     66 H11C       -3.6310    0.6410    2.5580 h1        1 G75      0.064200
     67 H12C       -2.8600    2.0980    1.7610 h1        1 G75      0.064200
     68 H4         -5.6480    0.0080    0.3220 ha        1 G75      0.138000
     69 H10        -4.5610    3.7250    2.2460 ha        1 G75      0.138000
     70 H6         -7.9370    0.9100   -0.1190 ha        1 G75      0.133500
     71 H8         -8.5360    3.2140    0.6310 ha        1 G75      0.133000
     72 H12        -6.8460    4.6180    1.8150 ha        1 G75      0.133500
@<TRIPOS>BOND
     1    1    2 2   
     2    2    3 1   
     3    2    6 1   
     4    3    4 1   
     5    4    5 1   
     6    4   40 1   
     7    4   41 1   
     8    5   42 1   
     9    5   43 1   
    10    5   44 1   
    11    6    7 1   
    12    6   38 1   
    13    6   39 1   
    14    7    8 1   
    15    7   45 1   
    16    7   46 1   
    17    8    9 1   
    18    8   16 1   
    19    8   47 1   
    20    9   10 1   
    21    9   48 1   
    22    9   49 1   
    23   10   11 1   
    24   10   15 1   
    25   10   51 1   
    26   11   12 2   
    27   11   13 1   
    28   13   14 1   
    29   13   54 1   
    30   14   15 1   
    31   14   55 1   
    32   14   56 1   
    33   15   52 1   
    34   15   53 1   
    35   16   17 1   
    36   16   50 1   
    37   17   18 2   
    38   17   19 1   
    39   19   20 1   
    40   19   27 1   
    41   19   57 1   
    42   20   21 1   
    43   20   58 1   
    44   20   59 1   
    45   21   22 ar  
    46   21   26 ar  
    47   22   23 ar  
    48   22   61 1   
    49   23   24 ar  
    50   23   63 1   
    51   24   25 ar  
    52   24   64 1   
    53   25   26 ar  
    54   25   65 1   
    55   26   62 1   
    56   27   28 1   
    57   27   60 1   
    58   28   29 2   
    59   28   30 1   
    60   30   31 1   
    61   31   32 1   
    62   31   66 1   
    63   31   67 1   
    64   32   33 ar  
    65   32   37 ar  
    66   33   34 ar  
    67   33   68 1   
    68   34   35 ar  
    69   34   70 1   
    70   35   36 ar  
    71   35   71 1   
    72   36   37 ar  
    73   36   72 1   
    74   37   69 1   
@<TRIPOS>SUBSTRUCTURE
     1 G75         1 TEMP              0 ****  ****    0 ROOT
