@<TRIPOS>MOLECULE
G76
   43    43     1     0     0
SMALL
bcc


@<TRIPOS>ATOM
      1 C01         0.6850   -0.0000   -0.6520 c3        1 G76     -0.206000
      2 C02         2.1450    0.0350   -0.2810 c3        1 G76     -0.161000
      3 C03         2.3460   -0.0660    1.2170 c3        1 G76     -0.156000
      4 C04         3.8140   -0.0310    1.5830 c3        1 G76     -0.160000
      5 C05         4.0180   -0.1330    3.0800 c3        1 G76     -0.148000
      6 C06         5.4860   -0.0970    3.4440 c3        1 G76     -0.208000
      7 C07         5.6790   -0.2070    4.9630 c3        1 G76     -0.035000
      8 N08         7.0120   -0.1360    5.4990 n3        1 G76     -0.206000
      9 C09         7.7820    0.9980    5.0570 c2        1 G76     -0.303000
     10 C10         8.9760    0.6240    4.4940 c2        1 G76     -0.025000
     11 N11         9.0290   -0.7750    4.2820 n3        1 G76     -0.292000
     12 C12         7.8980   -1.3480    5.1060 c3        1 G76      0.256000
     13 C13        10.3000   -1.4720    4.4340 c3        1 G76      0.064000
     14 C14        10.8330   -1.7130    5.7960 c2        1 G76     -1.468000
     15 P15        12.5020   -0.3600    5.5170 p3        1 G76      2.586000
     16 O16        13.2150   -0.2820    6.8260 o         1 G76     -1.238333
     17 O17        13.2260   -1.1520    4.4640 o         1 G76     -1.238333
     18 O18        11.8800    0.9020    4.9930 o         1 G76     -1.238333
     19 P19         9.7940   -2.0470    6.9990 p5        1 G76      2.113000
     20 O20         9.8620   -3.4800    7.4240 o         1 G76     -0.913000
     21 O21         9.5050   -1.0760    8.0820 o         1 G76     -0.913000
     22 O22         8.2460   -2.1080    6.1770 os        1 G76     -0.716000
     23 H01         0.5590    0.0750   -1.7590 hc        1 G76      0.060000
     24 H01A        0.2150   -0.9530   -0.3080 hc        1 G76      0.060000
     25 H01B        0.1370    0.8490   -0.1760 hc        1 G76      0.060000
     26 H02         2.6830   -0.8100   -0.7860 hc        1 G76      0.076500
     27 H02A        2.6060    0.9870   -0.6540 hc        1 G76      0.076500
     28 H03         1.8890   -1.0190    1.5930 hc        1 G76      0.070000
     29 H03A        1.8110    0.7790    1.7240 hc        1 G76      0.070000
     30 H04         4.3500   -0.8760    1.0760 hc        1 G76      0.078500
     31 H04A        4.2730    0.9220    1.2080 hc        1 G76      0.078500
     32 H05         3.4810    0.7110    3.5880 hc        1 G76      0.061500
     33 H05A        3.5610   -1.0870    3.4550 hc        1 G76      0.061500
     34 H06         6.0250   -0.9380    2.9370 hc        1 G76      0.089000
     35 H06A        5.9470    0.8590    3.0830 hc        1 G76      0.089000
     36 H07         5.0840    0.6300    5.4340 h1        1 G76      0.049000
     37 H07A        5.2280   -1.1820    5.3030 h1        1 G76      0.049000
     38 H09         7.4450    1.9980    5.3140 h4        1 G76      0.112000
     39 H10         9.8600    1.2400    4.2570 h4        1 G76      0.221000
     40 H12         7.2900   -2.0010    4.3930 h3        1 G76      0.017000
     41 H13        10.1170   -2.4610    3.8950 h1        1 G76      0.048500
     42 H13A       11.0380   -0.9130    3.7810 h1        1 G76      0.048500
     43 H14        11.6130   -2.5030    5.7480 ha        1 G76      0.131000
@<TRIPOS>BOND
     1    1    2 1   
     2    1   23 1   
     3    1   24 1   
     4    1   25 1   
     5    2    3 1   
     6    2   26 1   
     7    2   27 1   
     8    3    4 1   
     9    3   28 1   
    10    3   29 1   
    11    4    5 1   
    12    4   30 1   
    13    4   31 1   
    14    5    6 1   
    15    5   32 1   
    16    5   33 1   
    17    6    7 1   
    18    6   34 1   
    19    6   35 1   
    20    7    8 1   
    21    7   36 1   
    22    7   37 1   
    23    8    9 1   
    24    8   12 1   
    25    9   10 1   
    26    9   38 1   
    27   10   11 1   
    28   10   39 1   
    29   11   12 1   
    30   11   13 1   
    31   12   22 1   
    32   12   40 1   
    33   13   14 1   
    34   13   41 1   
    35   13   42 1   
    36   14   19 1   
    37   14   43 1   
    38   15   16 1   
    39   15   17 1   
    40   15   18 1   
    41   19   20 1   
    42   19   21 1   
    43   19   22 1   
@<TRIPOS>SUBSTRUCTURE
     1 G76         1 TEMP              0 ****  ****    0 ROOT
