@<TRIPOS>MOLECULE
G7G
   49    52     1     0     0
SMALL
bcc


@<TRIPOS>ATOM
      1 C1          0.0600   -0.0660   -0.0830 c3        1 G7G      0.339900
      2 C2          1.5920    0.0040   -0.2550 c3        1 G7G      0.122100
      3 O2          1.9710   -1.0700   -1.1010 oh        1 G7G     -0.601800
      4 C3          2.2690   -0.1440    1.1220 c3        1 G7G      0.099100
      5 O3          3.6480    0.1310    0.9180 oh        1 G7G     -0.627800
      6 C4          1.6460    0.8040    2.1640 c3        1 G7G      0.114100
      7 O4          2.2620    0.5010    3.4010 oh        1 G7G     -0.649800
      8 C5          0.1320    0.5790    2.1920 c3        1 G7G     -0.025900
      9 O5         -0.3660    0.8630    0.8870 os        1 G7G     -0.405600
     10 C6         -0.6570    1.5030    3.1680 c         1 G7G      0.943600
     11 O10        -0.5320    0.4370   -1.2810 os        1 G7G     -0.325900
     12 C11        -2.4340    0.1560   -2.6210 ca        1 G7G     -0.232000
     13 C12        -1.9130    0.4460   -1.3430 ca        1 G7G      0.220100
     14 C13        -2.7600    0.7920   -0.2880 ca        1 G7G     -0.285000
     15 C14        -4.1460    0.8480   -0.5020 ca        1 G7G      0.234100
     16 C15        -4.7150    0.5630   -1.7660 ca        1 G7G     -0.280600
     17 C16        -3.8160    0.2290   -2.7980 ca        1 G7G      0.165100
     18 C17        -6.1570    0.6140   -2.0130 c         1 G7G      0.608900
     19 C18        -6.5480    0.2670   -3.3990 cc        1 G7G     -0.215400
     20 C19        -5.5980   -0.0320   -4.3180 cd        1 G7G      0.076100
     21 O20        -4.2480   -0.0620   -4.0890 os        1 G7G     -0.226200
     22 C21        -7.9560    0.2440   -3.7800 ca        1 G7G     -0.052800
     23 C22        -8.8540    1.1950   -3.2730 ca        1 G7G     -0.080000
     24 C23       -10.1910    1.1840   -3.6580 ca        1 G7G     -0.189000
     25 C24       -10.6420    0.2080   -4.5570 ca        1 G7G      0.114100
     26 C25        -9.7620   -0.7590   -5.0670 ca        1 G7G     -0.189000
     27 C26        -8.4290   -0.7330   -4.6710 ca        1 G7G     -0.080000
     28 O27        -6.9890    0.9230   -1.1490 o         1 G7G     -0.538100
     29 O28        -4.9910    1.1900    0.5140 oh        1 G7G     -0.471100
     30 O29       -11.9500    0.1410   -4.9870 oh        1 G7G     -0.506100
     31 O6A        -1.8740    1.6930    2.9200 o         1 G7G     -0.819300
     32 O6B        -0.0170    1.9420    4.1630 o         1 G7G     -0.819300
     33 H1         -0.2930   -1.1090    0.1340 h2        1 G7G      0.057700
     34 H2          1.8800    0.9840   -0.7260 h1        1 G7G      0.072700
     35 HO2         2.9370   -1.0650   -1.1180 ho        1 G7G      0.413000
     36 H3          2.1680   -1.2080    1.4770 h1        1 G7G      0.051700
     37 HO3         4.0180    0.3220    1.7910 ho        1 G7G      0.426000
     38 H4          1.8650    1.8730    1.8900 h1        1 G7G      0.059700
     39 HO4         1.7500    0.9740    4.0840 ho        1 G7G      0.466000
     40 H5         -0.0900   -0.4860    2.4730 h1        1 G7G      0.038700
     41 H13        -2.3730    1.0520    0.7240 ha        1 G7G      0.236000
     42 H19        -5.7840   -0.2850   -5.3760 h4        1 G7G      0.168000
     43 H22        -8.4980    1.9460   -2.5480 ha        1 G7G      0.146500
     44 H23       -10.8890    1.9300   -3.2540 ha        1 G7G      0.136500
     45 H25       -10.1350   -1.5220   -5.7630 ha        1 G7G      0.136500
     46 H26        -7.7400   -1.5000   -5.0560 ha        1 G7G      0.146500
     47 HO28       -4.4520    1.3840    1.3050 ho        1 G7G      0.455000
     48 HO29      -12.4460    0.8320   -4.5260 ho        1 G7G      0.415000
     49 H11        -1.7680   -0.1070   -3.4510 ha        1 G7G      0.161000
@<TRIPOS>BOND
     1    1    2 1   
     2    1    9 1   
     3    1   11 1   
     4    1   33 1   
     5    2    3 1   
     6    2    4 1   
     7    2   34 1   
     8    3   35 1   
     9    4    5 1   
    10    4    6 1   
    11    4   36 1   
    12    5   37 1   
    13    6    7 1   
    14    6    8 1   
    15    6   38 1   
    16    7   39 1   
    17    8    9 1   
    18    8   10 1   
    19    8   40 1   
    20   10   31 1   
    21   10   32 1   
    22   11   13 1   
    23   12   13 ar  
    24   12   17 ar  
    25   12   49 1   
    26   13   14 ar  
    27   14   15 ar  
    28   14   41 1   
    29   15   16 ar  
    30   15   29 1   
    31   16   17 ar  
    32   16   18 1   
    33   17   21 1   
    34   18   19 1   
    35   18   28 2   
    36   19   20 2   
    37   19   22 1   
    38   20   21 1   
    39   20   42 1   
    40   22   23 ar  
    41   22   27 ar  
    42   23   24 ar  
    43   23   43 1   
    44   24   25 ar  
    45   24   44 1   
    46   25   26 ar  
    47   25   30 1   
    48   26   27 ar  
    49   26   45 1   
    50   27   46 1   
    51   29   47 1   
    52   30   48 1   
@<TRIPOS>SUBSTRUCTURE
     1 G7G         1 TEMP              0 ****  ****    0 ROOT
