@<TRIPOS>MOLECULE
G7K
   59    55     1     0     0
SMALL
bcc


@<TRIPOS>ATOM
      1 C01         6.9170    5.3380   -2.0180 c3        1 G7K     -0.067000
      2 O05         6.6460    4.1990   -2.8520 os        1 G7K     -0.200000
      3 C06         6.1430    3.0940   -2.1600 c2        1 G7K      0.147000
      4 C07         6.7730    2.1610   -1.3010 c1        1 G7K     -0.188000
      5 C09         6.1010    1.0100   -0.9190 c1        1 G7K     -0.012000
      6 C11         4.8200    0.7740   -1.3750 c1        1 G7K     -0.131000
      7 N12         3.7750   -0.3480   -1.0130 n1        1 G7K     -0.091000
      8 C13         2.5330   -0.0460   -1.6770 c1        1 G7K     -0.169000
      9 N14         1.6290   -1.0900   -1.4300 n2        1 G7K     -0.199000
     10 C16         0.5820   -0.9260   -0.4360 c2        1 G7K      0.166000
     11 C17         0.9130   -0.6760    0.8830 c2        1 G7K     -0.256000
     12 C19        -0.0680   -0.6130    1.8310 c1        1 G7K      0.009000
     13 N20        -1.3710   -0.7980    1.4720 n1        1 G7K     -0.221000
     14 C21        -1.6960   -1.0460    0.1640 c1        1 G7K      0.179000
     15 N22        -3.0900   -1.1060   -0.2340 n2        1 G7K     -0.261000
     16 C24        -3.5970   -2.2650   -0.8850 c3        1 G7K      0.010000
     17 C26        -4.0080   -1.8920   -2.3180 c3        1 G7K     -0.171500
     18 C29        -4.7310   -3.0310   -3.0280 c3        1 G7K     -0.171500
     19 C32        -5.8750   -3.5730   -2.2250 c3        1 G7K      0.028000
     20 O34        -6.3920   -4.7650   -2.8850 oh        1 G7K     -0.325000
     21 C36        -5.4630   -3.9410   -0.7970 c3        1 G7K     -0.171500
     22 C39        -4.7410   -2.8050   -0.0860 c3        1 G7K     -0.171500
     23 N42        -0.7170   -1.1090   -0.7860 n2        1 G7K     -0.254000
     24 C43         0.3020   -0.4960    3.3120 c3        1 G7K      0.375000
     25 F44        -0.5850   -1.2460    4.0630 f         1 G7K     -0.152500
     26 F45         1.5440   -0.9510    3.5010 f         1 G7K     -0.152500
     27 C46         0.2220    0.9710    3.7500 c2        1 G7K     -0.161000
     28 C47        -0.9890    1.4940    4.2000 c2        1 G7K     -0.055000
     29 C49        -1.0620    2.8100    4.6210 c1        1 G7K     -0.175000
     30 C51         0.0650    3.6070    4.5960 c1        1 G7K      0.109000
     31 F52         0.0090    4.8420    5.0600 f         1 G7K     -0.102000
     32 C53         1.2730    3.0870    4.1480 c1        1 G7K     -0.173000
     33 C55         1.3440    1.7590    3.7230 c1        1 G7K     -0.070000
     34 S57         2.7240    1.2360   -2.4630 ss        1 G7K      0.499000
     35 C58         4.1910    1.7100   -2.2340 c1        1 G7K     -0.237000
     36 N59         4.8630    2.8590   -2.6150 n2        1 G7K     -0.175000
     37 H1          7.2750    5.0350   -1.1570 h1        1 G7K      0.092333
     38 H2          7.5820    5.9230   -2.4650 h1        1 G7K      0.092333
     39 H3          6.0810    5.8430   -1.8680 h1        1 G7K      0.092333
     40 H4          7.7250    2.2620   -1.0880 ha        1 G7K      0.166000
     41 H5          6.5400    0.3580   -0.3210 ha        1 G7K      0.163000
     42 H6          1.6630   -1.8520   -1.9350 hn        1 G7K      0.230000
     43 H7          1.8600   -0.5430    1.1400 ha        1 G7K      0.176000
     44 H8         -3.6470   -0.4010   -0.0590 hn        1 G7K      0.220000
     45 H9         -2.9300   -2.9050   -0.9220 h1        1 G7K      0.128000
     46 H10        -3.1860   -1.6560   -2.8410 hc        1 G7K      0.090250
     47 H11        -4.5620   -1.1560   -2.2870 hc        1 G7K      0.090250
     48 H12        -5.0990   -2.6800   -3.9480 hc        1 G7K      0.095000
     49 H13        -4.0920   -3.7520   -3.1970 hc        1 G7K      0.095000
     50 H14        -6.5590   -2.9230   -2.1890 h1        1 G7K      0.072000
     51 H15        -7.3220   -4.7610   -2.8470 ho        1 G7K      0.199000
     52 H16        -4.8580   -4.7350   -0.8300 hc        1 G7K      0.095000
     53 H17        -6.2450   -4.1680   -0.2990 hc        1 G7K      0.095000
     54 H18        -5.3550   -2.1050    0.0730 hc        1 G7K      0.090250
     55 H19        -4.4030   -3.1300    0.7680 hc        1 G7K      0.090250
     56 H20        -1.8230    0.9040    4.2180 ha        1 G7K      0.161000
     57 H21        -1.9020    3.1690    4.9330 ha        1 G7K      0.153000
     58 H22         2.0810    3.6570    4.1290 ha        1 G7K      0.154000
     59 H23         2.1960    1.3880    3.4080 ha        1 G7K      0.151000
@<TRIPOS>BOND
     1    1    2 1   
     2    1   37 1   
     3    1   38 1   
     4    1   39 1   
     5    2    3 1   
     6    3    4 1   
     7    3   36 1   
     8    4   40 1   
     9    5    6 1   
    10    5   41 1   
    11    7    8 1   
    12    8   34 1   
    13    9   10 1   
    14    9   42 1   
    15   10   11 1   
    16   10   23 1   
    17   11   12 1   
    18   11   43 1   
    19   12   24 1   
    20   13   14 1   
    21   14   23 1   
    22   15   16 1   
    23   15   44 1   
    24   16   17 1   
    25   16   22 1   
    26   16   45 1   
    27   17   18 1   
    28   17   46 1   
    29   17   47 1   
    30   18   19 1   
    31   18   48 1   
    32   18   49 1   
    33   19   20 1   
    34   19   21 1   
    35   19   50 1   
    36   20   51 1   
    37   21   22 1   
    38   21   52 1   
    39   21   53 1   
    40   22   54 1   
    41   22   55 1   
    42   24   25 1   
    43   24   26 1   
    44   24   27 1   
    45   27   28 1   
    46   27   33 1   
    47   28   29 1   
    48   28   56 1   
    49   29   57 1   
    50   30   31 1   
    51   30   32 1   
    52   32   58 1   
    53   33   59 1   
    54   34   35 1   
    55   35   36 1   
@<TRIPOS>SUBSTRUCTURE
     1 G7K         1 TEMP              0 ****  ****    0 ROOT
