@<TRIPOS>MOLECULE
G7K
   59    63     1     0     0
SMALL
bcc


@<TRIPOS>ATOM
      1 C01        -7.3910    0.7730   -1.5400 c3        1 G7K      0.123700
      2 O05        -7.3500   -0.6510   -1.4500 os        1 G7K     -0.446100
      3 C06        -6.1350   -1.2400   -1.1660 ca        1 G7K      0.630600
      4 C07        -6.1910   -2.6720   -1.1050 ca        1 G7K     -0.248300
      5 C09        -5.0380   -3.3730   -0.8280 ca        1 G7K     -0.027000
      6 C11        -3.8420   -2.6460   -0.6140 ca        1 G7K     -0.033900
      7 N12        -2.5910   -3.1760   -0.3230 nc        1 G7K     -0.575100
      8 C13        -1.7050   -2.1700   -0.1920 cd        1 G7K      0.544100
      9 N14        -0.3580   -2.4120    0.0650 nh        1 G7K     -0.785900
     10 C16         0.5870   -1.4300    0.3560 ca        1 G7K      0.725200
     11 C17         1.9270   -1.8390    0.6470 ca        1 G7K     -0.440600
     12 C19         2.8490   -0.8190    0.9110 ca        1 G7K      0.449600
     13 N20         2.5430    0.4910    0.9020 nb        1 G7K     -0.760000
     14 C21         1.2220    0.8120    0.5970 ca        1 G7K      0.920900
     15 N22         0.9250    2.1770    0.4670 nh        1 G7K     -0.816900
     16 C24        -0.4360    2.6690    0.5940 c3        1 G7K      0.207500
     17 C26        -0.5350    4.1070    0.0500 c3        1 G7K     -0.092400
     18 C29        -1.9690    4.5850    0.0860 c3        1 G7K     -0.094400
     19 C32        -2.5210    4.5350    1.5070 c3        1 G7K      0.139100
     20 O34        -3.8810    4.9410    1.4250 oh        1 G7K     -0.597800
     21 C36        -2.3990    3.1290    2.0870 c3        1 G7K     -0.094400
     22 C39        -0.9680    2.6460    2.0390 c3        1 G7K     -0.092400
     23 N42         0.2230   -0.1140    0.3440 nb        1 G7K     -0.808000
     24 C43         4.3250   -1.1990    1.2120 c3        1 G7K      0.430600
     25 F44         4.7780   -0.6080    2.3760 f         1 G7K     -0.224800
     26 F45         4.4350   -2.5380    1.5430 f         1 G7K     -0.224800
     27 C46         5.1630   -0.8230   -0.0020 ca        1 G7K     -0.170300
     28 C47         5.5900    0.4990   -0.1580 ca        1 G7K     -0.061500
     29 C49         6.3370    0.8670   -1.2720 ca        1 G7K     -0.173000
     30 C51         6.6600   -0.1030   -2.2400 ca        1 G7K      0.146900
     31 F52         7.3850    0.2470   -3.3280 f         1 G7K     -0.135900
     32 C53         6.2340   -1.4350   -2.0820 ca        1 G7K     -0.173000
     33 C55         5.4890   -1.7860   -0.9610 ca        1 G7K     -0.061500
     34 S57        -2.3570   -0.5560   -0.4070 ss        1 G7K      0.015500
     35 C58        -3.8960   -1.2070   -0.7000 ca        1 G7K      0.374600
     36 N59        -5.0210   -0.5050   -0.9710 nb        1 G7K     -0.694000
     37 H1         -6.7270    1.1360   -2.3610 h1        1 G7K      0.051367
     38 H2         -8.4660    0.9780   -1.7760 h1        1 G7K      0.051367
     39 H3         -7.1010    1.2380   -0.5670 h1        1 G7K      0.051367
     40 H4         -7.1530   -3.1720   -1.2810 ha        1 G7K      0.162000
     41 H5         -5.0350   -4.4720   -0.7710 ha        1 G7K      0.157000
     42 H6         -0.0650   -3.3610    0.1690 hn        1 G7K      0.470800
     43 H7          2.2220   -2.8940    0.6740 ha        1 G7K      0.170000
     44 H8          1.6220    2.7930    0.8350 hn        1 G7K      0.430800
     45 H9         -1.1110    2.0150   -0.0390 h1        1 G7K      0.089700
     46 H10         0.1090    4.7930    0.6610 hc        1 G7K      0.050950
     47 H11        -0.1620    4.1400   -1.0070 hc        1 G7K      0.050950
     48 H12        -2.0290    5.6380   -0.2940 hc        1 G7K      0.058200
     49 H13        -2.6110    3.9500   -0.5790 hc        1 G7K      0.058200
     50 H14        -1.9600    5.2630    2.1610 h1        1 G7K      0.032700
     51 H15        -4.2610    4.8230    2.3030 ho        1 G7K      0.401000
     52 H16        -2.7590    3.1290    3.1490 hc        1 G7K      0.058200
     53 H17        -3.0610    2.4350    1.5060 hc        1 G7K      0.058200
     54 H18        -0.9170    1.6010    2.4440 hc        1 G7K      0.050950
     55 H19        -0.3270    3.2960    2.6900 hc        1 G7K      0.050950
     56 H20         5.3300    1.2490    0.6070 ha        1 G7K      0.155500
     57 H21         6.6770    1.9040   -1.4030 ha        1 G7K      0.155000
     58 H22         6.4950   -2.1860   -2.8420 ha        1 G7K      0.155000
     59 H23         5.1610   -2.8290   -0.8260 ha        1 G7K      0.155500
@<TRIPOS>BOND
     1    1    2 1   
     2    1   37 1   
     3    1   38 1   
     4    1   39 1   
     5    2    3 1   
     6    3    4 ar  
     7    3   36 ar  
     8    4    5 ar  
     9    4   40 1   
    10    5    6 ar  
    11    5   41 1   
    12    6    7 1   
    13    6   35 ar  
    14    7    8 2   
    15    8    9 1   
    16    8   34 1   
    17    9   10 1   
    18    9   42 1   
    19   10   11 ar  
    20   10   23 ar  
    21   11   12 ar  
    22   11   43 1   
    23   12   13 ar  
    24   12   24 1   
    25   13   14 ar  
    26   14   15 1   
    27   14   23 ar  
    28   15   16 1   
    29   15   44 1   
    30   16   17 1   
    31   16   22 1   
    32   16   45 1   
    33   17   18 1   
    34   17   46 1   
    35   17   47 1   
    36   18   19 1   
    37   18   48 1   
    38   18   49 1   
    39   19   20 1   
    40   19   21 1   
    41   19   50 1   
    42   20   51 1   
    43   21   22 1   
    44   21   52 1   
    45   21   53 1   
    46   22   54 1   
    47   22   55 1   
    48   24   25 1   
    49   24   26 1   
    50   24   27 1   
    51   27   28 ar  
    52   27   33 ar  
    53   28   29 ar  
    54   28   56 1   
    55   29   30 ar  
    56   29   57 1   
    57   30   31 1   
    58   30   32 ar  
    59   32   33 ar  
    60   32   58 1   
    61   33   59 1   
    62   34   35 1   
    63   35   36 ar  
@<TRIPOS>SUBSTRUCTURE
     1 G7K         1 TEMP              0 ****  ****    0 ROOT
