@<TRIPOS>MOLECULE
G7K
   61    65     1     0     0
SMALL
bcc


@<TRIPOS>ATOM
      1 C01         4.5130   -1.0930   -0.2460 c3        1 G7K      0.114700
      2 O05         4.7940   -0.0830    0.7390 os        1 G7K     -0.397100
      3 C06         4.3370   -0.2440    2.0020 ca        1 G7K      0.728600
      4 C07         4.7060    0.8300    2.9040 ca        1 G7K     -0.230300
      5 C09         4.3050    0.7810    4.2100 ca        1 G7K      0.007000
      6 C11         3.5270   -0.3400    4.6430 ca        1 G7K     -0.077900
      7 N12         3.0450   -0.5780    5.8990 nc        1 G7K     -0.446100
      8 C13         2.3760   -1.7570    5.8920 cd        1 G7K      0.175100
      9 N14         1.7950   -2.2950    7.1140 n4        1 G7K     -0.636700
     10 C16         0.8030   -1.3670    7.7190 ca        1 G7K      0.532200
     11 C17         1.2430   -0.2040    8.3780 ca        1 G7K     -0.231600
     12 C19         0.2330    0.6370    8.9250 ca        1 G7K      0.428600
     13 N20        -1.0750    0.3490    8.8290 nb        1 G7K     -0.610000
     14 C21        -1.3950   -0.8150    8.1600 ca        1 G7K      0.755900
     15 N22        -2.8470   -1.1350    8.0500 n4        1 G7K     -0.750700
     16 C24        -3.5640   -0.2460    7.0400 c3        1 G7K      0.128500
     17 C26        -5.0770   -0.2970    7.2900 c3        1 G7K     -0.097400
     18 C29        -5.7620    0.6630    6.3400 c3        1 G7K     -0.103900
     19 C32        -5.4400    0.3410    4.8810 c3        1 G7K      0.143100
     20 O34        -5.9170    1.3750    4.0390 oh        1 G7K     -0.576800
     21 C36        -3.9310    0.2870    4.6460 c3        1 G7K     -0.103900
     22 C39        -3.2570   -0.6730    5.6040 c3        1 G7K     -0.097400
     23 N42        -0.5190   -1.6970    7.5920 nb        1 G7K     -0.673000
     24 C43         0.6590    1.9460    9.6960 c3        1 G7K      0.464600
     25 F44         1.9370    2.2930    9.3120 f         1 G7K     -0.193800
     26 F45        -0.0760    3.0180    9.2490 f         1 G7K     -0.193800
     27 C46         0.5120    1.6540   11.1730 ca        1 G7K     -0.228300
     28 C47         1.6120    1.2070   11.9140 ca        1 G7K     -0.062000
     29 C49         1.4830    0.9540   13.2740 ca        1 G7K     -0.167000
     30 C51         0.2380    1.1640   13.9050 ca        1 G7K      0.191900
     31 F52         0.1040    0.9180   15.2220 f         1 G7K     -0.099900
     32 C53        -0.8640    1.6340   13.1610 ca        1 G7K     -0.167000
     33 C55        -0.7180    1.8810   11.8020 ca        1 G7K     -0.062000
     34 S57         2.3010   -2.5880    4.3860 ss        1 G7K      0.112500
     35 C58         3.2100   -1.3650    3.6550 ca        1 G7K      0.473600
     36 N59         3.5970   -1.3240    2.3670 nb        1 G7K     -0.722000
     37 H1          5.0220   -0.6820   -1.1570 h1        1 G7K      0.077367
     38 H2          3.4120   -1.1840   -0.4010 h1        1 G7K      0.077367
     39 H3          4.9610   -2.0680    0.0640 h1        1 G7K      0.077367
     40 H4          5.3110    1.6600    2.5010 ha        1 G7K      0.202000
     41 H5          4.5700    1.5760    4.9280 ha        1 G7K      0.184000
     42 H6          2.5460   -2.4430    7.8110 hn        1 G7K      0.487800
     43 H7          2.3090    0.0850    8.4620 ha        1 G7K      0.236000
     44 H8         -2.9660   -2.1200    7.7720 hn        1 G7K      0.480300
     45 H9         -3.1980    0.8110    7.2140 hx        1 G7K      0.129700
     46 H10        -5.3160    0.0010    8.3460 hc        1 G7K      0.067450
     47 H11        -5.4650   -1.3360    7.1200 hc        1 G7K      0.067450
     48 H12        -5.4550    1.7200    6.5600 hc        1 G7K      0.086200
     49 H13        -6.8720    0.6000    6.5010 hc        1 G7K      0.086200
     50 H14        -5.9090   -0.6430    4.5970 h1        1 G7K      0.049700
     51 H15        -6.8820    1.3200    4.0310 ho        1 G7K      0.426000
     52 H16        -3.5060    1.3200    4.7550 hc        1 G7K      0.086200
     53 H17        -3.7390   -0.0430    3.5910 hc        1 G7K      0.086200
     54 H18        -2.1520   -0.6620    5.4160 hc        1 G7K      0.067450
     55 H19        -3.6340   -1.7140    5.4190 hc        1 G7K      0.067450
     56 H20         2.5940    1.0830   11.4280 ha        1 G7K      0.151500
     57 H21         2.3450    0.6130   13.8700 ha        1 G7K      0.178000
     58 H22        -1.8230    1.8230   13.6700 ha        1 G7K      0.178000
     59 H23        -1.5660    2.2820   11.2220 ha        1 G7K      0.151500
     60 H142        1.3570   -3.2040    6.8900 hn        1 G7K      0.487800
     61 H222       -3.2800   -0.9940    8.9770 hn        1 G7K      0.480300
@<TRIPOS>BOND
     1    1    2 1   
     2    1   37 1   
     3    1   38 1   
     4    1   39 1   
     5    2    3 1   
     6    3    4 ar  
     7    3   36 ar  
     8    4    5 ar  
     9    4   40 1   
    10    5    6 ar  
    11    5   41 1   
    12    6    7 1   
    13    6   35 ar  
    14    7    8 2   
    15    8    9 1   
    16    8   34 1   
    17    9   10 1   
    18    9   42 1   
    19    9   60 1   
    20   10   11 ar  
    21   10   23 ar  
    22   11   12 ar  
    23   11   43 1   
    24   12   13 ar  
    25   12   24 1   
    26   13   14 ar  
    27   14   15 1   
    28   14   23 ar  
    29   15   16 1   
    30   15   44 1   
    31   15   61 1   
    32   16   17 1   
    33   16   22 1   
    34   16   45 1   
    35   17   18 1   
    36   17   46 1   
    37   17   47 1   
    38   18   19 1   
    39   18   48 1   
    40   18   49 1   
    41   19   20 1   
    42   19   21 1   
    43   19   50 1   
    44   20   51 1   
    45   21   22 1   
    46   21   52 1   
    47   21   53 1   
    48   22   54 1   
    49   22   55 1   
    50   24   25 1   
    51   24   26 1   
    52   24   27 1   
    53   27   28 ar  
    54   27   33 ar  
    55   28   29 ar  
    56   28   56 1   
    57   29   30 ar  
    58   29   57 1   
    59   30   31 1   
    60   30   32 ar  
    61   32   33 ar  
    62   32   58 1   
    63   33   59 1   
    64   34   35 1   
    65   35   36 ar  
@<TRIPOS>SUBSTRUCTURE
     1 G7K         1 TEMP              0 ****  ****    0 ROOT
