@<TRIPOS>MOLECULE
G7K
   59    63     1     0     0
SMALL
bcc


@<TRIPOS>ATOM
      1 C01         0.4980    1.0540   -0.1970 c3        1 G7K      0.123700
      2 O05         1.8980    1.1030    0.0810 os        1 G7K     -0.446100
      3 C06         2.2950    0.9670    1.3950 ca        1 G7K      0.630600
      4 C07         3.7160    1.0380    1.5770 ca        1 G7K     -0.248300
      5 C09         4.2330    0.9140    2.8480 ca        1 G7K     -0.027000
      6 C11         3.3340    0.7210    3.9250 ca        1 G7K     -0.033900
      7 N12         3.6680    0.5740    5.2660 nc        1 G7K     -0.575100
      8 C13         2.5400    0.4140    5.9860 cd        1 G7K      0.544100
      9 N14         2.5720    0.2830    7.3720 nh        1 G7K     -0.785900
     10 C16         1.4720   -0.0350    8.1670 ca        1 G7K      0.725200
     11 C17         1.6730   -0.1870    9.5760 ca        1 G7K     -0.440600
     12 C19         0.5370   -0.4820   10.3400 ca        1 G7K      0.449600
     13 N20        -0.6990   -0.6240    9.8270 nb        1 G7K     -0.760000
     14 C21        -0.8170   -0.4470    8.4500 ca        1 G7K      0.920900
     15 N22        -2.1170   -0.4720    7.9260 nh        1 G7K     -0.816900
     16 C24        -2.3600   -0.7440    6.5190 c3        1 G7K      0.207500
     17 C26        -3.8020   -0.3510    6.1430 c3        1 G7K     -0.092400
     18 C29        -4.0260   -0.5360    4.6590 c3        1 G7K     -0.094400
     19 C32        -3.7640   -1.9820    4.2480 c3        1 G7K      0.139100
     20 O34        -3.9390   -2.0370    2.8380 oh        1 G7K     -0.597800
     21 C36        -2.3540   -2.4110    4.6450 c3        1 G7K     -0.094400
     22 C39        -2.1250   -2.2150    6.1260 c3        1 G7K     -0.092400
     23 N42         0.2400   -0.1770    7.5960 nb        1 G7K     -0.808000
     24 C43         0.6860   -0.6390   11.8790 c3        1 G7K      0.430600
     25 F44         0.1270   -1.8190   12.3300 f         1 G7K     -0.224800
     26 F45         2.0100   -0.8290   12.2320 f         1 G7K     -0.224800
     27 C46         0.0740    0.5910   12.5370 ca        1 G7K     -0.170300
     28 C47        -1.3090    0.6480   12.7290 ca        1 G7K     -0.061500
     29 C49        -1.8900    1.7720   13.3070 ca        1 G7K     -0.173000
     30 C51        -1.0730    2.8500   13.6970 ca        1 G7K      0.146900
     31 F52        -1.6300    3.9480   14.2590 f         1 G7K     -0.135900
     32 C53         0.3210    2.7920   13.5080 ca        1 G7K     -0.173000
     33 C55         0.8850    1.6590   12.9290 ca        1 G7K     -0.061500
     34 S57         1.0480    0.4260    5.0650 ss        1 G7K      0.015500
     35 C58         1.9230    0.6660    3.6320 ca        1 G7K      0.374600
     36 N59         1.4010    0.7850    2.3890 nb        1 G7K     -0.694000
     37 H1          0.0730    0.0650    0.0980 h1        1 G7K      0.051367
     38 H2         -0.0360    1.8830    0.3240 h1        1 G7K      0.051367
     39 H3          0.4600    1.1890   -1.3080 h1        1 G7K      0.051367
     40 H4          4.3550    1.1890    0.6970 ha        1 G7K      0.162000
     41 H5          5.3160    0.9620    3.0330 ha        1 G7K      0.157000
     42 H6          3.4630    0.2910    7.8220 hn        1 G7K      0.470800
     43 H7          2.6610   -0.0900   10.0390 ha        1 G7K      0.170000
     44 H8         -2.8090   -0.8480    8.5440 hn        1 G7K      0.430800
     45 H9         -1.6570   -0.1000    5.9070 h1        1 G7K      0.089700
     46 H10        -3.9860    0.7210    6.4120 hc        1 G7K      0.050950
     47 H11        -4.5320   -0.9800    6.7180 hc        1 G7K      0.050950
     48 H12        -3.3500    0.1400    4.0740 hc        1 G7K      0.058200
     49 H13        -5.0810   -0.2660    4.3980 hc        1 G7K      0.058200
     50 H14        -4.5170   -2.6620    4.7380 h1        1 G7K      0.032700
     51 H15        -3.6850   -2.9240    2.5600 ho        1 G7K      0.401000
     52 H16        -1.6090   -1.8140    4.0560 hc        1 G7K      0.058200
     53 H17        -2.2040   -3.4910    4.3830 hc        1 G7K      0.058200
     54 H18        -1.0740   -2.5100    6.3800 hc        1 G7K      0.050950
     55 H19        -2.8180   -2.8780    6.7070 hc        1 G7K      0.050950
     56 H20        -1.9380   -0.2030   12.4180 ha        1 G7K      0.155500
     57 H21        -2.9770    1.8270   13.4610 ha        1 G7K      0.155000
     58 H22         0.9510    3.6370   13.8190 ha        1 G7K      0.155000
     59 H23         1.9760    1.6020   12.7870 ha        1 G7K      0.155500
@<TRIPOS>BOND
     1    1    2 1   
     2    1   37 1   
     3    1   38 1   
     4    1   39 1   
     5    2    3 1   
     6    3    4 ar  
     7    3   36 ar  
     8    4    5 ar  
     9    4   40 1   
    10    5    6 ar  
    11    5   41 1   
    12    6    7 1   
    13    6   35 ar  
    14    7    8 2   
    15    8    9 1   
    16    8   34 1   
    17    9   10 1   
    18    9   42 1   
    19   10   11 ar  
    20   10   23 ar  
    21   11   12 ar  
    22   11   43 1   
    23   12   13 ar  
    24   12   24 1   
    25   13   14 ar  
    26   14   15 1   
    27   14   23 ar  
    28   15   16 1   
    29   15   44 1   
    30   16   17 1   
    31   16   22 1   
    32   16   45 1   
    33   17   18 1   
    34   17   46 1   
    35   17   47 1   
    36   18   19 1   
    37   18   48 1   
    38   18   49 1   
    39   19   20 1   
    40   19   21 1   
    41   19   50 1   
    42   20   51 1   
    43   21   22 1   
    44   21   52 1   
    45   21   53 1   
    46   22   54 1   
    47   22   55 1   
    48   24   25 1   
    49   24   26 1   
    50   24   27 1   
    51   27   28 ar  
    52   27   33 ar  
    53   28   29 ar  
    54   28   56 1   
    55   29   30 ar  
    56   29   57 1   
    57   30   31 1   
    58   30   32 ar  
    59   32   33 ar  
    60   32   58 1   
    61   33   59 1   
    62   34   35 1   
    63   35   36 ar  
@<TRIPOS>SUBSTRUCTURE
     1 G7K         1 TEMP              0 ****  ****    0 ROOT
