@<TRIPOS>MOLECULE
G7K
   59    63     1     0     0
SMALL
bcc


@<TRIPOS>ATOM
      1 C01         0.5760    1.0800   -0.1840 c3        1 G7K      0.123700
      2 O05         1.9740    1.0980    0.1050 os        1 G7K     -0.446100
      3 C06         2.3580    0.9460    1.4220 ca        1 G7K      0.630600
      4 C07         3.7780    0.9850    1.6150 ca        1 G7K     -0.248300
      5 C09         4.2820    0.8430    2.8890 ca        1 G7K     -0.027000
      6 C11         3.3710    0.6630    3.9580 ca        1 G7K     -0.033900
      7 N12         3.6910    0.5020    5.3010 nc        1 G7K     -0.575100
      8 C13         2.5540    0.3620    6.0100 cd        1 G7K      0.544100
      9 N14         2.5720    0.2220    7.3960 nu        1 G7K     -0.785900
     10 C16         1.4600   -0.0800    8.1800 ca        1 G7K      0.725200
     11 C17         1.6470   -0.2470    9.5900 ca        1 G7K     -0.440600
     12 C19         0.5000   -0.5250   10.3430 ca        1 G7K      0.449600
     13 N20        -0.7350   -0.6390    9.8190 nb        1 G7K     -0.760000
     14 C21        -0.8380   -0.4500    8.4420 ca        1 G7K      0.920900
     15 N22        -2.1350   -0.4460    7.9080 nu        1 G7K     -0.816900
     16 C24        -2.3720   -0.7040    6.4970 c3        1 G7K      0.207500
     17 C26        -3.8020   -0.2800    6.1130 c3        1 G7K     -0.092400
     18 C29        -4.0180   -0.4500    4.6260 c3        1 G7K     -0.094400
     19 C32        -3.7810   -1.8980    4.2060 c3        1 G7K      0.139100
     20 O34        -3.9460   -1.9400    2.7950 oh        1 G7K     -0.597800
     21 C36        -2.3830   -2.3570    4.6120 c3        1 G7K     -0.094400
     22 C39        -2.1620   -2.1750    6.0960 c3        1 G7K     -0.092400
     23 N42         0.2310   -0.1950    7.5980 nb        1 G7K     -0.808000
     24 C43         0.6330   -0.6950   11.8810 c3        1 G7K      0.430600
     25 F44         0.0500   -1.8680   12.3190 f         1 G7K     -0.224800
     26 F45         1.9510   -0.9120   12.2440 f         1 G7K     -0.224800
     27 C46         0.0380    0.5400   12.5430 ca        1 G7K     -0.170300
     28 C47        -1.3460    0.6200   12.7260 ca        1 G7K     -0.061500
     29 C49        -1.9110    1.7500   13.3070 ca        1 G7K     -0.173000
     30 C51        -1.0790    2.8110   13.7110 ca        1 G7K      0.146900
     31 F52        -1.6210    3.9140   14.2760 f         1 G7K     -0.135900
     32 C53         0.3150    2.7290   13.5320 ca        1 G7K     -0.173000
     33 C55         0.8640    1.5910   12.9500 ca        1 G7K     -0.061500
     34 S57         1.0700    0.4100    5.0790 ss        1 G7K      0.015500
     35 C58         1.9610    0.6400    3.6540 ca        1 G7K      0.374600
     36 N59         1.4520    0.7770    2.4070 nb        1 G7K     -0.694000
     37 H1          0.0550    1.9180    0.3380 h1        1 G7K      0.051367
     38 H2          0.5490    1.2230   -1.2940 h1        1 G7K      0.051367
     39 H3          0.1270    0.0990    0.1020 h1        1 G7K      0.051367
     40 H4          4.4270    1.1280    0.7410 ha        1 G7K      0.162000
     41 H5          5.3650    0.8670    3.0830 ha        1 G7K      0.157000
     42 H6          3.4610    0.2090    7.8540 hn        1 G7K      0.470800
     43 H7          2.6330   -0.1720   10.0610 ha        1 G7K      0.170000
     44 H8         -2.8380   -0.8120    8.5170 hn        1 G7K      0.430800
     45 H9         -1.6510   -0.0690    5.8960 h1        1 G7K      0.089700
     46 H10        -3.9680    0.7940    6.3880 hc        1 G7K      0.050950
     47 H11        -4.5490   -0.8970    6.6770 hc        1 G7K      0.050950
     48 H12        -5.0660   -0.1570    4.3580 hc        1 G7K      0.058200
     49 H13        -3.3240    0.2170    4.0500 hc        1 G7K      0.058200
     50 H14        -4.5510   -2.5660    4.6860 h1        1 G7K      0.032700
     51 H15        -3.7070   -2.8300    2.5130 ho        1 G7K      0.401000
     52 H16        -1.6220   -1.7710    4.0330 hc        1 G7K      0.058200
     53 H17        -2.2520   -3.4380    4.3440 hc        1 G7K      0.058200
     54 H18        -1.1190   -2.4940    6.3560 hc        1 G7K      0.050950
     55 H19        -2.8720   -2.8290    6.6670 hc        1 G7K      0.050950
     56 H20        -1.9870   -0.2170   12.4040 ha        1 G7K      0.155500
     57 H21        -2.9990    1.8230   13.4540 ha        1 G7K      0.155000
     58 H22         0.9570    3.5620   13.8540 ha        1 G7K      0.155000
     59 H23         1.9550    1.5160   12.8150 ha        1 G7K      0.155500
@<TRIPOS>BOND
     1    1    2 1   
     2    1   37 1   
     3    1   38 1   
     4    1   39 1   
     5    2    3 1   
     6    3    4 ar  
     7    3   36 ar  
     8    4    5 ar  
     9    4   40 1   
    10    5    6 ar  
    11    5   41 1   
    12    6    7 1   
    13    6   35 ar  
    14    7    8 2   
    15    8    9 1   
    16    8   34 1   
    17    9   10 1   
    18    9   42 1   
    19   10   11 ar  
    20   10   23 ar  
    21   11   12 ar  
    22   11   43 1   
    23   12   13 ar  
    24   12   24 1   
    25   13   14 ar  
    26   14   15 1   
    27   14   23 ar  
    28   15   16 1   
    29   15   44 1   
    30   16   17 1   
    31   16   22 1   
    32   16   45 1   
    33   17   18 1   
    34   17   46 1   
    35   17   47 1   
    36   18   19 1   
    37   18   48 1   
    38   18   49 1   
    39   19   20 1   
    40   19   21 1   
    41   19   50 1   
    42   20   51 1   
    43   21   22 1   
    44   21   52 1   
    45   21   53 1   
    46   22   54 1   
    47   22   55 1   
    48   24   25 1   
    49   24   26 1   
    50   24   27 1   
    51   27   28 ar  
    52   27   33 ar  
    53   28   29 ar  
    54   28   56 1   
    55   29   30 ar  
    56   29   57 1   
    57   30   31 1   
    58   30   32 ar  
    59   32   33 ar  
    60   32   58 1   
    61   33   59 1   
    62   34   35 1   
    63   35   36 ar  
@<TRIPOS>SUBSTRUCTURE
     1 G7K         1 TEMP              0 ****  ****    0 ROOT
