@<TRIPOS>MOLECULE
G7M
   40    42     1     0     0
SMALL
bcc


@<TRIPOS>ATOM
      1 OP3        59.9950   15.6700   31.7090 o         1 G7M     -0.829500
      2 P          59.2420   14.4520   31.3610 p5        1 G7M      1.426800
      3 OP1        60.2250   13.3790   30.6220 oh        1 G7M     -0.784400
      4 OP2        58.3700   13.6360   32.2260 o         1 G7M     -0.829500
      5 O5'        58.3250   14.8070   30.0210 os        1 G7M     -0.591200
      6 C5'        58.7130   15.9130   29.2730 c3        1 G7M      0.182400
      7 C4'        58.3420   15.7340   27.7940 c3        1 G7M      0.122100
      8 O4'        59.4780   15.2950   27.0260 os        1 G7M     -0.415600
      9 C3'        57.2150   14.7100   27.5740 c3        1 G7M      0.130100
     10 O3'        56.3700   15.2060   26.5490 oh        1 G7M     -0.609800
     11 C2'        57.9640   13.4210   27.1750 c3        1 G7M      0.083100
     12 O2'        57.2490   12.7580   26.1520 oh        1 G7M     -0.608800
     13 C1'        59.3410   13.9240   26.6350 c3        1 G7M      0.239800
     14 N9         60.4680   13.1400   27.0960 nh        1 G7M     -0.151600
     15 C8         60.4210   12.1310   28.0710 c1        1 G7M      0.030000
     16 N7         61.7230   11.7760   28.3800 nh        1 G7M     -0.095600
     17 CN7        62.1040   10.9890   29.5120 c3        1 G7M      0.022600
     18 C5         62.6090   12.5750   27.6280 cc        1 G7M     -0.270300
     19 C6         64.0490   12.6330   27.5700 c         1 G7M      0.745700
     20 O6         64.8710   11.9280   28.1870 o         1 G7M     -0.654500
     21 N1         64.5470   13.6000   26.6640 n         1 G7M     -0.485400
     22 C2         63.6930   14.4360   25.9140 cc        1 G7M      0.623800
     23 N2         64.3330   15.4470   25.1280 nh        1 G7M     -0.871800
     24 N3         62.3480   14.3610   25.9250 nd        1 G7M     -0.621300
     25 C4         61.8180   13.4500   26.8190 cd        1 G7M      0.193500
     26 H5'        58.1640   16.8270   29.6420 h1        1 G7M      0.042200
     27 H5''       59.8210   16.0820   29.3750 h1        1 G7M      0.042200
     28 H4'        58.0740   16.7300   27.3440 h1        1 G7M      0.072700
     29 H3'        56.6190   14.5460   28.5120 h1        1 G7M      0.100700
     30 HO3'       55.8450   14.4590   26.2350 ho        1 G7M      0.410000
     31 H2'        58.0870   12.7680   28.0840 h1        1 G7M      0.114700
     32 HO2'       57.5950   11.8580   26.1200 ho        1 G7M      0.411000
     33 H1'        59.3610   13.9200   25.5040 h2        1 G7M      0.075700
     34 H8         59.7690   12.5780   30.3870 ho        1 G7M      0.430000
     35 HN71       63.2030   10.7650   29.4640 h1        1 G7M      0.065367
     36 HN72       61.8740   11.5560   30.4580 h1        1 G7M      0.065367
     37 HN73       61.5170   10.0330   29.5050 h1        1 G7M      0.065367
     38 H1         65.5290   13.7670   26.6650 hn        1 G7M      0.332500
     39 H21        63.6740   16.0770   24.7160 hn        1 G7M      0.396800
     40 H22        64.9470   15.0560   24.4430 hn        1 G7M      0.396800
@<TRIPOS>BOND
     1    1    2 1   
     2    2    3 1   
     3    2    4 1   
     4    2    5 1   
     5    3   34 1   
     6    5    6 1   
     7    6    7 1   
     8    6   26 1   
     9    6   27 1   
    10    7    8 1   
    11    7    9 1   
    12    7   28 1   
    13    8   13 1   
    14    9   10 1   
    15    9   11 1   
    16    9   29 1   
    17   10   30 1   
    18   11   12 1   
    19   11   13 1   
    20   11   31 1   
    21   12   32 1   
    22   13   14 1   
    23   13   33 1   
    24   14   15 2   
    25   14   25 1   
    26   15   16 2   
    27   16   17 1   
    28   16   18 1   
    29   17   35 1   
    30   17   36 1   
    31   17   37 1   
    32   18   19 1   
    33   18   25 2   
    34   19   20 2   
    35   19   21 1   
    36   21   22 1   
    37   21   38 1   
    38   22   23 1   
    39   22   24 2   
    40   23   39 1   
    41   23   40 1   
    42   24   25 1   
@<TRIPOS>SUBSTRUCTURE
     1 G7M         1 TEMP              0 ****  ****    0 ROOT
