@<TRIPOS>MOLECULE
G7P
   29    29     1     0     0
SMALL
bcc


@<TRIPOS>ATOM
      1 C1          0.0530   -0.1070    0.0820 c3        1 G7P      0.330900
      2 C2          1.5820   -0.1330   -0.0540 c3        1 G7P      0.053100
      3 C3          2.2170   -0.2050    1.3380 c3        1 G7P      0.056100
      4 C4          1.7120    0.9670    2.2880 c3        1 G7P      0.420800
      5 C5          0.1390    0.9940    2.1960 c3        1 G7P      0.074100
      6 C6         -0.4240    2.2620    2.8300 c3        1 G7P     -0.047400
      7 O1         -0.5530    0.1110   -1.1800 oh        1 G7P     -0.658800
      8 O2          1.9960   -1.2730   -0.8060 oh        1 G7P     -0.635800
      9 O3          3.6230   -0.0770    1.2030 oh        1 G7P     -0.581800
     10 O4          2.1140    0.7900    3.5210 o         1 G7P     -0.857500
     11 O5         -0.3740    0.9900    0.8420 os        1 G7P     -0.464600
     12 C7         -1.8890    2.1600    3.1500 c3        1 G7P     -0.347600
     13 P          -2.6620    3.6560    3.1980 p5        1 G7P      1.352600
     14 O3P        -1.9940    4.7380    2.4270 o         1 G7P     -0.887000
     15 O2P        -4.1300    3.4450    3.0950 o         1 G7P     -0.887000
     16 O1P        -2.3550    4.1680    4.7440 oh        1 G7P     -0.802400
     17 H1         -0.3400   -1.0860    0.4720 h2        1 G7P      0.040700
     18 H2          1.9310    0.7940   -0.5860 h1        1 G7P      0.043700
     19 HA         -0.7900    1.0480   -1.2310 ho        1 G7P      0.425000
     20 H3          1.9710   -1.1920    1.8120 h1        1 G7P      0.015700
     21 HB          1.4380   -1.2870   -1.5920 ho        1 G7P      0.387000
     22 H5         -0.2710    0.0840    2.7130 h1        1 G7P      0.014700
     23 H4          2.0770    1.9190    1.7860 h1        1 G7P     -0.067300
     24 HC          3.9070   -0.8490    0.7000 ho        1 G7P      0.354000
     25 HD         -1.7970    4.9360    4.7370 ho        1 G7P      0.411000
     26 H61C        0.1910    2.4280    3.7580 hc        1 G7P      0.067700
     27 H62C       -0.2660    3.1350    2.1420 hc        1 G7P      0.067700
     28 H71C       -2.0230    1.6270    4.1230 hc        1 G7P      0.061700
     29 H72C       -2.3880    1.5220    2.3770 hc        1 G7P      0.061700
@<TRIPOS>BOND
     1    1    2 1   
     2    1    7 1   
     3    1   11 1   
     4    1   17 1   
     5    2    3 1   
     6    2    8 1   
     7    2   18 1   
     8    3    4 1   
     9    3    9 1   
    10    3   20 1   
    11    4    5 1   
    12    4   10 1   
    13    4   23 1   
    14    5    6 1   
    15    5   11 1   
    16    5   22 1   
    17    6   12 1   
    18    6   26 1   
    19    6   27 1   
    20    7   19 1   
    21    8   21 1   
    22    9   24 1   
    23   12   13 1   
    24   12   28 1   
    25   12   29 1   
    26   13   14 1   
    27   13   15 1   
    28   13   16 1   
    29   16   25 1   
@<TRIPOS>SUBSTRUCTURE
     1 G7P         1 TEMP              0 ****  ****    0 ROOT
