@<TRIPOS>MOLECULE
G7P
   29    29     1     0     0
SMALL
bcc


@<TRIPOS>ATOM
      1 C1         -0.2120   -1.1010   -1.9230 c3        1 G7P      0.330900
      2 C2          1.2980   -1.1210   -1.9080 c3        1 G7P      0.053100
      3 C3          1.8470   -1.1450   -0.5330 c3        1 G7P      0.056100
      4 C4          1.2810   -0.0660    0.3180 c3        1 G7P      0.331100
      5 C5         -0.2440   -0.0460    0.2900 c3        1 G7P      0.074100
      6 C6         -0.7290    1.1840    1.0260 c3        1 G7P     -0.047400
      7 O1         -0.6450   -0.9090   -3.2230 oh        1 G7P     -0.658800
      8 O2          1.7550   -2.2940   -2.6110 oh        1 G7P     -0.635800
      9 O3          3.2990   -0.9800   -0.6010 oh        1 G7P     -0.581800
     10 O4          1.7130   -0.2640    1.6580 oh        1 G7P     -0.967800
     11 O5         -0.7760   -0.0250   -1.0620 os        1 G7P     -0.463600
     12 C7         -2.1400    0.9240    1.5890 c3        1 G7P     -0.353600
     13 P          -2.7480    2.4410    2.4460 p5        1 G7P      1.266700
     14 O3P        -1.8640    2.7330    3.6400 o         1 G7P     -0.763167
     15 O2P        -4.1780    2.2220    2.9160 o         1 G7P     -0.763167
     16 O1P        -2.7070    3.6130    1.4880 o         1 G7P     -0.763167
     17 H1         -0.5410   -1.9650   -1.6040 h2        1 G7P      0.040700
     18 H2          1.6340   -0.3190   -2.3720 h1        1 G7P      0.043700
     19 HA         -1.3650   -1.4200   -3.3760 ho        1 G7P      0.425000
     20 H3          1.6450   -2.0070   -0.1260 h1        1 G7P      0.015700
     21 HB          2.2340   -2.0490   -3.3120 ho        1 G7P      0.386000
     22 H5         -0.5810   -0.8460    0.7510 h1        1 G7P      0.014700
     23 H4          1.6130    0.7910    0.0030 h1        1 G7P     -0.067300
     24 HC          3.6930   -1.7770   -0.5250 ho        1 G7P      0.354000
     25 HD          2.4460    0.2090    1.8040 ho        1 G7P      0.408000
     26 H61C       -0.7590    1.9460    0.4060 hc        1 G7P      0.068200
     27 H62C       -0.1160    1.3860    1.7630 hc        1 G7P      0.068200
     28 H71C       -2.7470    0.6990    0.8570 hc        1 G7P      0.064700
     29 H72C       -2.1060    0.1860    2.2220 hc        1 G7P      0.064700
@<TRIPOS>BOND
     1    1    2 1   
     2    1    7 1   
     3    1   11 1   
     4    1   17 1   
     5    2    3 1   
     6    2    8 1   
     7    2   18 1   
     8    3    4 1   
     9    3    9 1   
    10    3   20 1   
    11    4    5 1   
    12    4   10 1   
    13    4   23 1   
    14    5    6 1   
    15    5   11 1   
    16    5   22 1   
    17    6   12 1   
    18    6   26 1   
    19    6   27 1   
    20    7   19 1   
    21    8   21 1   
    22    9   24 1   
    23   10   25 1   
    24   12   13 1   
    25   12   28 1   
    26   12   29 1   
    27   13   14 1   
    28   13   15 1   
    29   13   16 1   
@<TRIPOS>SUBSTRUCTURE
     1 G7P         1 TEMP              0 ****  ****    0 ROOT
