@<TRIPOS>MOLECULE
G7P
   29    29     1     0     0
SMALL
bcc


@<TRIPOS>ATOM
      1 C1          0.4150    0.4480   -0.0520 c3        1 G7P      0.330900
      2 C2          1.8940    0.1090    0.1800 c3        1 G7P      0.053100
      3 C3          2.0640   -0.5070    1.5720 c3        1 G7P      0.056100
      4 C4          1.4670    0.4240    2.7160 c3        1 G7P      0.420800
      5 C5          0.0160    0.8410    2.2650 c3        1 G7P      0.074100
      6 C6         -0.5270    1.9660    3.1420 c3        1 G7P     -0.047400
      7 O1          0.2540    1.1560   -1.2690 oh        1 G7P     -0.658800
      8 O2          2.3490   -0.8290   -0.7950 oh        1 G7P     -0.635800
      9 O3          3.4480   -0.6740    1.8290 oh        1 G7P     -0.581800
     10 O4          1.4490   -0.1910    3.8710 o         1 G7P     -0.856500
     11 O5         -0.0610    1.3470    0.9120 os        1 G7P     -0.463600
     12 C7         -2.0200    2.1200    3.0430 c3        1 G7P     -0.353600
     13 P          -2.5380    3.6850    3.3890 p5        1 G7P      1.352600
     14 O3P        -3.3900    3.6870    4.6070 o         1 G7P     -0.884500
     15 O2P        -1.5350    4.7560    3.1510 o         1 G7P     -0.884500
     16 O1P        -3.5510    3.9770    2.1020 oh        1 G7P     -0.807400
     17 H1         -0.2120   -0.4830   -0.1270 h2        1 G7P      0.040700
     18 H2          2.5140    1.0430    0.0970 h1        1 G7P      0.043700
     19 HA          0.1800    2.0950   -1.0510 ho        1 G7P      0.425000
     20 H3          1.5490   -1.5040    1.6060 h1        1 G7P      0.015700
     21 HB          2.0580   -0.4850   -1.6480 ho        1 G7P      0.386000
     22 H5         -0.6560   -0.0580    2.3270 h1        1 G7P      0.014700
     23 H4          2.0980    1.3690    2.6730 h1        1 G7P     -0.067300
     24 HC          3.7580   -1.3130    1.1760 ho        1 G7P      0.354000
     25 HD         -3.2340    4.7140    1.5950 ho        1 G7P      0.408000
     26 H61C       -0.2050    1.7060    4.1880 hc        1 G7P      0.068200
     27 H62C       -0.0440    2.9380    2.8530 hc        1 G7P      0.068200
     28 H71C       -2.5170    1.3890    3.7260 hc        1 G7P      0.064700
     29 H72C       -2.3420    1.8430    2.0060 hc        1 G7P      0.064700
@<TRIPOS>BOND
     1    1    2 1   
     2    1    7 1   
     3    1   11 1   
     4    1   17 1   
     5    2    3 1   
     6    2    8 1   
     7    2   18 1   
     8    3    4 1   
     9    3    9 1   
    10    3   20 1   
    11    4    5 1   
    12    4   10 1   
    13    4   23 1   
    14    5    6 1   
    15    5   11 1   
    16    5   22 1   
    17    6   12 1   
    18    6   26 1   
    19    6   27 1   
    20    7   19 1   
    21    8   21 1   
    22    9   24 1   
    23   12   13 1   
    24   12   28 1   
    25   12   29 1   
    26   13   14 1   
    27   13   15 1   
    28   13   16 1   
    29   16   25 1   
@<TRIPOS>SUBSTRUCTURE
     1 G7P         1 TEMP              0 ****  ****    0 ROOT
