@<TRIPOS>MOLECULE
G7P
   29    29     1     0     0
SMALL
bcc


@<TRIPOS>ATOM
      1 C1         -2.1550    1.3460   -0.2310 c3        1 G7P      0.330900
      2 C2         -3.3330    0.3750   -0.3820 c3        1 G7P      0.053100
      3 C3         -3.2470   -0.7040    0.7010 c3        1 G7P      0.056100
      4 C4         -1.8410   -1.4490    0.6960 c3        1 G7P      0.420800
      5 C5         -0.7270   -0.3360    0.6730 c3        1 G7P      0.074100
      6 C6          0.6420   -0.9380    0.3660 c3        1 G7P     -0.047400
      7 O1         -2.1260    2.2630   -1.3100 oh        1 G7P     -0.658800
      8 O2         -4.5720    1.0690   -0.2410 oh        1 G7P     -0.635800
      9 O3         -4.2520   -1.6750    0.4560 oh        1 G7P     -0.581800
     10 O4         -1.7120   -2.2320    1.7350 o         1 G7P     -0.856500
     11 O5         -0.9260    0.6810   -0.3370 os        1 G7P     -0.463600
     12 C7          1.7800   -0.0270    0.7350 c3        1 G7P     -0.353600
     13 P           3.1650   -0.3110   -0.1820 p5        1 G7P      1.352600
     14 O3P         4.2710   -0.7850    0.6890 o         1 G7P     -0.884500
     15 O2P         2.9300   -0.9120   -1.5220 o         1 G7P     -0.884500
     16 O1P         3.5590    1.2360   -0.6490 oh        1 G7P     -0.807400
     17 H1         -2.2410    1.9510    0.7140 h2        1 G7P      0.040700
     18 H2         -3.3020   -0.1020   -1.4000 h1        1 G7P      0.043700
     19 HA         -1.4650    1.9480   -1.9420 ho        1 G7P      0.425000
     20 H3         -3.4100   -0.2380    1.7090 h1        1 G7P      0.015700
     21 HB         -4.5070    1.8440   -0.8100 ho        1 G7P      0.386000
     22 H5         -0.7090    0.1810    1.6710 h1        1 G7P      0.014700
     23 H4         -1.7970   -1.9660   -0.3160 h1        1 G7P     -0.067300
     24 HC         -5.0920   -1.2110    0.5580 ho        1 G7P      0.354000
     25 HD          3.5360    1.3100   -1.5950 ho        1 G7P      0.408000
     26 H61C        0.6760   -1.9020    0.9460 hc        1 G7P      0.068200
     27 H62C        0.7130   -1.1800   -0.7290 hc        1 G7P      0.068200
     28 H71C        1.4520    1.0340    0.5920 hc        1 G7P      0.064700
     29 H72C        2.0090   -0.1370    1.8230 hc        1 G7P      0.064700
@<TRIPOS>BOND
     1    1    2 1   
     2    1    7 1   
     3    1   11 1   
     4    1   17 1   
     5    2    3 1   
     6    2    8 1   
     7    2   18 1   
     8    3    4 1   
     9    3    9 1   
    10    3   20 1   
    11    4    5 1   
    12    4   10 1   
    13    4   23 1   
    14    5    6 1   
    15    5   11 1   
    16    5   22 1   
    17    6   12 1   
    18    6   26 1   
    19    6   27 1   
    20    7   19 1   
    21    8   21 1   
    22    9   24 1   
    23   12   13 1   
    24   12   28 1   
    25   12   29 1   
    26   13   14 1   
    27   13   15 1   
    28   13   16 1   
    29   16   25 1   
@<TRIPOS>SUBSTRUCTURE
     1 G7P         1 TEMP              0 ****  ****    0 ROOT
