@<TRIPOS>MOLECULE
G7X
   72    75     1     0     0
SMALL
bcc


@<TRIPOS>ATOM
      1 CAN        -0.1110   -1.3330    1.0670 ca        1 G7X     -0.054500
      2 CAO         0.8880   -1.3570    0.1060 ca        1 G7X     -0.135000
      3 CAY         1.1900   -0.2080   -0.6510 ca        1 G7X      0.037700
      4 CAZ         2.2420   -0.2540   -1.6870 c3        1 G7X     -0.090800
      5 CAX         0.4720    0.9720   -0.4090 ca        1 G7X     -0.135000
      6 CAW        -0.5290    1.0070    0.5540 ca        1 G7X     -0.054500
      7 CAM        -0.8390   -0.1500    1.2970 ca        1 G7X     -0.236600
      8 CAL        -1.8950   -0.0180    2.2920 c         1 G7X      0.583700
      9 OAV        -2.2710    1.0110    2.8450 o         1 G7X     -0.470100
     10 NAK        -2.6230   -1.3050    2.6980 n4        1 G7X     -0.592200
     11 CAU        -2.2570   -1.7270    4.0830 c3        1 G7X      0.118800
     12 CBC        -2.0880   -0.5940    5.0970 c3        1 G7X     -0.136400
     13 CBD        -2.0460   -1.2020    6.4960 c3        1 G7X      0.102800
     14 NBE        -1.7970   -0.1870    7.5600 n4        1 G7X     -0.836600
     15 CAJ        -4.1160   -1.2550    2.3790 c3        1 G7X      0.112200
     16 CAB        -5.0470   -0.8290    3.5350 c3        1 G7X     -0.058700
     17 CAA        -5.3060    0.6650    3.4660 c3        1 G7X     -0.118100
     18 CAC        -6.3770   -1.5620    3.5260 c3        1 G7X     -0.118100
     19 CAI        -4.5400   -2.6350    1.8050 cc        1 G7X      0.454900
     20 NAH        -4.1050   -3.6960    2.4650 nd        1 G7X     -0.675100
     21 CAG        -4.4430   -4.9710    1.9960 ca        1 G7X      0.164400
     22 CAF        -4.0230   -6.1220    2.6970 ca        1 G7X     -0.124000
     23 CAE        -4.3690   -7.3830    2.2120 ca        1 G7X      0.057400
     24 CLD        -3.8650   -8.7590    3.0560 cl        1 G7X     -0.033400
     25 CAP        -5.1260   -7.5290    1.0380 ca        1 G7X     -0.115000
     26 CAQ        -5.5430   -6.4020    0.3410 ca        1 G7X     -0.040000
     27 CAR        -5.2070   -5.1260    0.8110 ca        1 G7X     -0.176600
     28 CAS        -5.6490   -3.9300    0.0740 c         1 G7X      0.709100
     29 OBA        -6.2760   -3.9590   -0.9930 o         1 G7X     -0.559500
     30 NAT        -5.3170   -2.6610    0.6470 n         1 G7X     -0.387300
     31 CBB        -5.8340   -1.4590    0.0110 c3        1 G7X      0.113300
     32 CBG        -4.8810   -0.7470   -0.9000 ca        1 G7X     -0.146300
     33 CBH        -4.3360   -1.4090   -2.0060 ca        1 G7X     -0.126000
     34 CBK        -3.5340   -0.7130   -2.9100 ca        1 G7X     -0.123500
     35 CBJ        -3.2840    0.6470   -2.7220 ca        1 G7X     -0.110000
     36 CBI        -3.8330    1.3110   -1.6230 ca        1 G7X     -0.123500
     37 CBF        -4.6260    0.6160   -0.7110 ca        1 G7X     -0.126000
     38 HAN        -0.2870   -2.2480    1.6530 ha        1 G7X      0.145500
     39 HAO         1.4600   -2.2840   -0.0700 ha        1 G7X      0.173500
     40 HAZ1        1.8020   -0.6170   -2.6530 hc        1 G7X      0.080033
     41 HAZ2        3.0650   -0.9540   -1.3960 hc        1 G7X      0.080033
     42 HAZ3        2.6820    0.7590   -1.8640 hc        1 G7X      0.080033
     43 HAX         0.7050    1.8820   -0.9880 ha        1 G7X      0.173500
     44 HAW        -1.0870    1.9420    0.7380 ha        1 G7X      0.145500
     45 HAU1       -1.2730   -2.2810    4.0030 hx        1 G7X      0.117200
     46 HAU2       -3.0330   -2.4650    4.4450 hx        1 G7X      0.117200
     47 HAJ        -4.1910   -0.4730    1.5540 hx        1 G7X      0.136700
     48 HBC1       -2.9330    0.1470    5.0130 hc        1 G7X      0.098700
     49 HBC2       -1.1380   -0.0340    4.8800 hc        1 G7X      0.098700
     50 HBD1       -1.2220   -1.9740    6.5610 hx        1 G7X      0.123700
     51 HBD2       -3.0300   -1.7070    6.7280 hx        1 G7X      0.123700
     52 HBE1       -2.5360    0.5270    7.5560 hn        1 G7X      0.473800
     53 HBE2       -0.8940    0.2780    7.4110 hn        1 G7X      0.473800
     54 HAB        -4.5670   -1.0670    4.5260 hc        1 G7X      0.033700
     55 HAA1       -5.8100    0.9330    2.5040 hc        1 G7X      0.064700
     56 HAA2       -5.9820    0.9700    4.3020 hc        1 G7X      0.064700
     57 HAA3       -4.3590    1.2510    3.5460 hc        1 G7X      0.064700
     58 HAC1       -6.2480   -2.6570    3.6970 hc        1 G7X      0.064700
     59 HAC2       -6.9300   -1.4040    2.5700 hc        1 G7X      0.064700
     60 HAC3       -7.0150   -1.1590    4.3540 hc        1 G7X      0.064700
     61 HAF        -3.4330   -6.0270    3.6210 ha        1 G7X      0.155000
     62 HAP        -5.3920   -8.5360    0.6720 ha        1 G7X      0.181000
     63 HAQ        -6.1400   -6.4980   -0.5830 ha        1 G7X      0.184000
     64 HBB1       -6.2040   -0.7520    0.8100 h1        1 G7X      0.090700
     65 HBB2       -6.7350   -1.7680   -0.6080 h1        1 G7X      0.090700
     66 HBH        -4.5730   -2.4720   -2.1770 ha        1 G7X      0.140500
     67 HBF        -5.0890    1.1570    0.1290 ha        1 G7X      0.140500
     68 HBK        -3.1210   -1.2340   -3.7890 ha        1 G7X      0.149500
     69 HBJ        -2.6750    1.2010   -3.4530 ha        1 G7X      0.151000
     70 HBI        -3.6620    2.3900   -1.4920 ha        1 G7X      0.149500
     71 HAK1       -2.2460   -2.0450    2.0770 hn        1 G7X      0.475800
     72 HBE3       -1.7860   -0.6470    8.4800 hn        1 G7X      0.473800
@<TRIPOS>BOND
     1    1    2 ar  
     2    1    7 ar  
     3    1   38 1   
     4    2    3 ar  
     5    2   39 1   
     6    3    4 1   
     7    3    5 ar  
     8    4   40 1   
     9    4   41 1   
    10    4   42 1   
    11    5    6 ar  
    12    5   43 1   
    13    6    7 ar  
    14    6   44 1   
    15    7    8 1   
    16    8    9 2   
    17    8   10 1   
    18   10   11 1   
    19   10   15 1   
    20   10   71 1   
    21   11   12 1   
    22   11   45 1   
    23   11   46 1   
    24   12   13 1   
    25   12   48 1   
    26   12   49 1   
    27   13   14 1   
    28   13   50 1   
    29   13   51 1   
    30   14   52 1   
    31   14   53 1   
    32   14   72 1   
    33   15   16 1   
    34   15   19 1   
    35   15   47 1   
    36   16   17 1   
    37   16   18 1   
    38   16   54 1   
    39   17   55 1   
    40   17   56 1   
    41   17   57 1   
    42   18   58 1   
    43   18   59 1   
    44   18   60 1   
    45   19   20 2   
    46   19   30 1   
    47   20   21 1   
    48   21   22 ar  
    49   21   27 ar  
    50   22   23 ar  
    51   22   61 1   
    52   23   24 1   
    53   23   25 ar  
    54   25   26 ar  
    55   25   62 1   
    56   26   27 ar  
    57   26   63 1   
    58   27   28 1   
    59   28   29 2   
    60   28   30 1   
    61   30   31 1   
    62   31   32 1   
    63   31   64 1   
    64   31   65 1   
    65   32   33 ar  
    66   32   37 ar  
    67   33   34 ar  
    68   33   66 1   
    69   34   35 ar  
    70   34   68 1   
    71   35   36 ar  
    72   35   69 1   
    73   36   37 ar  
    74   36   70 1   
    75   37   67 1   
@<TRIPOS>SUBSTRUCTURE
     1 G7X         1 TEMP              0 ****  ****    0 ROOT
