@<TRIPOS>MOLECULE
G7X
   70    73     1     0     0
SMALL
bcc


@<TRIPOS>ATOM
      1 CAN        -2.8940   -0.1790   -1.7430 ca        1 G7X     -0.089000
      2 CAO        -3.9070    0.1520   -2.6400 ca        1 G7X     -0.136000
      3 CAY        -5.2490   -0.0680   -2.3080 ca        1 G7X     -0.056300
      4 CAZ        -6.3260    0.3030   -3.2550 c3        1 G7X     -0.058800
      5 CAX        -5.5650   -0.6330   -1.0660 ca        1 G7X     -0.136000
      6 CAW        -4.5560   -0.9730   -0.1680 ca        1 G7X     -0.089000
      7 CAM        -3.2190   -0.7400   -0.5030 ca        1 G7X     -0.137600
      8 CAL        -2.1450   -1.1710    0.4370 c         1 G7X      0.680700
      9 OAV        -2.0200   -2.3720    0.7500 o         1 G7X     -0.602100
     10 NAK        -1.2610   -0.2020    0.9300 n         1 G7X     -0.460800
     11 CAU        -1.7040    1.1740    1.0020 c3        1 G7X      0.086000
     12 CBC        -2.8820    1.4290    1.9490 c3        1 G7X     -0.115400
     13 CBD        -3.3090    2.8910    1.8240 c3        1 G7X      0.161800
     14 NBE        -4.4260    3.2300    2.6730 n3        1 G7X     -0.915800
     15 CAJ        -0.0830   -0.6380    1.6570 c3        1 G7X      0.079400
     16 CAB        -0.0420   -0.2140    3.1460 c3        1 G7X     -0.078700
     17 CAA        -1.0990   -0.9760    3.9220 c3        1 G7X     -0.097100
     18 CAC         1.3170   -0.4730    3.7620 c3        1 G7X     -0.097100
     19 CAI         1.2320   -0.1440    0.9720 cc        1 G7X      0.508900
     20 NAH         1.3150    1.1550    0.7400 nd        1 G7X     -0.648100
     21 CAG         2.4660    1.6850    0.1600 ca        1 G7X      0.200400
     22 CAF         2.5500    3.0720   -0.1240 ca        1 G7X     -0.128000
     23 CAE         3.7110    3.5790   -0.6930 ca        1 G7X      0.053400
     24 CLD         3.8140    5.2420   -1.0340 cl        1 G7X     -0.086400
     25 CAP         4.8080    2.7520   -0.9950 ca        1 G7X     -0.155000
     26 CAQ         4.7340    1.3950   -0.7220 ca        1 G7X     -0.047000
     27 CAR         3.5730    0.8580   -0.1500 ca        1 G7X     -0.197600
     28 CAS         3.4800   -0.5830    0.1370 c         1 G7X      0.706100
     29 OBA         4.4230   -1.3720   -0.0670 o         1 G7X     -0.627500
     30 NAT         2.2590   -1.0620    0.6830 n         1 G7X     -0.386300
     31 CBB         2.1540   -2.4990    0.8930 c3        1 G7X      0.129300
     32 CBG         1.6600   -3.2860   -0.2860 ca        1 G7X     -0.127300
     33 CBH         2.4820   -3.4460   -1.4080 ca        1 G7X     -0.109500
     34 CBK         2.0560   -4.2230   -2.4830 ca        1 G7X     -0.135000
     35 CBJ         0.8100   -4.8490   -2.4430 ca        1 G7X     -0.121000
     36 CBI        -0.0090   -4.6950   -1.3250 ca        1 G7X     -0.135000
     37 CBF         0.4120   -3.9150   -0.2480 ca        1 G7X     -0.109500
     38 HAN        -1.8400   -0.0070   -2.0120 ha        1 G7X      0.145000
     39 HAO        -3.6490    0.5870   -3.6170 ha        1 G7X      0.137500
     40 HAZ1       -7.1880   -0.4040   -3.1750 hc        1 G7X      0.048033
     41 HAZ2       -6.6970    1.3340   -3.0220 hc        1 G7X      0.048033
     42 HAZ3       -5.9560    0.2940   -4.3090 hc        1 G7X      0.048033
     43 HAX        -6.6170   -0.8130   -0.8000 ha        1 G7X      0.137500
     44 HAW        -4.8060   -1.4320    0.8000 ha        1 G7X      0.145000
     45 HAU1       -0.8520    1.8320    1.3270 h1        1 G7X      0.071700
     46 HAU2       -2.0040    1.4930   -0.0390 h1        1 G7X      0.071700
     47 HAJ        -0.0990   -1.7720    1.6330 h1        1 G7X      0.103700
     48 HBC1       -3.7420    0.7560    1.6900 hc        1 G7X      0.053700
     49 HBC2       -2.5800    1.2050    3.0050 hc        1 G7X      0.053700
     50 HBD1       -2.4020    3.5380    2.0220 h1        1 G7X      0.026700
     51 HBD2       -3.6270    3.0870    0.7590 h1        1 G7X      0.026700
     52 HBE1       -4.2490    2.9720    3.6230 hn        1 G7X      0.349300
     53 HBE2       -4.6120    4.2120    2.6270 hn        1 G7X      0.349300
     54 HAB        -0.2570    0.8890    3.2190 hc        1 G7X      0.066700
     55 HAA1       -0.8550   -2.0660    3.9490 hc        1 G7X      0.041867
     56 HAA2       -1.1450   -0.5980    4.9720 hc        1 G7X      0.041867
     57 HAA3       -2.1070   -0.8570    3.4580 hc        1 G7X      0.041867
     58 HAC1        2.0940    0.1990    3.3260 hc        1 G7X      0.041867
     59 HAC2        1.2720   -0.2810    4.8620 hc        1 G7X      0.041867
     60 HAC3        1.6310   -1.5340    3.6070 hc        1 G7X      0.041867
     61 HAF         1.7000    3.7310    0.1080 ha        1 G7X      0.163000
     62 HAP         5.7160    3.1800   -1.4440 ha        1 G7X      0.154000
     63 HAQ         5.5790    0.7230   -0.9490 ha        1 G7X      0.164000
     64 HBB1        3.1950   -2.8720    1.1440 h1        1 G7X      0.076700
     65 HBB2        1.5100   -2.7020    1.7950 h1        1 G7X      0.076700
     66 HBH         3.4710   -2.9600   -1.4320 ha        1 G7X      0.154000
     67 HBF        -0.2520   -3.7910    0.6230 ha        1 G7X      0.154000
     68 HBK         2.7060   -4.3440   -3.3620 ha        1 G7X      0.134500
     69 HBJ         0.4740   -5.4640   -3.2920 ha        1 G7X      0.130000
     70 HBI        -0.9950   -5.1830   -1.2900 ha        1 G7X      0.134500
@<TRIPOS>BOND
     1    1    2 ar  
     2    1    7 ar  
     3    1   38 1   
     4    2    3 ar  
     5    2   39 1   
     6    3    4 1   
     7    3    5 ar  
     8    4   40 1   
     9    4   41 1   
    10    4   42 1   
    11    5    6 ar  
    12    5   43 1   
    13    6    7 ar  
    14    6   44 1   
    15    7    8 1   
    16    8    9 2   
    17    8   10 1   
    18   10   11 1   
    19   10   15 1   
    20   11   12 1   
    21   11   45 1   
    22   11   46 1   
    23   12   13 1   
    24   12   48 1   
    25   12   49 1   
    26   13   14 1   
    27   13   50 1   
    28   13   51 1   
    29   14   52 1   
    30   14   53 1   
    31   15   16 1   
    32   15   19 1   
    33   15   47 1   
    34   16   17 1   
    35   16   18 1   
    36   16   54 1   
    37   17   55 1   
    38   17   56 1   
    39   17   57 1   
    40   18   58 1   
    41   18   59 1   
    42   18   60 1   
    43   19   20 2   
    44   19   30 1   
    45   20   21 1   
    46   21   22 ar  
    47   21   27 ar  
    48   22   23 ar  
    49   22   61 1   
    50   23   24 1   
    51   23   25 ar  
    52   25   26 ar  
    53   25   62 1   
    54   26   27 ar  
    55   26   63 1   
    56   27   28 1   
    57   28   29 2   
    58   28   30 1   
    59   30   31 1   
    60   31   32 1   
    61   31   64 1   
    62   31   65 1   
    63   32   33 ar  
    64   32   37 ar  
    65   33   34 ar  
    66   33   66 1   
    67   34   35 ar  
    68   34   68 1   
    69   35   36 ar  
    70   35   69 1   
    71   36   37 ar  
    72   36   70 1   
    73   37   67 1   
@<TRIPOS>SUBSTRUCTURE
     1 G7X         1 TEMP              0 ****  ****    0 ROOT
