@<TRIPOS>MOLECULE
G7X
   72    75     1     0     0
SMALL
bcc


@<TRIPOS>ATOM
      1 CAN        -0.1090   -1.3310    1.0990 ca        1 G7X     -0.054500
      2 CAO         0.8950   -1.3490    0.1430 ca        1 G7X     -0.135000
      3 CAY         1.2020   -0.1950   -0.6030 ca        1 G7X      0.037700
      4 CAZ         2.2770   -0.2280   -1.6160 c3        1 G7X     -0.090800
      5 CAX         0.4840    0.9840   -0.3570 ca        1 G7X     -0.135000
      6 CAW        -0.5220    1.0130    0.6020 ca        1 G7X     -0.054500
      7 CAM        -0.8370   -0.1500    1.3340 ca        1 G7X     -0.236600
      8 CAL        -1.9010   -0.0250    2.3230 c         1 G7X      0.584700
      9 OAV        -2.2780    0.9990    2.8830 o         1 G7X     -0.470100
     10 NAK        -2.6340   -1.3140    2.7100 n4        1 G7X     -0.592200
     11 CAU        -2.2860   -1.7490    4.0950 c3        1 G7X      0.118800
     12 CBC        -2.1280   -0.6240    5.1220 c3        1 G7X     -0.136400
     13 CBD        -2.1040   -1.2450    6.5150 c3        1 G7X      0.102800
     14 NBE        -1.8690   -0.2400    7.5910 n4        1 G7X     -0.836600
     15 CAJ        -4.1240   -1.2600    2.3730 c3        1 G7X      0.112200
     16 CAB        -5.0680   -0.8410    3.5210 c3        1 G7X     -0.058700
     17 CAA        -5.3230    0.6540    3.4610 c3        1 G7X     -0.118100
     18 CAC        -6.3980   -1.5710    3.4910 c3        1 G7X     -0.118100
     19 CAI        -4.5430   -2.6350    1.7840 cc        1 G7X      0.454900
     20 NAH        -4.1170   -3.7010    2.4410 nd        1 G7X     -0.676100
     21 CAG        -4.4510   -4.9720    1.9580 ca        1 G7X      0.164400
     22 CAF        -4.0400   -6.1290    2.6540 ca        1 G7X     -0.124000
     23 CAE        -4.3820   -7.3860    2.1550 ca        1 G7X      0.057400
     24 CLD        -3.8890   -8.7690    2.9950 cl        1 G7X     -0.033400
     25 CAP        -5.1260   -7.5220    0.9720 ca        1 G7X     -0.115000
     26 CAQ        -5.5330   -6.3890    0.2800 ca        1 G7X     -0.040000
     27 CAR        -5.2020   -5.1170    0.7630 ca        1 G7X     -0.176600
     28 CAS        -5.6340   -3.9150    0.0300 c         1 G7X      0.709100
     29 OBA        -6.2500   -3.9340   -1.0440 o         1 G7X     -0.559500
     30 NAT        -5.3070   -2.6500    0.6170 n         1 G7X     -0.387300
     31 CBB        -5.8150   -1.4430   -0.0150 c3        1 G7X      0.113300
     32 CBG        -4.8500   -0.7250   -0.9100 ca        1 G7X     -0.146300
     33 CBH        -4.2920   -1.3800   -2.0130 ca        1 G7X     -0.126000
     34 CBK        -3.4800   -0.6780   -2.9040 ca        1 G7X     -0.123500
     35 CBJ        -3.2320    0.6800   -2.7030 ca        1 G7X     -0.110000
     36 CBI        -3.7930    1.3370   -1.6070 ca        1 G7X     -0.123500
     37 CBF        -4.5970    0.6370   -0.7090 ca        1 G7X     -0.126000
     38 HAN        -0.2900   -2.2510    1.6770 ha        1 G7X      0.145500
     39 HAO         1.4640   -2.2760   -0.0380 ha        1 G7X      0.173500
     40 HAZ1        2.1310    0.5660   -2.3900 hc        1 G7X      0.080033
     41 HAZ2        3.2680   -0.0530   -1.1190 hc        1 G7X      0.080033
     42 HAZ3        2.3160   -1.2220   -2.1280 hc        1 G7X      0.080033
     43 HAX         0.7190    1.8980   -0.9290 ha        1 G7X      0.173500
     44 HAW        -1.0800    1.9470    0.7910 ha        1 G7X      0.145500
     45 HAU1       -1.3020   -2.3030    4.0230 hx        1 G7X      0.117200
     46 HAU2       -3.0670   -2.4890    4.4420 hx        1 G7X      0.117200
     47 HAJ        -4.1880   -0.4720    1.5530 hx        1 G7X      0.136700
     48 HBC1       -1.1740   -0.0650    4.9210 hc        1 G7X      0.098700
     49 HBC2       -2.9700    0.1190    5.0330 hc        1 G7X      0.098700
     50 HBD1       -1.2830   -2.0190    6.5840 hx        1 G7X      0.123700
     51 HBD2       -3.0930   -1.7510    6.7300 hx        1 G7X      0.123700
     52 HBE1       -2.6060    0.4750    7.5840 hn        1 G7X      0.473800
     53 HBE2       -0.9630    0.2250    7.4580 hn        1 G7X      0.473800
     54 HAB        -4.6000   -1.0870    4.5160 hc        1 G7X      0.033700
     55 HAA1       -4.3760    1.2370    3.5560 hc        1 G7X      0.064700
     56 HAA2       -5.8150    0.9310    2.4950 hc        1 G7X      0.064700
     57 HAA3       -6.0090    0.9540    4.2910 hc        1 G7X      0.064700
     58 HAC1       -6.9400   -1.4050    2.5300 hc        1 G7X      0.064700
     59 HAC2       -7.0460   -1.1750    4.3150 hc        1 G7X      0.064700
     60 HAC3       -6.2740   -2.6680    3.6550 hc        1 G7X      0.064700
     61 HAF        -3.4610   -6.0420    3.5860 ha        1 G7X      0.155000
     62 HAP        -5.3890   -8.5250    0.5950 ha        1 G7X      0.181000
     63 HAQ        -6.1210   -6.4770   -0.6520 ha        1 G7X      0.184000
     64 HBB1       -6.1930   -0.7420    0.7850 h1        1 G7X      0.090700
     65 HBB2       -6.7090   -1.7460   -0.6480 h1        1 G7X      0.090700
     66 HBH        -4.5280   -2.4420   -2.1950 ha        1 G7X      0.140500
     67 HBF        -5.0700    1.1710    0.1300 ha        1 G7X      0.140500
     68 HBK        -3.0560   -1.1930   -3.7800 ha        1 G7X      0.149500
     69 HBJ        -2.6140    1.2400   -3.4220 ha        1 G7X      0.151000
     70 HBI        -3.6240    2.4160   -1.4660 ha        1 G7X      0.149500
     71 HAK1       -2.2510   -2.0500    2.0870 hn        1 G7X      0.475800
     72 HBE3       -1.8690   -0.7080    8.5080 hn        1 G7X      0.473800
@<TRIPOS>BOND
     1    1    2 ar  
     2    1    7 ar  
     3    1   38 1   
     4    2    3 ar  
     5    2   39 1   
     6    3    4 1   
     7    3    5 ar  
     8    4   40 1   
     9    4   41 1   
    10    4   42 1   
    11    5    6 ar  
    12    5   43 1   
    13    6    7 ar  
    14    6   44 1   
    15    7    8 1   
    16    8    9 2   
    17    8   10 1   
    18   10   11 1   
    19   10   15 1   
    20   10   71 1   
    21   11   12 1   
    22   11   45 1   
    23   11   46 1   
    24   12   13 1   
    25   12   48 1   
    26   12   49 1   
    27   13   14 1   
    28   13   50 1   
    29   13   51 1   
    30   14   52 1   
    31   14   53 1   
    32   14   72 1   
    33   15   16 1   
    34   15   19 1   
    35   15   47 1   
    36   16   17 1   
    37   16   18 1   
    38   16   54 1   
    39   17   55 1   
    40   17   56 1   
    41   17   57 1   
    42   18   58 1   
    43   18   59 1   
    44   18   60 1   
    45   19   20 2   
    46   19   30 1   
    47   20   21 1   
    48   21   22 ar  
    49   21   27 ar  
    50   22   23 ar  
    51   22   61 1   
    52   23   24 1   
    53   23   25 ar  
    54   25   26 ar  
    55   25   62 1   
    56   26   27 ar  
    57   26   63 1   
    58   27   28 1   
    59   28   29 2   
    60   28   30 1   
    61   30   31 1   
    62   31   32 1   
    63   31   64 1   
    64   31   65 1   
    65   32   33 ar  
    66   32   37 ar  
    67   33   34 ar  
    68   33   66 1   
    69   34   35 ar  
    70   34   68 1   
    71   35   36 ar  
    72   35   69 1   
    73   36   37 ar  
    74   36   70 1   
    75   37   67 1   
@<TRIPOS>SUBSTRUCTURE
     1 G7X         1 TEMP              0 ****  ****    0 ROOT
