@<TRIPOS>MOLECULE
G7X
   70    65     1     0     0
SMALL
bcc


@<TRIPOS>ATOM
      1 CAN         2.5120    0.2660   -2.7180 c1        1 G7X     -0.072000
      2 CAO         2.9960    0.2450   -4.0070 c1        1 G7X     -0.152000
      3 CAY         2.6020    1.2320   -4.9180 c1        1 G7X     -0.040000
      4 CAZ         3.1320    1.2020   -6.3750 c2        1 G7X     -0.185000
      5 CAX         1.7300    2.2230   -4.5260 c2        1 G7X     -0.147000
      6 CAW         1.2480    2.2460   -3.2460 c1        1 G7X     -0.079000
      7 CAM         1.6400    1.2580   -2.3270 c1        1 G7X     -0.127000
      8 CAL         1.0080    1.2300   -0.8850 c2        1 G7X      0.344000
      9 OAV         0.2380    2.1100   -0.5460 o         1 G7X     -0.285000
     10 NAK         1.4720    0.2350    0.1090 n         1 G7X     -0.315000
     11 CAU         2.8470    0.2890    0.6150 c3        1 G7X     -0.061000
     12 CBC         3.4080    1.7280    0.4490 c3        1 G7X     -0.167000
     13 CBD         4.8680    1.7730    0.9380 c3        1 G7X     -0.077000
     14 NBE         5.6190    2.6560    0.1140 n3        1 G7X     -0.347000
     15 CAJ         0.5530   -0.7680    0.6200 c3        1 G7X      0.078000
     16 CAB         0.1230   -1.7000   -0.5130 c3        1 G7X     -0.094000
     17 CAA         1.3480   -2.3920   -1.1110 c3        1 G7X     -0.223500
     18 CAC        -0.6050   -0.8690   -1.6250 c3        1 G7X     -0.223500
     19 CAI        -0.6820   -0.0860    1.2120 c2        1 G7X      0.089000
     20 NAH        -0.9670    1.3180    0.8970 n1        1 G7X     -0.180000
     21 CAG        -2.2150    1.9660    1.4090 c1        1 G7X      0.055000
     22 CAF        -2.4970    3.2960    1.0730 c2        1 G7X     -0.117000
     23 CAE        -3.6640    3.8900    1.5230 c1        1 G7X     -0.028000
     24 CLD        -4.3810    5.4610    1.6030 cl        1 G7X     -0.006000
     25 CAP        -4.5610    3.1600    2.3140 c2        1 G7X     -0.152000
     26 CAQ        -4.2790    1.8380    2.6470 c1        1 G7X     -0.052000
     27 CAR        -3.1030    1.2410    2.1930 c1        1 G7X     -0.176000
     28 CAS        -2.7970   -0.2320    2.5360 c2        1 G7X      0.342000
     29 OBA        -3.6030   -0.8920    3.1810 o         1 G7X     -0.356000
     30 NAT        -1.6140   -0.8530    2.0210 n         1 G7X     -0.284000
     31 CBB        -1.2910   -2.2290    2.4000 c3        1 G7X      0.004000
     32 CBG        -2.6020   -3.0100    2.6530 c2        1 G7X     -0.109000
     33 CBH        -2.6250   -4.0330    3.5580 c2        1 G7X     -0.125000
     34 CBK        -3.7920   -4.7780    3.7380 c1        1 G7X     -0.133000
     35 CBJ        -4.9470   -4.4740    2.9840 c1        1 G7X     -0.125000
     36 CBI        -4.9230   -3.4450    2.0730 c1        1 G7X     -0.125000
     37 CBF        -3.7650   -2.7050    1.8950 c1        1 G7X     -0.106000
     38 HAN         2.7900   -0.4320   -2.0730 ha        1 G7X      0.148000
     39 HAO         3.5900   -0.4310   -4.2750 ha        1 G7X      0.135000
     40 HAZ1        4.0590    0.8930   -6.3790 ha        1 G7X      0.087667
     41 HAZ2        2.5860    0.5940   -6.9080 ha        1 G7X      0.087667
     42 HAZ3        3.0850    2.1180   -6.7640 ha        1 G7X      0.087667
     43 HAX         1.4620    2.8910   -5.1460 ha        1 G7X      0.138000
     44 HAW         0.6380    2.9430   -2.9760 ha        1 G7X      0.155000
     45 HAU1        3.4040   -0.3410    0.1100 h1        1 G7X      0.088500
     46 HAU2        2.8560    0.0450    1.5600 h1        1 G7X      0.088500
     47 HAJ         1.0280   -1.3230    1.3610 h1        1 G7X      0.110000
     48 HBC1        3.3720    1.9880   -0.5060 hc        1 G7X      0.094500
     49 HBC2        2.8450    2.3790    1.0020 hc        1 G7X      0.094500
     50 HBD1        4.8900    2.0990    1.8740 h1        1 G7X      0.065000
     51 HBD2        5.2600    0.8680    0.8930 h1        1 G7X      0.065000
     52 HBE1        6.2350    2.1860   -0.3480 hn        1 G7X      0.145000
     53 HBE2        6.0610    3.3090    0.6640 hn        1 G7X      0.145000
     54 HAB        -0.4820   -2.3680   -0.1660 hc        1 G7X      0.100000
     55 HAA1        1.1100   -3.3410   -1.3520 hc        1 G7X      0.085500
     56 HAA2        1.6340   -1.9120   -1.9190 hc        1 G7X      0.085500
     57 HAA3        2.0710   -2.3950   -0.4600 hc        1 G7X      0.085500
     58 HAC1       -0.7780    0.0510   -1.2920 hc        1 G7X      0.085500
     59 HAC2       -0.0100   -0.8250   -2.4700 hc        1 G7X      0.085500
     60 HAC3       -1.4950   -1.3190   -1.8590 hc        1 G7X      0.085500
     61 HAF        -1.9200    3.7730    0.4190 ha        1 G7X      0.174000
     62 HAP        -5.4040    3.5880    2.6400 ha        1 G7X      0.153000
     63 HAQ        -4.8780    1.3500    3.1760 ha        1 G7X      0.162000
     64 HBB1       -0.7360   -2.2260    3.2320 h1        1 G7X      0.116000
     65 HBB2       -0.8000   -2.6500    1.6900 h1        1 G7X      0.116000
     66 HBH        -1.8320   -4.2420    4.0740 ha        1 G7X      0.130000
     67 HBF        -3.7480   -1.9500    1.2270 ha        1 G7X      0.154000
     68 HBK        -3.8100   -5.4920    4.3690 ha        1 G7X      0.133000
     69 HBJ        -5.7680   -4.9990    3.1100 ha        1 G7X      0.135500
     70 HBI        -5.7490   -3.2270    1.5340 ha        1 G7X      0.135500
@<TRIPOS>BOND
     1    1    7 1   
     2    1   38 1   
     3    2    3 1   
     4    2   39 1   
     5    3    5 1   
     6    4   40 1   
     7    4   41 1   
     8    4   42 1   
     9    5    6 1   
    10    5   43 1   
    11    6   44 1   
    12    7    8 1   
    13    8    9 1   
    14    8   10 1   
    15   10   11 1   
    16   10   15 1   
    17   11   12 1   
    18   11   45 1   
    19   11   46 1   
    20   12   13 1   
    21   12   48 1   
    22   12   49 1   
    23   13   14 1   
    24   13   50 1   
    25   13   51 1   
    26   14   52 1   
    27   14   53 1   
    28   15   16 1   
    29   15   19 1   
    30   15   47 1   
    31   16   17 1   
    32   16   18 1   
    33   16   54 1   
    34   17   55 1   
    35   17   56 1   
    36   17   57 1   
    37   18   58 1   
    38   18   59 1   
    39   18   60 1   
    40   19   20 1   
    41   19   30 1   
    42   21   22 1   
    43   21   27 1   
    44   22   23 1   
    45   22   61 1   
    46   23   25 1   
    47   25   26 1   
    48   25   62 1   
    49   26   63 1   
    50   27   28 1   
    51   28   29 1   
    52   28   30 1   
    53   30   31 1   
    54   31   32 1   
    55   31   64 1   
    56   31   65 1   
    57   32   33 1   
    58   32   37 1   
    59   33   34 1   
    60   33   66 1   
    61   34   68 1   
    62   35   36 1   
    63   35   69 1   
    64   36   70 1   
    65   37   67 1   
@<TRIPOS>SUBSTRUCTURE
     1 G7X         1 TEMP              0 ****  ****    0 ROOT
