@<TRIPOS>MOLECULE
G7X
   72    75     1     0     0
SMALL
bcc


@<TRIPOS>ATOM
      1 CAN        -0.8370   -1.1680    0.3250 ca        1 G7X     -0.051500
      2 CAO         0.1460   -1.1750   -0.6540 ca        1 G7X     -0.137500
      3 CAY         1.0880   -0.1350   -0.7400 ca        1 G7X      0.039700
      4 CAZ         2.1230   -0.1470   -1.7940 c3        1 G7X     -0.090800
      5 CAX         1.0150    0.9240    0.1770 ca        1 G7X     -0.137500
      6 CAW         0.0350    0.9420    1.1590 ca        1 G7X     -0.051500
      7 CAM        -0.8950   -0.1170    1.2580 ca        1 G7X     -0.236600
      8 CAL        -1.8800   -0.0030    2.3250 c         1 G7X      0.586700
      9 OAV        -2.1710    1.0060    2.9590 o         1 G7X     -0.479100
     10 NAK        -2.5910   -1.2910    2.7590 nx        1 G7X     -0.591200
     11 CAU        -2.2570   -1.6740    4.1640 c3        1 G7X      0.120800
     12 CBC        -2.1630   -0.5330    5.1780 c3        1 G7X     -0.133400
     13 CBD        -2.1680   -1.1360    6.5800 c3        1 G7X      0.100800
     14 NBE        -1.9830   -0.1140    7.6500 nz        1 G7X     -0.836600
     15 CAJ        -4.0750   -1.2680    2.3960 c3        1 G7X      0.109200
     16 CAB        -5.0380   -0.8260    3.5190 c3        1 G7X     -0.059700
     17 CAA        -5.2770    0.6700    3.4320 c3        1 G7X     -0.118600
     18 CAC        -6.3740   -1.5460    3.4760 c3        1 G7X     -0.118600
     19 CAI        -4.4740   -2.6600    1.8380 cc        1 G7X      0.451900
     20 NAH        -4.0410   -3.7040    2.5240 nd        1 G7X     -0.673100
     21 CAG        -4.3590   -4.9910    2.0730 ca        1 G7X      0.162400
     22 CAF        -3.9390   -6.1250    2.8000 ca        1 G7X     -0.123000
     23 CAE        -4.2680   -7.3980    2.3340 ca        1 G7X      0.057400
     24 ClD        -3.7630   -8.7540    3.2090 cl        1 G7X     -0.032400
     25 CAP        -5.0080   -7.5720    1.1530 ca        1 G7X     -0.115000
     26 CAQ        -5.4250   -6.4610    0.4300 ca        1 G7X     -0.040000
     27 CAR        -5.1060   -5.1740    0.8810 ca        1 G7X     -0.177600
     28 CAS        -5.5480   -3.9960    0.1160 c         1 G7X      0.708100
     29 OBA        -6.1630   -4.0500   -0.9570 o         1 G7X     -0.560500
     30 NAT        -5.2310   -2.7120    0.6670 n         1 G7X     -0.388300
     31 CBB        -5.7570   -1.5290    0.0050 c3        1 G7X      0.113300
     32 CBG        -4.8160   -0.8400   -0.9380 ca        1 G7X     -0.147300
     33 CBH        -4.3340   -1.5150   -2.0640 ca        1 G7X     -0.127000
     34 CBK        -3.5460   -0.8400   -2.9970 ca        1 G7X     -0.122000
     35 CBJ        -3.2450    0.5100   -2.8130 ca        1 G7X     -0.109000
     36 CBI        -3.7310    1.1860   -1.6930 ca        1 G7X     -0.122000
     37 CBF        -4.5130    0.5140   -0.7550 ca        1 G7X     -0.127000
     38 HAN        -1.5780   -1.9830    0.3120 ha        1 G7X      0.148500
     39 HAO         0.1850   -2.0020   -1.3840 ha        1 G7X      0.173500
     40 HAZ1        1.7380    0.3840   -2.7050 hc        1 G7X      0.080367
     41 HAZ2        3.0530    0.3760   -1.4560 hc        1 G7X      0.080367
     42 HAZ3        2.3900   -1.1930   -2.0900 hc        1 G7X      0.080367
     43 HAX         1.7400    1.7540    0.1120 ha        1 G7X      0.173500
     44 HAW        -0.0250    1.7880    1.8650 ha        1 G7X      0.148500
     45 HAU1       -3.0200   -2.4360    4.5060 hx        1 G7X      0.118200
     46 HAU2       -1.2520   -2.1930    4.1260 hx        1 G7X      0.118200
     47 HAJ        -4.1360   -0.5030    1.5530 hx        1 G7X      0.135700
     48 HBC1       -3.0190    0.1890    5.0550 hc        1 G7X      0.098700
     49 HBC2       -1.2170    0.0480    5.0010 hc        1 G7X      0.098700
     50 HBD1       -3.1520   -1.6580    6.7730 hx        1 G7X      0.123200
     51 HBD2       -1.3340   -1.8930    6.6830 hx        1 G7X      0.123200
     52 HBE1       -1.0820    0.3670    7.5370 hn        1 G7X      0.473800
     53 HBE2       -2.7320    0.5880    7.6110 hn        1 G7X      0.473800
     54 HAB        -4.5920   -1.0660    4.5250 hc        1 G7X      0.034700
     55 HAA1       -5.7690    0.9340    2.4620 hc        1 G7X      0.064867
     56 HAA2       -4.3230    1.2440    3.5120 hc        1 G7X      0.064867
     57 HAA3       -5.9580    0.9930    4.2580 hc        1 G7X      0.064867
     58 HAC1       -6.9070   -1.3760    2.5110 hc        1 G7X      0.064867
     59 HAC2       -6.2590   -2.6440    3.6390 hc        1 G7X      0.064867
     60 HAC3       -7.0250   -1.1450    4.2940 hc        1 G7X      0.064867
     61 HAF        -3.3610   -6.0080    3.7300 ha        1 G7X      0.156000
     62 HAP        -5.2610   -8.5870    0.8010 ha        1 G7X      0.181000
     63 HAQ        -6.0100   -6.5790   -0.5000 ha        1 G7X      0.184000
     64 HBB1       -6.1180   -0.7990    0.7870 h1        1 G7X      0.090200
     65 HBB2       -6.6650   -1.8570   -0.5940 h1        1 G7X      0.090200
     66 HBH        -4.6100   -2.5700   -2.2280 ha        1 G7X      0.140000
     67 HBF        -4.9300    1.0670    0.1010 ha        1 G7X      0.140000
     68 HBK        -3.1850   -1.3700   -3.8920 ha        1 G7X      0.151000
     69 HBJ        -2.6440    1.0480   -3.5630 ha        1 G7X      0.152000
     70 HBI        -3.5170    2.2580   -1.5620 ha        1 G7X      0.151000
     71 HAK1       -2.1780   -2.0480    2.1850 hn        1 G7X      0.473800
     72 HBE3       -2.0020   -0.5690    8.5720 hn        1 G7X      0.473800
@<TRIPOS>BOND
     1    1    2 ar  
     2    1    7 ar  
     3    1   38 1   
     4    2    3 ar  
     5    2   39 1   
     6    3    4 1   
     7    3    5 ar  
     8    4   40 1   
     9    4   41 1   
    10    4   42 1   
    11    5    6 ar  
    12    5   43 1   
    13    6    7 ar  
    14    6   44 1   
    15    7    8 1   
    16    8    9 2   
    17    8   10 1   
    18   10   11 1   
    19   10   15 1   
    20   10   71 1   
    21   11   12 1   
    22   11   45 1   
    23   11   46 1   
    24   12   13 1   
    25   12   48 1   
    26   12   49 1   
    27   13   14 1   
    28   13   50 1   
    29   13   51 1   
    30   14   52 1   
    31   14   53 1   
    32   14   72 1   
    33   15   16 1   
    34   15   19 1   
    35   15   47 1   
    36   16   17 1   
    37   16   18 1   
    38   16   54 1   
    39   17   55 1   
    40   17   56 1   
    41   17   57 1   
    42   18   58 1   
    43   18   59 1   
    44   18   60 1   
    45   19   20 2   
    46   19   30 1   
    47   20   21 1   
    48   21   22 ar  
    49   21   27 ar  
    50   22   23 ar  
    51   22   61 1   
    52   23   24 1   
    53   23   25 ar  
    54   25   26 ar  
    55   25   62 1   
    56   26   27 ar  
    57   26   63 1   
    58   27   28 1   
    59   28   29 2   
    60   28   30 1   
    61   30   31 1   
    62   31   32 1   
    63   31   64 1   
    64   31   65 1   
    65   32   33 ar  
    66   32   37 ar  
    67   33   34 ar  
    68   33   66 1   
    69   34   35 ar  
    70   34   68 1   
    71   35   36 ar  
    72   35   69 1   
    73   36   37 ar  
    74   36   70 1   
    75   37   67 1   
@<TRIPOS>SUBSTRUCTURE
     1 G7X         1 TEMP              0 ****  ****    0 ROOT
