@<TRIPOS>MOLECULE
G80
   76    79     1     0     0
SMALL
bcc


@<TRIPOS>ATOM
      1 O1         -0.5820    0.1000    0.4950 o         1 G80     -0.528100
      2 O2          3.8390    1.8230    4.9440 oh        1 G80     -0.599800
      3 C1          2.8880    0.2660    1.4670 c3        1 G80     -0.081400
      4 C2          1.8210    0.3890    0.3910 c3        1 G80     -0.193400
      5 C3          0.4990    0.1390    1.0800 c         1 G80      0.576100
      6 C4          0.7500    0.0070    2.5770 c3        1 G80     -0.157700
      7 C5         -0.2740   -0.8150    3.3740 c3        1 G80     -0.016000
      8 C6         -0.1530   -2.2770    2.9080 c3        1 G80     -0.057700
      9 C7          1.2600   -2.8050    3.1020 c3        1 G80     -0.082400
     10 C8          2.2750   -1.9760    2.3510 c3        1 G80     -0.073400
     11 C9          2.2210   -0.4720    2.6520 c3        1 G80     -0.036000
     12 C10         2.9490   -0.1620    3.9660 c3        1 G80     -0.049700
     13 C11         2.6050    1.2260    4.5470 c3        1 G80      0.156100
     14 C12         1.6330    1.1910    5.7590 c3        1 G80     -0.042800
     15 C13         0.2100    0.7800    5.3660 c3        1 G80     -0.087400
     16 C14        -0.0010   -0.6600    4.8940 c3        1 G80      0.155100
     17 C15        -1.6730   -0.2870    3.0640 c3        1 G80     -0.095100
     18 C16        -1.1460   -3.2240    3.5430 c3        1 G80     -0.089100
     19 C17         4.4540   -0.3130    3.8010 c3        1 G80     -0.080100
     20 C18         1.5160    2.6210    6.3080 c3        1 G80     -0.099100
     21 C19         2.2030    0.3300    6.8440 c2        1 G80     -0.168200
     22 C20         1.5950    0.0500    7.9940 c2        1 G80     -0.205000
     23 O3         -1.1930   -1.1150    5.5870 os        1 G80     -0.448900
     24 C21        -1.0730   -2.0390    6.5870 c         1 G80      0.642100
     25 O4          0.0180   -2.5660    6.8100 o         1 G80     -0.529000
     26 C22        -2.3780   -2.3290    7.2580 c3        1 G80     -0.080300
     27 S1         -2.6680   -1.3350    8.6830 ss        1 G80     -0.269200
     28 C23        -3.8410   -0.1020    8.1250 c3        1 G80      0.017400
     29 C24        -3.2370    0.9850    7.2640 c3        1 G80     -0.075900
     30 C25        -2.3420    1.9330    8.0610 c3        1 G80      0.159800
     31 C27        -3.5340    1.4330   10.1100 c3        1 G80      0.159800
     32 C26        -4.4700    0.4710    9.3790 c3        1 G80     -0.075900
     33 N1         -2.9880    2.4620    9.2460 n3        1 G80     -0.816200
     34 H11A        3.7800   -0.2980    1.1010 hc        1 G80      0.054700
     35 H12         3.2310    1.2790    1.7960 hc        1 G80      0.054700
     36 H21         1.8200    1.4030   -0.0820 hc        1 G80      0.075700
     37 H22         1.9670   -0.3650   -0.4240 hc        1 G80      0.075700
     38 H4          0.6860    1.0750    2.9320 hc        1 G80      0.075700
     39 H6         -0.3660   -2.2600    1.7960 hc        1 G80      0.055700
     40 H71         1.3050   -3.8600    2.7190 hc        1 G80      0.050200
     41 H72         1.5160   -2.8510    4.1930 hc        1 G80      0.050200
     42 H81         2.0960   -2.1150    1.2490 hc        1 G80      0.044700
     43 H82         3.3010   -2.3720    2.5670 hc        1 G80      0.044700
     44 H10         2.6350   -0.9420    4.7170 hc        1 G80      0.067700
     45 H11         2.1520    1.8840    3.7510 h1        1 G80      0.028700
     46 H131       -0.4360    0.9260    6.2810 hc        1 G80      0.055700
     47 H132       -0.1790    1.5010    4.6000 hc        1 G80      0.055700
     48 H14         0.8650   -1.3020    5.2080 h1        1 G80      0.095700
     49 H151       -2.4140   -0.6460    3.8190 hc        1 G80      0.047367
     50 H152       -2.0080   -0.6300    2.0550 hc        1 G80      0.047367
     51 H153       -1.6770    0.8300    3.0740 hc        1 G80      0.047367
     52 H161       -1.1480   -4.1940    2.9890 hc        1 G80      0.036367
     53 H162       -0.8730   -3.4300    4.6070 hc        1 G80      0.036367
     54 H163       -2.1760   -2.7950    3.5150 hc        1 G80      0.036367
     55 H171        4.8700    0.4990    3.1590 hc        1 G80      0.041033
     56 H172        4.9450   -0.2450    4.8030 hc        1 G80      0.041033
     57 H173        4.7150   -1.2980    3.3470 hc        1 G80      0.041033
     58 H181        0.6950    2.6750    7.0640 hc        1 G80      0.039700
     59 H182        2.4640    2.9270    6.8110 hc        1 G80      0.039700
     60 H183        1.2900    3.3370    5.4820 hc        1 G80      0.039700
     61 H19         3.2280   -0.0320    6.6460 ha        1 G80      0.137000
     62 H201        0.5830    0.3990    8.2420 ha        1 G80      0.114500
     63 H202        2.0690   -0.5740    8.7640 ha        1 G80      0.114500
     64 H221       -3.2090   -2.2250    6.5150 h1        1 G80      0.105200
     65 H222       -2.3440   -3.3900    7.6190 h1        1 G80      0.105200
     66 H23        -4.6280   -0.6340    7.5270 h1        1 G80      0.066700
     67 H241       -4.0720    1.5720    6.7940 hc        1 G80      0.062450
     68 H242       -2.6310    0.5280    6.4360 hc        1 G80      0.062450
     69 H251       -2.0700    2.8080    7.4050 h1        1 G80      0.034450
     70 H252       -1.3840    1.3840    8.3100 h1        1 G80      0.034450
     71 H271       -2.7230    0.8210   10.6060 h1        1 G80      0.034450
     72 H272       -4.1150    1.9530   10.9240 h1        1 G80      0.034450
     73 H261       -5.4100    1.0110    9.0890 hc        1 G80      0.062450
     74 H262       -4.7520   -0.3560   10.0820 hc        1 G80      0.062450
     75 HN1        -2.3390    3.0280    9.7620 hn        1 G80      0.362800
     76 HO2         3.6580    2.7510    5.1300 ho        1 G80      0.399000
@<TRIPOS>BOND
     1    1    5 2   
     2    2   13 1   
     3    2   76 1   
     4    3    4 1   
     5    3   11 1   
     6    3   34 1   
     7    3   35 1   
     8    4    5 1   
     9    4   36 1   
    10    4   37 1   
    11    5    6 1   
    12    6    7 1   
    13    6   11 1   
    14    6   38 1   
    15    7    8 1   
    16    7   16 1   
    17    7   17 1   
    18    8    9 1   
    19    8   18 1   
    20    8   39 1   
    21    9   10 1   
    22    9   40 1   
    23    9   41 1   
    24   10   11 1   
    25   10   42 1   
    26   10   43 1   
    27   11   12 1   
    28   12   13 1   
    29   12   19 1   
    30   12   44 1   
    31   13   14 1   
    32   13   45 1   
    33   14   15 1   
    34   14   20 1   
    35   14   21 1   
    36   15   16 1   
    37   15   46 1   
    38   15   47 1   
    39   16   23 1   
    40   16   48 1   
    41   17   49 1   
    42   17   50 1   
    43   17   51 1   
    44   18   52 1   
    45   18   53 1   
    46   18   54 1   
    47   19   55 1   
    48   19   56 1   
    49   19   57 1   
    50   20   58 1   
    51   20   59 1   
    52   20   60 1   
    53   21   22 2   
    54   21   61 1   
    55   22   62 1   
    56   22   63 1   
    57   23   24 1   
    58   24   25 2   
    59   24   26 1   
    60   26   27 1   
    61   26   64 1   
    62   26   65 1   
    63   27   28 1   
    64   28   29 1   
    65   28   32 1   
    66   28   66 1   
    67   29   30 1   
    68   29   67 1   
    69   29   68 1   
    70   30   33 1   
    71   30   69 1   
    72   30   70 1   
    73   31   32 1   
    74   31   33 1   
    75   31   71 1   
    76   31   72 1   
    77   32   73 1   
    78   32   74 1   
    79   33   75 1   
@<TRIPOS>SUBSTRUCTURE
     1 G80         1 TEMP              0 ****  ****    0 ROOT
