@<TRIPOS>MOLECULE
G80
   76    79     1     0     0
SMALL
bcc


@<TRIPOS>ATOM
      1 O1         -0.5720    0.0980    0.4950 o         1 G80     -0.528100
      2 O2          3.6710    1.9990    5.0010 oh        1 G80     -0.599800
      3 C1          2.8730    0.3280    1.5340 c3        1 G80     -0.083400
      4 C2          1.8250    0.4410    0.4390 c3        1 G80     -0.193400
      5 C3          0.4960    0.1590    1.1000 c         1 G80      0.577100
      6 C4          0.7210    0.0210    2.6000 c3        1 G80     -0.158700
      7 C5         -0.3050   -0.8260    3.3670 c3        1 G80     -0.014000
      8 C6         -0.1490   -2.2840    2.8990 c3        1 G80     -0.059700
      9 C7          1.2700   -2.7880    3.1090 c3        1 G80     -0.081400
     10 C8          2.2870   -1.9310    2.3930 c3        1 G80     -0.074400
     11 C9          2.1990   -0.4320    2.7030 c3        1 G80     -0.032000
     12 C10         2.9030   -0.1100    4.0290 c3        1 G80     -0.080700
     13 C11         2.5180    1.2650    4.6140 c3        1 G80      0.154100
     14 C12         1.5160    1.2080    5.8010 c3        1 G80     -0.045800
     15 C13         0.1110    0.7580    5.3830 c3        1 G80     -0.090400
     16 C14        -0.0530   -0.6790    4.8900 c3        1 G80      0.150100
     17 C15        -1.7090   -0.3230    3.0410 c3        1 G80     -0.095100
     18 C16        -1.1310   -3.2470    3.5270 c3        1 G80     -0.086100
     19 C17         4.4130   -0.2050    3.8610 c3        1 G80     -0.091100
     20 C18         1.3460    2.6450    6.3120 c3        1 G80     -0.089100
     21 C19         2.0400    0.3370    6.9020 c2        1 G80     -0.174200
     22 C20         2.9400    0.7080    7.8110 c2        1 G80     -0.227000
     23 O3         -1.2280   -1.1960    5.5670 os        1 G80     -0.444900
     24 C21        -1.0560   -2.0270    6.6390 c         1 G80      0.644100
     25 O4          0.0790   -2.3890    6.9540 o         1 G80     -0.540000
     26 C22        -2.3530   -2.4280    7.2670 c3        1 G80     -0.081300
     27 S1         -2.7520   -1.4810    8.6970 ss        1 G80     -0.265200
     28 C23        -3.9420   -0.2770    8.1130 c3        1 G80      0.016400
     29 C24        -3.3490    0.8260    7.2640 c3        1 G80     -0.075900
     30 C25        -2.4850    1.7880    8.0770 c3        1 G80      0.158800
     31 C27        -3.7010    1.2590   10.1060 c3        1 G80      0.158800
     32 C26        -4.6050    0.2800    9.3560 c3        1 G80     -0.075900
     33 N1         -3.1620    2.3010    9.2530 n3        1 G80     -0.816200
     34 H11A        3.7820   -0.2150    1.1810 hc        1 G80      0.056700
     35 H12         3.1910    1.3450    1.8780 hc        1 G80      0.056700
     36 H21         1.8140    1.4600   -0.0240 hc        1 G80      0.076200
     37 H22         2.0020   -0.3010   -0.3800 hc        1 G80      0.076200
     38 H4          0.6310    1.0840    2.9650 hc        1 G80      0.078700
     39 H6         -0.3500   -2.2700    1.7850 hc        1 G80      0.057700
     40 H71         1.5090   -2.8500    4.2030 hc        1 G80      0.047700
     41 H72         1.3410   -3.8360    2.7080 hc        1 G80      0.047700
     42 H81         2.1410   -2.0660    1.2850 hc        1 G80      0.044200
     43 H82         3.3140   -2.3110    2.6350 hc        1 G80      0.044200
     44 H10         2.6150   -0.9050    4.7720 hc        1 G80      0.062700
     45 H11         2.0810    1.9270    3.8100 h1        1 G80      0.071700
     46 H131       -0.5460    0.8770    6.2940 hc        1 G80      0.058200
     47 H132       -0.2910    1.4740    4.6200 hc        1 G80      0.058200
     48 H14         0.8320   -1.3070    5.1800 h1        1 G80      0.088700
     49 H151       -2.4500   -0.7010    3.7870 hc        1 G80      0.048367
     50 H152       -2.0240   -0.6670    2.0260 hc        1 G80      0.048367
     51 H153       -1.7340    0.7930    3.0570 hc        1 G80      0.048367
     52 H161       -2.1730   -2.8520    3.4550 hc        1 G80      0.035367
     53 H162       -0.8880   -3.4150    4.6040 hc        1 G80      0.035367
     54 H163       -1.0850   -4.2310    3.0000 hc        1 G80      0.035367
     55 H171        4.7010   -1.1100    3.2770 hc        1 G80      0.040367
     56 H172        4.9020   -0.2720    4.8630 hc        1 G80      0.040367
     57 H173        4.8130    0.6970    3.3360 hc        1 G80      0.040367
     58 H181        2.3350    3.0910    6.5730 hc        1 G80      0.042033
     59 H182        0.6940    2.6540    7.2170 hc        1 G80      0.042033
     60 H183        0.8780    3.2790    5.5210 hc        1 G80      0.042033
     61 H19         1.6090   -0.6820    6.9440 ha        1 G80      0.149000
     62 H201        3.3920    1.7080    7.8490 ha        1 G80      0.114500
     63 H202        3.2780    0.0200    8.5980 ha        1 G80      0.114500
     64 H221       -3.1700   -2.3780    6.5050 h1        1 G80      0.106200
     65 H222       -2.2460   -3.4890    7.6170 h1        1 G80      0.106200
     66 H23        -4.7050   -0.8280    7.5010 h1        1 G80      0.066700
     67 H241       -2.7210    0.3840    6.4430 hc        1 G80      0.061450
     68 H242       -4.1890    1.3960    6.7840 hc        1 G80      0.061450
     69 H251       -2.2210    2.6710    7.4290 h1        1 G80      0.036200
     70 H252       -1.5210    1.2590    8.3410 h1        1 G80      0.036200
     71 H271       -2.8860    0.6620   10.6140 h1        1 G80      0.036200
     72 H272       -4.3070    1.7640   10.9100 h1        1 G80      0.036200
     73 H261       -5.5510    0.8010    9.0510 hc        1 G80      0.061450
     74 H262       -4.8820   -0.5550   10.0530 hc        1 G80      0.061450
     75 HN1        -2.5330    2.8780    9.7810 hn        1 G80      0.363800
     76 HO2         4.0750    1.5370    5.7480 ho        1 G80      0.404000
@<TRIPOS>BOND
     1    1    5 2   
     2    2   13 1   
     3    2   76 1   
     4    3    4 1   
     5    3   11 1   
     6    3   34 1   
     7    3   35 1   
     8    4    5 1   
     9    4   36 1   
    10    4   37 1   
    11    5    6 1   
    12    6    7 1   
    13    6   11 1   
    14    6   38 1   
    15    7    8 1   
    16    7   16 1   
    17    7   17 1   
    18    8    9 1   
    19    8   18 1   
    20    8   39 1   
    21    9   10 1   
    22    9   40 1   
    23    9   41 1   
    24   10   11 1   
    25   10   42 1   
    26   10   43 1   
    27   11   12 1   
    28   12   13 1   
    29   12   19 1   
    30   12   44 1   
    31   13   14 1   
    32   13   45 1   
    33   14   15 1   
    34   14   20 1   
    35   14   21 1   
    36   15   16 1   
    37   15   46 1   
    38   15   47 1   
    39   16   23 1   
    40   16   48 1   
    41   17   49 1   
    42   17   50 1   
    43   17   51 1   
    44   18   52 1   
    45   18   53 1   
    46   18   54 1   
    47   19   55 1   
    48   19   56 1   
    49   19   57 1   
    50   20   58 1   
    51   20   59 1   
    52   20   60 1   
    53   21   22 2   
    54   21   61 1   
    55   22   62 1   
    56   22   63 1   
    57   23   24 1   
    58   24   25 2   
    59   24   26 1   
    60   26   27 1   
    61   26   64 1   
    62   26   65 1   
    63   27   28 1   
    64   28   29 1   
    65   28   32 1   
    66   28   66 1   
    67   29   30 1   
    68   29   67 1   
    69   29   68 1   
    70   30   33 1   
    71   30   69 1   
    72   30   70 1   
    73   31   32 1   
    74   31   33 1   
    75   31   71 1   
    76   31   72 1   
    77   32   73 1   
    78   32   74 1   
    79   33   75 1   
@<TRIPOS>SUBSTRUCTURE
     1 G80         1 TEMP              0 ****  ****    0 ROOT
