@<TRIPOS>MOLECULE
G80
   76    79     1     0     0
SMALL
bcc


@<TRIPOS>ATOM
      1 O1          5.3260   -6.4360    5.9730 o         1 G80     -0.528100
      2 O2          9.5400   -2.0600    3.6510 oh        1 G80     -0.599800
      3 C1          8.4390   -4.6600    6.3800 c3        1 G80     -0.081400
      4 C2          7.6380   -5.9470    6.5030 c3        1 G80     -0.193400
      5 C3          6.2590   -5.6350    5.9680 c         1 G80      0.576100
      6 C4          6.2670   -4.2220    5.3990 c3        1 G80     -0.157700
      7 C5          4.9180   -3.4900    5.3630 c3        1 G80     -0.016000
      8 C6          4.4940   -3.2350    6.8210 c3        1 G80     -0.057700
      9 C7          5.5460   -2.4320    7.5700 c3        1 G80     -0.082400
     10 C8          6.8850   -3.1320    7.5760 c3        1 G80     -0.073400
     11 C9          7.4050   -3.5260    6.1870 c3        1 G80     -0.036000
     12 C10         8.0440   -2.3170    5.4900 c3        1 G80     -0.049700
     13 C11         8.2230   -2.5070    3.9690 c3        1 G80      0.156100
     14 C12         7.1900   -1.7370    3.1010 c3        1 G80     -0.042800
     15 C13         5.7750   -2.3160    3.2100 c3        1 G80     -0.087400
     16 C14         5.0590   -2.1720    4.5540 c3        1 G80      0.155100
     17 C15         3.8910   -4.3880    4.6740 c3        1 G80     -0.095100
     18 C16         3.1410   -2.5790    6.9760 c3        1 G80     -0.089100
     19 C17         9.3700   -1.9560    6.1430 c3        1 G80     -0.080100
     20 C18         7.5950   -1.9070    1.6290 c3        1 G80     -0.099100
     21 C19         7.2410   -0.2760    3.4250 c2        1 G80     -0.168200
     22 C20         6.4480    0.6520    2.8940 c2        1 G80     -0.205000
     23 O3          3.7150   -1.7330    4.2230 os        1 G80     -0.448900
     24 C21         3.3420   -0.4490    4.5070 c         1 G80      0.642100
     25 O4          4.0980    0.2830    5.1470 o         1 G80     -0.529000
     26 C22         1.9640   -0.1320    4.0190 c3        1 G80     -0.080300
     27 S1          1.9400    0.5850    2.4100 ss        1 G80     -0.269200
     28 C23         1.4300   -0.7590    1.3410 c3        1 G80      0.017400
     29 C24         2.5100   -1.7810    1.0690 c3        1 G80     -0.075900
     30 C25         3.6150   -1.2380    0.1640 c3        1 G80      0.159800
     31 C27         2.1020    0.3830   -0.8120 c3        1 G80      0.159800
     32 C26         0.9480   -0.1100    0.0590 c3        1 G80     -0.075900
     33 N1          3.1080   -0.6340   -1.0530 n3        1 G80     -0.816200
     34 H11A        9.0650   -4.4750    7.2860 hc        1 G80      0.054700
     35 H12         9.1200   -4.7070    5.4930 hc        1 G80      0.054700
     36 H21         7.5600   -6.2830    7.5680 hc        1 G80      0.075700
     37 H22         8.0970   -6.7810    5.9170 hc        1 G80      0.075700
     38 H4          6.5970   -4.3880    4.3340 hc        1 G80      0.075700
     39 H6          4.4310   -4.2580    7.3010 hc        1 G80      0.055700
     40 H71         5.2060   -2.3010    8.6330 hc        1 G80      0.050200
     41 H72         5.6380   -1.4030    7.1360 hc        1 G80      0.050200
     42 H81         7.6350   -2.4790    8.0920 hc        1 G80      0.044700
     43 H82         6.7890   -4.0700    8.1890 hc        1 G80      0.044700
     44 H10         7.3620   -1.4350    5.6540 hc        1 G80      0.067700
     45 H11         8.1640   -3.6010    3.7000 h1        1 G80      0.028700
     46 H131        5.7950   -3.3910    2.8930 hc        1 G80      0.055700
     47 H132        5.1440   -1.7820    2.4410 hc        1 G80      0.055700
     48 H14         5.5540   -1.3780    5.1750 h1        1 G80      0.095700
     49 H151        3.5620   -5.2050    5.3610 hc        1 G80      0.047367
     50 H152        2.9900   -3.8040    4.3680 hc        1 G80      0.047367
     51 H153        4.3350   -4.8520    3.7610 hc        1 G80      0.047367
     52 H161        2.8110   -2.6440    8.0420 hc        1 G80      0.036367
     53 H162        3.1880   -1.5000    6.6910 hc        1 G80      0.036367
     54 H163        2.3790   -3.0850    6.3370 hc        1 G80      0.036367
     55 H171        9.7330   -0.9820    5.7290 hc        1 G80      0.041033
     56 H172        9.2640   -1.8530    7.2470 hc        1 G80      0.041033
     57 H173       10.1460   -2.7290    5.9280 hc        1 G80      0.041033
     58 H181        6.7860   -1.5200    0.9620 hc        1 G80      0.039700
     59 H182        8.5240   -1.3280    1.4090 hc        1 G80      0.039700
     60 H183        7.7690   -2.9840    1.3940 hc        1 G80      0.039700
     61 H19         8.0500    0.0070    4.1220 ha        1 G80      0.137000
     62 H201        6.5430    1.7140    3.1550 ha        1 G80      0.114500
     63 H202        5.6410    0.4210    2.1860 ha        1 G80      0.114500
     64 H221        1.5290    0.6380    4.7100 h1        1 G80      0.105200
     65 H222        1.3330   -1.0550    4.0610 h1        1 G80      0.105200
     66 H23         0.5670   -1.2760    1.8400 h1        1 G80      0.066700
     67 H241        2.0390   -2.6760    0.5810 hc        1 G80      0.062450
     68 H242        2.9710   -2.1200    2.0360 hc        1 G80      0.062450
     69 H251        4.2390   -0.5120    0.7690 h1        1 G80      0.034450
     70 H252        4.2870   -2.0910   -0.1380 h1        1 G80      0.034450
     71 H271        1.6910    0.6910   -1.8150 h1        1 G80      0.034450
     72 H272        2.5390    1.3050   -0.3230 h1        1 G80      0.034450
     73 H261        0.2810    0.7610    0.2940 hc        1 G80      0.062450
     74 H262        0.3410   -0.8620   -0.5130 hc        1 G80      0.062450
     75 HN1         3.8670   -0.2420   -1.5790 hn        1 G80      0.362800
     76 HO2         9.7260   -2.3460    2.7490 ho        1 G80      0.399000
@<TRIPOS>BOND
     1    1    5 2   
     2    2   13 1   
     3    2   76 1   
     4    3    4 1   
     5    3   11 1   
     6    3   34 1   
     7    3   35 1   
     8    4    5 1   
     9    4   36 1   
    10    4   37 1   
    11    5    6 1   
    12    6    7 1   
    13    6   11 1   
    14    6   38 1   
    15    7    8 1   
    16    7   16 1   
    17    7   17 1   
    18    8    9 1   
    19    8   18 1   
    20    8   39 1   
    21    9   10 1   
    22    9   40 1   
    23    9   41 1   
    24   10   11 1   
    25   10   42 1   
    26   10   43 1   
    27   11   12 1   
    28   12   13 1   
    29   12   19 1   
    30   12   44 1   
    31   13   14 1   
    32   13   45 1   
    33   14   15 1   
    34   14   20 1   
    35   14   21 1   
    36   15   16 1   
    37   15   46 1   
    38   15   47 1   
    39   16   23 1   
    40   16   48 1   
    41   17   49 1   
    42   17   50 1   
    43   17   51 1   
    44   18   52 1   
    45   18   53 1   
    46   18   54 1   
    47   19   55 1   
    48   19   56 1   
    49   19   57 1   
    50   20   58 1   
    51   20   59 1   
    52   20   60 1   
    53   21   22 2   
    54   21   61 1   
    55   22   62 1   
    56   22   63 1   
    57   23   24 1   
    58   24   25 2   
    59   24   26 1   
    60   26   27 1   
    61   26   64 1   
    62   26   65 1   
    63   27   28 1   
    64   28   29 1   
    65   28   32 1   
    66   28   66 1   
    67   29   30 1   
    68   29   67 1   
    69   29   68 1   
    70   30   33 1   
    71   30   69 1   
    72   30   70 1   
    73   31   32 1   
    74   31   33 1   
    75   31   71 1   
    76   31   72 1   
    77   32   73 1   
    78   32   74 1   
    79   33   75 1   
@<TRIPOS>SUBSTRUCTURE
     1 G80         1 TEMP              0 ****  ****    0 ROOT
