@<TRIPOS>MOLECULE
G80
   76    79     1     0     0
SMALL
bcc


@<TRIPOS>ATOM
      1 O1         -0.5650    0.0380    0.4910 o         1 G80     -0.528100
      2 O2          3.6660    2.0060    4.9800 oh        1 G80     -0.599800
      3 C1          2.8780    0.2900    1.5340 c3        1 G80     -0.083400
      4 C2          1.8320    0.3870    0.4350 c3        1 G80     -0.193400
      5 C3          0.5030    0.1090    1.0970 c         1 G80      0.577100
      6 C4          0.7250   -0.0090    2.5990 c3        1 G80     -0.158700
      7 C5         -0.3000   -0.8490    3.3740 c3        1 G80     -0.014000
      8 C6         -0.1400   -2.3130    2.9250 c3        1 G80     -0.059700
      9 C7          1.2810   -2.8100    3.1440 c3        1 G80     -0.081400
     10 C8          2.2970   -1.9600    2.4190 c3        1 G80     -0.074400
     11 C9          2.2040   -0.4570    2.7100 c3        1 G80     -0.032000
     12 C10         2.9040   -0.1170    4.0330 c3        1 G80     -0.080700
     13 C11         2.5150    1.2640    4.6010 c3        1 G80      0.154100
     14 C12         1.5120    1.2190    5.7860 c3        1 G80     -0.045800
     15 C13         0.1080    0.7600    5.3720 c3        1 G80     -0.090400
     16 C14        -0.0510   -0.6830    4.8960 c3        1 G80      0.150100
     17 C15        -1.7050   -0.3540    3.0410 c3        1 G80     -0.095100
     18 C16        -1.1200   -3.2700    3.5630 c3        1 G80     -0.086100
     19 C17         4.4150   -0.2100    3.8690 c3        1 G80     -0.091100
     20 C18         1.3360    2.6630    6.2790 c3        1 G80     -0.089100
     21 C19         2.0350    0.3640    6.8990 c2        1 G80     -0.174200
     22 C20         2.9330    0.7480    7.8050 c2        1 G80     -0.227000
     23 O3         -1.2260   -1.1940    5.5780 os        1 G80     -0.444900
     24 C21        -1.0540   -2.0120    6.6600 c         1 G80      0.644100
     25 O4          0.0820   -2.3660    6.9810 o         1 G80     -0.540000
     26 C22        -2.3510   -2.4080    7.2910 c3        1 G80     -0.081300
     27 S1         -2.7540   -1.4450    8.7080 ss        1 G80     -0.265200
     28 C23        -3.9460   -0.2510    8.1080 c3        1 G80      0.016400
     29 C24        -3.3540    0.8430    7.2470 c3        1 G80     -0.075900
     30 C25        -2.4940    1.8170    8.0500 c3        1 G80      0.158800
     31 C27        -3.7120    1.3090   10.0830 c3        1 G80      0.158800
     32 C26        -4.6120    0.3190    9.3440 c3        1 G80     -0.075900
     33 N1         -3.1740    2.3420    9.2190 n7        1 G80     -0.816200
     34 H11A        3.1930    1.3120    1.8650 hc        1 G80      0.056700
     35 H12         3.7890   -0.2550    1.1880 hc        1 G80      0.056700
     36 H21         1.8190    1.3990   -0.0400 hc        1 G80      0.076200
     37 H22         2.0130   -0.3660   -0.3740 hc        1 G80      0.076200
     38 H4          0.6320    1.0580    2.9500 hc        1 G80      0.078700
     39 H6         -0.3390   -2.3120    1.8110 hc        1 G80      0.057700
     40 H71         1.5170   -2.8580    4.2390 hc        1 G80      0.047700
     41 H72         1.3540   -3.8630    2.7560 hc        1 G80      0.047700
     42 H81         2.1530   -2.1080    1.3130 hc        1 G80      0.044200
     43 H82         3.3240   -2.3330    2.6680 hc        1 G80      0.044200
     44 H10         2.6170   -0.9030    4.7860 hc        1 G80      0.062700
     45 H11         2.0780    1.9150    3.7880 h1        1 G80      0.071700
     46 H131       -0.5510    0.8890    6.2800 hc        1 G80      0.058200
     47 H132       -0.2940    1.4660    4.5990 hc        1 G80      0.058200
     48 H14         0.8350   -1.3040    5.1960 h1        1 G80      0.088700
     49 H151       -1.7330    0.7620    3.0420 hc        1 G80      0.048367
     50 H152       -2.0170   -0.7120    2.0290 hc        1 G80      0.048367
     51 H153       -2.4460   -0.7240    3.7890 hc        1 G80      0.048367
     52 H161       -2.1630   -2.8790    3.4850 hc        1 G80      0.035367
     53 H162       -1.0700   -4.2610    3.0490 hc        1 G80      0.035367
     54 H163       -0.8780   -3.4240    4.6430 hc        1 G80      0.035367
     55 H171        4.7070   -1.1210    3.2970 hc        1 G80      0.040367
     56 H172        4.9030   -0.2630    4.8730 hc        1 G80      0.040367
     57 H173        4.8140    0.6860    3.3340 hc        1 G80      0.040367
     58 H181        0.8680    3.2860    5.4800 hc        1 G80      0.042033
     59 H182        2.3240    3.1140    6.5370 hc        1 G80      0.042033
     60 H183        0.6820    2.6810    7.1830 hc        1 G80      0.042033
     61 H19         1.6070   -0.6550    6.9530 ha        1 G80      0.149000
     62 H201        3.3830    1.7500    7.8310 ha        1 G80      0.114500
     63 H202        3.2720    0.0710    8.6010 ha        1 G80      0.114500
     64 H221       -3.1670   -2.3700    6.5260 h1        1 G80      0.106200
     65 H222       -2.2420   -3.4640    7.6540 h1        1 G80      0.106200
     66 H23        -4.7070   -0.8100    7.5010 h1        1 G80      0.066700
     67 H241       -2.7240    0.3930    6.4330 hc        1 G80      0.061450
     68 H242       -4.1950    1.4060    6.7590 hc        1 G80      0.061450
     69 H251       -1.5290    1.2930    8.3220 h1        1 G80      0.036200
     70 H252       -2.2310    2.6930    7.3920 h1        1 G80      0.036200
     71 H271       -2.8970    0.7200   10.6000 h1        1 G80      0.036200
     72 H272       -4.3210    1.8230   10.8800 h1        1 G80      0.036200
     73 H261       -4.8890   -0.5070   10.0500 hc        1 G80      0.061450
     74 H262       -5.5590    0.8350    9.0300 hc        1 G80      0.061450
     75 HN1        -2.5470    2.9260    9.7420 hn        1 G80      0.363800
     76 HO2         4.0690    1.5550    5.7340 ho        1 G80      0.404000
@<TRIPOS>BOND
     1    1    5 2   
     2    2   13 1   
     3    2   76 1   
     4    3    4 1   
     5    3   11 1   
     6    3   34 1   
     7    3   35 1   
     8    4    5 1   
     9    4   36 1   
    10    4   37 1   
    11    5    6 1   
    12    6    7 1   
    13    6   11 1   
    14    6   38 1   
    15    7    8 1   
    16    7   16 1   
    17    7   17 1   
    18    8    9 1   
    19    8   18 1   
    20    8   39 1   
    21    9   10 1   
    22    9   40 1   
    23    9   41 1   
    24   10   11 1   
    25   10   42 1   
    26   10   43 1   
    27   11   12 1   
    28   12   13 1   
    29   12   19 1   
    30   12   44 1   
    31   13   14 1   
    32   13   45 1   
    33   14   15 1   
    34   14   20 1   
    35   14   21 1   
    36   15   16 1   
    37   15   46 1   
    38   15   47 1   
    39   16   23 1   
    40   16   48 1   
    41   17   49 1   
    42   17   50 1   
    43   17   51 1   
    44   18   52 1   
    45   18   53 1   
    46   18   54 1   
    47   19   55 1   
    48   19   56 1   
    49   19   57 1   
    50   20   58 1   
    51   20   59 1   
    52   20   60 1   
    53   21   22 2   
    54   21   61 1   
    55   22   62 1   
    56   22   63 1   
    57   23   24 1   
    58   24   25 2   
    59   24   26 1   
    60   26   27 1   
    61   26   64 1   
    62   26   65 1   
    63   27   28 1   
    64   28   29 1   
    65   28   32 1   
    66   28   66 1   
    67   29   30 1   
    68   29   67 1   
    69   29   68 1   
    70   30   33 1   
    71   30   69 1   
    72   30   70 1   
    73   31   32 1   
    74   31   33 1   
    75   31   71 1   
    76   31   72 1   
    77   32   73 1   
    78   32   74 1   
    79   33   75 1   
@<TRIPOS>SUBSTRUCTURE
     1 G80         1 TEMP              0 ****  ****    0 ROOT
