@<TRIPOS>MOLECULE
G81
   71    72     1     0     0
SMALL
bcc


@<TRIPOS>ATOM
      1 O35         1.9920   -0.6290    1.5480 o         1 G81     -0.617000
      2 C31         2.6470   -0.5520    0.4920 c         1 G81      0.748100
      3 O1          3.7880   -1.2900    0.2990 os        1 G81     -0.441900
      4 C1          4.1860   -2.2640    1.3000 c3        1 G81      0.186800
      5 C2          3.1070   -3.3180    1.4860 c3        1 G81     -0.114433
      6 C4          5.4370   -2.8850    0.6800 c3        1 G81     -0.114433
      7 C6          4.5290   -1.5750    2.6100 c3        1 G81     -0.114433
      8 N33         2.3290    0.2060   -0.6190 n         1 G81     -0.530900
      9 C37         1.3940    1.3020   -0.5000 c3        1 G81      0.044700
     10 C41         1.7160    2.4630   -1.4570 c3        1 G81     -0.047100
     11 C51         3.0810    3.0060   -1.2340 ca        1 G81     -0.094300
     12 C53         4.1360    2.6340   -2.0760 ca        1 G81     -0.127000
     13 C7          5.4140    3.1540   -1.8730 ca        1 G81     -0.126000
     14 C9          5.6480    4.0470   -0.8280 ca        1 G81     -0.127000
     15 C11         4.6010    4.4220    0.0130 ca        1 G81     -0.126000
     16 C55         3.3220    3.9050   -0.1880 ca        1 G81     -0.127000
     17 C39        -0.0610    0.8360   -0.7880 c         1 G81      0.651100
     18 O47        -0.7090    1.3240   -1.7340 o         1 G81     -0.613100
     19 N49        -0.5910   -0.0880    0.0770 n         1 G81     -0.562900
     20 C57        -1.9040   -0.6670   -0.1150 c3        1 G81      0.096700
     21 C59        -1.9390   -2.1370    0.3520 c3        1 G81     -0.077400
     22 C61        -3.0420   -2.9230   -0.3280 c3        1 G81     -0.139700
     23 C73        -3.2830   -4.2780    0.3540 c3        1 G81     -0.093400
     24 C71        -3.0700   -5.3510   -0.7370 c3        1 G81      0.090000
     25 N69        -2.6670   -4.6530   -1.9330 n         1 G81     -0.584900
     26 C65        -2.6900   -3.2740   -1.7800 c         1 G81      0.693500
     27 O66        -2.4630   -2.4720   -2.6970 o         1 G81     -0.621500
     28 C63        -3.0090    0.1110    0.6230 c3        1 G81     -0.092400
     29 C82        -3.1970    1.4930    0.0370 c3        1 G81     -0.129400
     30 C84        -4.4980    2.0890    0.4750 c         1 G81      0.634100
     31 O88        -5.5610    1.5250    0.7460 o         1 G81     -0.556000
     32 O86        -4.4530    3.4530    0.5580 os        1 G81     -0.442900
     33 C3         -5.6750    4.1170    0.9260 c3        1 G81      0.138400
     34 C5         -5.3730    5.5950    0.9190 c3        1 G81     -0.100100
     35 H33         2.9980    0.2570   -1.3550 hn        1 G81      0.333500
     36 H21C        2.7960   -3.7270    0.4950 hc        1 G81      0.052700
     37 H22C        3.5070   -4.1500    2.1130 hc        1 G81      0.052700
     38 H23C        2.2150   -2.8780    1.9930 hc        1 G81      0.052700
     39 H41C        6.2080   -2.1000    0.5020 hc        1 G81      0.052700
     40 H42C        5.8450   -3.6530    1.3780 hc        1 G81      0.052700
     41 H43C        5.1850   -3.3670   -0.2940 hc        1 G81      0.052700
     42 H61C        3.6090   -1.1530    3.0830 hc        1 G81      0.052700
     43 H62C        4.9910   -2.3130    3.3070 hc        1 G81      0.052700
     44 H63C        5.2530   -0.7450    2.4270 hc        1 G81      0.052700
     45 H37         1.4150    1.6960    0.5630 h1        1 G81      0.079700
     46 H411        1.5910    2.1180   -2.5190 hc        1 G81      0.081700
     47 H412        0.9440    3.2600   -1.2830 hc        1 G81      0.081700
     48 H53         3.9540    1.9380   -2.9080 ha        1 G81      0.133000
     49 H55         2.4960    4.2050    0.4740 ha        1 G81      0.133000
     50 H7          6.2370    2.8590   -2.5400 ha        1 G81      0.133500
     51 H9          6.6560    4.4570   -0.6680 ha        1 G81      0.133000
     52 H11         4.7820    5.1290    0.8370 ha        1 G81      0.133500
     53 H49        -0.0420   -0.4220    0.8380 hn        1 G81      0.337500
     54 H57        -2.1320   -0.6390   -1.2280 h1        1 G81      0.108700
     55 H591       -0.9570   -2.6380    0.1410 hc        1 G81      0.055700
     56 H592       -2.1010   -2.1650    1.4620 hc        1 G81      0.055700
     57 H631       -3.9700   -0.4630    0.5320 hc        1 G81      0.056700
     58 H632       -2.7690    0.1880    1.7150 hc        1 G81      0.056700
     59 H61        -3.9910   -2.3240   -0.3490 hc        1 G81      0.090700
     60 H731       -2.5700   -4.4410    1.1980 hc        1 G81      0.058700
     61 H732       -4.3210   -4.3370    0.7590 hc        1 G81      0.058700
     62 H711       -2.2670   -6.0770   -0.4310 h1        1 G81      0.041700
     63 H712       -4.0160   -5.9330   -0.9120 h1        1 G81      0.041700
     64 H69        -2.6070   -5.1050   -2.8080 hn        1 G81      0.330500
     65 H821       -2.3530    2.1700    0.3320 hc        1 G81      0.094200
     66 H822       -3.1980    1.4470   -1.0880 hc        1 G81      0.094200
     67 H31C       -6.4700    3.8470    0.1830 h1        1 G81      0.049700
     68 H32C       -5.9860    3.7570    1.9410 h1        1 G81      0.049700
     69 H51C       -4.5650    5.8350    1.6500 hc        1 G81      0.047033
     70 H52C       -5.0370    5.9220   -0.0940 hc        1 G81      0.047033
     71 H53C       -6.2970    6.1570    1.1970 hc        1 G81      0.047033
@<TRIPOS>BOND
     1    1    2 2   
     2    2    3 1   
     3    2    8 1   
     4    3    4 1   
     5    4    5 1   
     6    4    6 1   
     7    4    7 1   
     8    5   36 1   
     9    5   37 1   
    10    5   38 1   
    11    6   39 1   
    12    6   40 1   
    13    6   41 1   
    14    7   42 1   
    15    7   43 1   
    16    7   44 1   
    17    8    9 1   
    18    8   35 1   
    19    9   10 1   
    20    9   17 1   
    21    9   45 1   
    22   10   11 1   
    23   10   46 1   
    24   10   47 1   
    25   11   12 ar  
    26   11   16 ar  
    27   12   13 ar  
    28   12   48 1   
    29   13   14 ar  
    30   13   50 1   
    31   14   15 ar  
    32   14   51 1   
    33   15   16 ar  
    34   15   52 1   
    35   16   49 1   
    36   17   18 2   
    37   17   19 1   
    38   19   20 1   
    39   19   53 1   
    40   20   21 1   
    41   20   28 1   
    42   20   54 1   
    43   21   22 1   
    44   21   55 1   
    45   21   56 1   
    46   22   23 1   
    47   22   26 1   
    48   22   59 1   
    49   23   24 1   
    50   23   60 1   
    51   23   61 1   
    52   24   25 1   
    53   24   62 1   
    54   24   63 1   
    55   25   26 1   
    56   25   64 1   
    57   26   27 2   
    58   28   29 1   
    59   28   57 1   
    60   28   58 1   
    61   29   30 1   
    62   29   65 1   
    63   29   66 1   
    64   30   31 2   
    65   30   32 1   
    66   32   33 1   
    67   33   34 1   
    68   33   67 1   
    69   33   68 1   
    70   34   69 1   
    71   34   70 1   
    72   34   71 1   
@<TRIPOS>SUBSTRUCTURE
     1 G81         1 TEMP              0 ****  ****    0 ROOT
