@<TRIPOS>MOLECULE
G81
   71    69     1     0     0
SMALL
bcc


@<TRIPOS>ATOM
      1 O35        -2.1020    0.5950    2.8990 o         1 G81     -0.391000
      2 C31        -1.1770   -0.0980    3.2200 c1        1 G81      0.391000
      3 O1         -1.1590   -0.7260    4.5330 o         1 G81     -0.287000
      4 C1         -2.4900   -1.0910    5.0430 c3        1 G81      0.114000
      5 C2         -2.3380   -1.8760    6.3530 c3        1 G81     -0.232333
      6 C4         -3.3080    0.1860    5.3030 c3        1 G81     -0.232333
      7 C6         -3.2270   -1.9770    3.9890 c3        1 G81     -0.232333
      8 N33        -0.0980   -0.3230    2.3040 n3        1 G81     -0.341000
      9 C37         0.5700    0.7650    1.7290 c3        1 G81      0.002000
     10 C41         1.8590    1.0370    2.4990 c3        1 G81     -0.141000
     11 C51         2.0510    2.5680    2.6630 c2        1 G81     -0.088000
     12 C53         3.2760    3.1430    2.3800 c2        1 G81     -0.118000
     13 C7          3.4810    4.5080    2.6200 c1        1 G81     -0.125000
     14 C9          2.4510    5.2860    3.1430 c1        1 G81     -0.126500
     15 C11         1.2210    4.7070    3.4270 c1        1 G81     -0.126500
     16 C55         1.0180    3.3470    3.1870 c1        1 G81     -0.131000
     17 C39         0.9080    0.4440    0.2670 c2        1 G81      0.294000
     18 O47         1.9170    0.9080   -0.2410 o         1 G81     -0.367000
     19 N49         0.0080   -0.4160   -0.5310 n         1 G81     -0.359000
     20 C57         0.3710   -0.7880   -1.8740 c3        1 G81      0.012000
     21 C59         1.0140   -2.1580   -1.8640 c3        1 G81     -0.149000
     22 C61         2.2810   -2.1230   -2.6540 c3        1 G81     -0.138000
     23 C73         2.6220   -3.5250   -3.1290 c3        1 G81     -0.171000
     24 C71         4.0250   -3.8160   -2.6770 c3        1 G81     -0.028000
     25 N69         4.5430   -2.6490   -2.2050 n         1 G81     -0.389000
     26 C65         3.3910   -1.8110   -1.7710 c2        1 G81      0.304000
     27 O66         3.4260   -0.9130   -0.9550 o         1 G81     -0.362000
     28 C63        -0.8730   -0.8230   -2.7450 c3        1 G81     -0.177000
     29 C82        -0.6300    0.0140   -4.0260 c3        1 G81     -0.171000
     30 C84        -1.9790    0.2720   -4.7430 c2        1 G81      0.307000
     31 O88        -3.0170   -0.1800   -4.2760 o         1 G81     -0.381000
     32 O86        -2.0140    1.0410   -5.9380 os        1 G81     -0.274000
     33 C3         -3.3430    1.1650   -6.5150 c3        1 G81     -0.012000
     34 C5         -3.3140    2.1700   -7.6630 c3        1 G81     -0.218000
     35 H33         0.2010   -1.1680    2.1550 hn        1 G81      0.231000
     36 H21C       -3.2260   -2.1610    6.6710 hc        1 G81      0.092000
     37 H22C       -1.7820   -2.6610    6.1980 hc        1 G81      0.092000
     38 H23C       -1.9160   -1.3050    7.0280 hc        1 G81      0.092000
     39 H41C       -3.6930    0.5040    4.4650 hc        1 G81      0.092000
     40 H42C       -4.0360   -0.0130    5.9450 hc        1 G81      0.092000
     41 H43C       -2.7240    0.8750    5.6760 hc        1 G81      0.092000
     42 H61C       -2.6220   -2.6770    3.6710 hc        1 G81      0.092000
     43 H62C       -3.5090   -1.4180    3.2300 hc        1 G81      0.092000
     44 H63C       -4.0280   -2.3950    4.4080 hc        1 G81      0.092000
     45 H37        -0.0070    1.5620    1.7660 h1        1 G81      0.151000
     46 H411        1.8070    0.6170    3.3840 hc        1 G81      0.115500
     47 H412        2.6280    0.6600    2.0000 hc        1 G81      0.115500
     48 H53         3.9940    2.6000    2.0160 ha        1 G81      0.140000
     49 H55         0.1610    2.9440    3.3850 ha        1 G81      0.127000
     50 H7          4.3310    4.9070    2.4240 ha        1 G81      0.135000
     51 H9          2.5930    6.2370    3.3110 ha        1 G81      0.132500
     52 H11         0.4980    5.2500    3.7930 ha        1 G81      0.132500
     53 H49        -0.7950   -0.6910   -0.1790 hn        1 G81      0.227000
     54 H57         1.0090   -0.1270   -2.2370 h1        1 G81      0.157000
     55 H591        0.3960   -2.8130   -2.2640 hc        1 G81      0.090500
     56 H592        1.2130   -2.4190   -0.9400 hc        1 G81      0.090500
     57 H631       -1.6300   -0.4490   -2.2480 hc        1 G81      0.097500
     58 H632       -1.0670   -1.7370   -2.9900 hc        1 G81      0.097500
     59 H61         2.0540   -1.4580   -3.3430 hc        1 G81      0.150000
     60 H731        2.5720   -3.5670   -4.1050 hc        1 G81      0.099000
     61 H732        2.0090   -4.1650   -2.7380 hc        1 G81      0.099000
     62 H711        4.5600   -4.1380   -3.4310 h1        1 G81      0.081500
     63 H712        4.0130   -4.4900   -1.9610 h1        1 G81      0.081500
     64 H69         5.4180   -2.4830   -2.0350 hn        1 G81      0.244000
     65 H821       -0.0370   -0.4710   -4.6200 hc        1 G81      0.141500
     66 H822       -0.2180    0.8740   -3.7820 hc        1 G81      0.141500
     67 H31C       -3.6380    0.2850   -6.8560 h1        1 G81      0.089000
     68 H32C       -3.9710    1.4750   -5.8250 h1        1 G81      0.089000
     69 H51C       -4.2130    2.2590   -8.0410 hc        1 G81      0.087000
     70 H52C       -3.0130    3.0400   -7.3290 hc        1 G81      0.087000
     71 H53C       -2.6960    1.8550   -8.3580 hc        1 G81      0.087000
@<TRIPOS>BOND
     1    1    2 1   
     2    2    8 1   
     3    3    4 1   
     4    4    5 1   
     5    4    6 1   
     6    4    7 1   
     7    5   36 1   
     8    5   37 1   
     9    5   38 1   
    10    6   39 1   
    11    6   40 1   
    12    6   41 1   
    13    7   42 1   
    14    7   43 1   
    15    7   44 1   
    16    8    9 1   
    17    8   35 1   
    18    9   10 1   
    19    9   17 1   
    20    9   45 1   
    21   10   11 1   
    22   10   46 1   
    23   10   47 1   
    24   11   12 1   
    25   11   16 1   
    26   12   13 1   
    27   12   48 1   
    28   13   50 1   
    29   14   15 1   
    30   14   51 1   
    31   15   52 1   
    32   16   49 1   
    33   17   18 1   
    34   17   19 1   
    35   19   20 1   
    36   19   53 1   
    37   20   21 1   
    38   20   28 1   
    39   20   54 1   
    40   21   22 1   
    41   21   55 1   
    42   21   56 1   
    43   22   23 1   
    44   22   26 1   
    45   22   59 1   
    46   23   24 1   
    47   23   60 1   
    48   23   61 1   
    49   24   25 1   
    50   24   62 1   
    51   24   63 1   
    52   25   26 1   
    53   25   64 1   
    54   26   27 1   
    55   28   29 1   
    56   28   57 1   
    57   28   58 1   
    58   29   30 1   
    59   29   65 1   
    60   29   66 1   
    61   30   31 1   
    62   30   32 1   
    63   32   33 1   
    64   33   34 1   
    65   33   67 1   
    66   33   68 1   
    67   34   69 1   
    68   34   70 1   
    69   34   71 1   
@<TRIPOS>SUBSTRUCTURE
     1 G81         1 TEMP              0 ****  ****    0 ROOT
