@<TRIPOS>MOLECULE
G81
   73    74     1     0     0
SMALL
bcc


@<TRIPOS>ATOM
      1 O35        -0.6990   -1.0100   -1.1280 o         1 G81     -0.450000
      2 C31         0.4420   -0.7940   -0.7430 c         1 G81      0.643100
      3 O1          1.0000   -0.9920    0.4440 os        1 G81     -0.417900
      4 C1          0.1640   -1.5470    1.5750 c3        1 G81      0.209800
      5 C2         -0.3190   -2.9250    1.1860 c3        1 G81     -0.132767
      6 C4          1.1940   -1.5850    2.6900 c3        1 G81     -0.132767
      7 C6         -0.9620   -0.5810    1.8610 c3        1 G81     -0.132767
      8 N33         1.4730   -0.2020   -1.6830 n4        1 G81     -0.654800
      9 C37         0.9330    0.0690   -3.0590 c3        1 G81      0.094500
     10 C41         1.6260    1.2960   -3.6820 c3        1 G81     -0.058100
     11 C51         1.5260    2.4780   -2.7830 ca        1 G81     -0.183300
     12 C53         2.6330    2.8760   -2.0210 ca        1 G81     -0.128500
     13 C7          2.5540    4.0120   -1.2180 ca        1 G81     -0.110500
     14 C9          1.3730    4.7560   -1.1700 ca        1 G81     -0.083000
     15 C11         0.2700    4.3640   -1.9300 ca        1 G81     -0.110500
     16 C55         0.3450    3.2290   -2.7370 ca        1 G81     -0.128500
     17 C39         1.0460   -1.1980   -3.9150 c         1 G81      0.558100
     18 O47         1.1700   -2.3320   -3.4680 o         1 G81     -0.420100
     19 N49         0.8860   -1.0640   -5.3910 n4        1 G81     -0.681800
     20 C57         2.2040   -0.9890   -6.1370 c3        1 G81      0.140500
     21 C59         2.9690   -2.3260   -6.0880 c3        1 G81     -0.097400
     22 C61         4.3620   -2.1220   -5.5300 c3        1 G81     -0.146700
     23 C73         5.2790   -3.3400   -5.7130 c3        1 G81     -0.096400
     24 C71         5.9290   -3.5780   -4.3300 c3        1 G81      0.073000
     25 N69         5.2330   -2.7090   -3.3930 n         1 G81     -0.519900
     26 C65         4.3270   -1.9010   -4.0080 c         1 G81      0.720500
     27 O66         3.5400   -1.1040   -3.4310 o         1 G81     -0.805500
     28 C63         1.9830   -0.5480   -7.5920 c3        1 G81     -0.105400
     29 C82         1.9020    0.9490   -7.7970 c3        1 G81     -0.162400
     30 C84         0.5440    1.5320   -7.5370 c         1 G81      0.653100
     31 O88        -0.1920    1.2970   -6.5560 o         1 G81     -0.651000
     32 O86         0.1410    2.4110   -8.4640 os        1 G81     -0.384900
     33 C3         -1.1500    3.0550   -8.2750 c3        1 G81      0.144400
     34 C5         -1.3300    3.9540   -9.4710 c3        1 G81     -0.111100
     35 H33         2.2840   -0.8470   -1.7440 hn        1 G81      0.500300
     36 H21C        0.5370   -3.5750    0.8840 hc        1 G81      0.076922
     37 H22C       -0.8250   -3.3920    2.0680 hc        1 G81      0.076922
     38 H23C       -1.0550   -2.8700    0.3470 hc        1 G81      0.076922
     39 H41C        0.6970   -1.9820    3.6100 hc        1 G81      0.076922
     40 H42C        1.5870   -0.5620    2.9020 hc        1 G81      0.076922
     41 H43C        2.0460   -2.2540    2.4200 hc        1 G81      0.076922
     42 H61C       -1.5060   -0.9220    2.7780 hc        1 G81      0.076922
     43 H62C       -1.6890   -0.5490    1.0130 hc        1 G81      0.076922
     44 H63C       -0.5660    0.4460    2.0480 hc        1 G81      0.076922
     45 H37        -0.1810    0.2940   -2.9550 hx        1 G81      0.164700
     46 H411        1.1120    1.5360   -4.6540 hc        1 G81      0.098700
     47 H412        2.7050    1.0530   -3.8870 hc        1 G81      0.098700
     48 H53         3.5800    2.3190   -2.0850 ha        1 G81      0.139500
     49 H55        -0.5210    2.9370   -3.3520 ha        1 G81      0.139500
     50 H7          3.4300    4.3320   -0.6300 ha        1 G81      0.165000
     51 H9          1.3160    5.6600   -0.5410 ha        1 G81      0.169000
     52 H11        -0.6590    4.9570   -1.9020 ha        1 G81      0.165000
     53 H49         0.3680   -1.8850   -5.7360 hn        1 G81      0.487300
     54 H57         2.8070   -0.1970   -5.5940 hx        1 G81      0.115700
     55 H591        2.4330   -3.0930   -5.4630 hc        1 G81      0.093200
     56 H592        3.0480   -2.7580   -7.1230 hc        1 G81      0.093200
     57 H631        1.0850   -1.0530   -8.0370 hc        1 G81      0.100200
     58 H632        2.8780   -0.9090   -8.1780 hc        1 G81      0.100200
     59 H61         4.8390   -1.2170   -5.9980 hc        1 G81      0.099700
     60 H731        6.0630   -3.1410   -6.4840 hc        1 G81      0.086200
     61 H732        4.7000   -4.2420   -6.0290 hc        1 G81      0.086200
     62 H711        7.0240   -3.3210   -4.3500 h1        1 G81      0.085700
     63 H712        5.8180   -4.6490   -4.0080 h1        1 G81      0.085700
     64 H69         5.4390   -2.7070   -2.4250 hn        1 G81      0.355500
     65 H821        2.6330    1.4920   -7.1380 hc        1 G81      0.113200
     66 H822        2.1870    1.1810   -8.8640 hc        1 G81      0.113200
     67 H31C       -1.1140    3.6240   -7.3110 h1        1 G81      0.062200
     68 H32C       -1.9330    2.2550   -8.2160 h1        1 G81      0.062200
     69 H51C       -2.3120    4.4790   -9.3780 hc        1 G81      0.069367
     70 H52C       -0.5140    4.7140   -9.5240 hc        1 G81      0.069367
     71 H53C       -1.3220    3.3610  -10.4180 hc        1 G81      0.069367
     72 H332        1.8080    0.6920   -1.2780 hn        1 G81      0.500300
     73 H492        0.3310   -0.2080   -5.6100 hn        1 G81      0.487300
@<TRIPOS>BOND
     1    1    2 2   
     2    2    3 1   
     3    2    8 1   
     4    3    4 1   
     5    4    5 1   
     6    4    6 1   
     7    4    7 1   
     8    5   36 1   
     9    5   37 1   
    10    5   38 1   
    11    6   39 1   
    12    6   40 1   
    13    6   41 1   
    14    7   42 1   
    15    7   43 1   
    16    7   44 1   
    17    8    9 1   
    18    8   35 1   
    19    8   72 1   
    20    9   10 1   
    21    9   17 1   
    22    9   45 1   
    23   10   11 1   
    24   10   46 1   
    25   10   47 1   
    26   11   12 ar  
    27   11   16 ar  
    28   12   13 ar  
    29   12   48 1   
    30   13   14 ar  
    31   13   50 1   
    32   14   15 ar  
    33   14   51 1   
    34   15   16 ar  
    35   15   52 1   
    36   16   49 1   
    37   17   18 2   
    38   17   19 1   
    39   19   20 1   
    40   19   53 1   
    41   19   73 1   
    42   20   21 1   
    43   20   28 1   
    44   20   54 1   
    45   21   22 1   
    46   21   55 1   
    47   21   56 1   
    48   22   23 1   
    49   22   26 1   
    50   22   59 1   
    51   23   24 1   
    52   23   60 1   
    53   23   61 1   
    54   24   25 1   
    55   24   62 1   
    56   24   63 1   
    57   25   26 1   
    58   25   64 1   
    59   26   27 2   
    60   28   29 1   
    61   28   57 1   
    62   28   58 1   
    63   29   30 1   
    64   29   65 1   
    65   29   66 1   
    66   30   31 2   
    67   30   32 1   
    68   32   33 1   
    69   33   34 1   
    70   33   67 1   
    71   33   68 1   
    72   34   69 1   
    73   34   70 1   
    74   34   71 1   
@<TRIPOS>SUBSTRUCTURE
     1 G81         1 TEMP              0 ****  ****    0 ROOT
