@<TRIPOS>MOLECULE
G81
   73    74     1     0     0
SMALL
bcc


@<TRIPOS>ATOM
      1 O35        -0.5280   -0.9670   -0.5780 o         1 G81     -0.453000
      2 C31         0.6630   -0.8090   -0.3440 c         1 G81      0.646100
      3 O1          1.3680   -1.0460    0.7520 os        1 G81     -0.415900
      4 C1          0.6690   -1.5830    1.9860 c3        1 G81      0.212800
      5 C2          0.0790   -2.9330    1.6530 c3        1 G81     -0.133767
      6 C4          1.8420   -1.6790    2.9460 c3        1 G81     -0.133767
      7 C6         -0.3630   -0.5740    2.4300 c3        1 G81     -0.133767
      8 N33         1.5830   -0.2520   -1.4150 ny        1 G81     -0.655800
      9 C37         0.8680    0.0800   -2.6930 c3        1 G81      0.093500
     10 C41         1.5420    1.2760   -3.3940 c3        1 G81     -0.047100
     11 C51         1.6250    2.4470   -2.4800 ca        1 G81     -0.190300
     12 C53         2.8500    2.7900   -1.8930 ca        1 G81     -0.126500
     13 C7          2.9430    3.9190   -1.0810 ca        1 G81     -0.108000
     14 C9          1.8170    4.7120   -0.8520 ca        1 G81     -0.079000
     15 C11         0.5950    4.3740   -1.4380 ca        1 G81     -0.108000
     16 C55         0.4980    3.2460   -2.2510 ca        1 G81     -0.126500
     17 C39         0.7730   -1.1720   -3.5730 c         1 G81      0.555100
     18 O47         0.8940   -2.3220   -3.1750 o         1 G81     -0.403100
     19 N49         0.4000   -0.9980   -5.0110 ny        1 G81     -0.668800
     20 C57         1.6000   -0.9540   -5.9480 c3        1 G81      0.142500
     21 C59         2.3130   -2.3140   -6.0540 c3        1 G81     -0.095400
     22 C61         3.7770   -2.1750   -5.6910 c3        1 G81     -0.146700
     23 C73         4.6160   -3.4120   -6.0450 c3        1 G81     -0.095400
     24 C71         5.4500   -3.7190   -4.7800 c3        1 G81      0.072000
     25 N69         4.9200   -2.8690   -3.7220 ns        1 G81     -0.515900
     26 C65         3.9640   -2.0150   -4.1740 c         1 G81      0.721500
     27 O66         3.2900   -1.2190   -3.4630 o         1 G81     -0.816500
     28 C63         1.1680   -0.4750   -7.3340 c3        1 G81     -0.128400
     29 C82         0.5990    0.9270   -7.3350 c3        1 G81     -0.160400
     30 C84         0.8350    1.5800   -8.6740 c         1 G81      0.631100
     31 O88         1.7490    1.3260   -9.4590 o         1 G81     -0.517000
     32 O86        -0.0800    2.5360   -8.9540 os        1 G81     -0.430900
     33 C3          0.0790    3.2350  -10.2170 c3        1 G81      0.141400
     34 C5         -1.0610    4.2180  -10.2890 c3        1 G81     -0.107100
     35 H33         2.3400   -0.9380   -1.6030 hn        1 G81      0.502800
     36 H21C        0.8580   -3.6150    1.2350 hc        1 G81      0.077811
     37 H22C       -0.3250   -3.3910    2.5920 hc        1 G81      0.077811
     38 H23C       -0.7600   -2.8350    0.9210 hc        1 G81      0.077811
     39 H41C        2.6190   -2.3780    2.5540 hc        1 G81      0.077811
     40 H42C        1.4610   -2.0680    3.9230 hc        1 G81      0.077811
     41 H43C        2.3040   -0.6760    3.1100 hc        1 G81      0.077811
     42 H61C       -1.1960   -0.4980    1.6890 hc        1 G81      0.077811
     43 H62C       -0.7930   -0.9050    3.4090 hc        1 G81      0.077811
     44 H63C        0.1000    0.4320    2.5710 hc        1 G81      0.077811
     45 H37        -0.2020    0.3690   -2.4200 hx        1 G81      0.158700
     46 H411        2.5710    0.9780   -3.7420 hc        1 G81      0.090200
     47 H412        0.9260    1.5560   -4.2900 hc        1 G81      0.090200
     48 H53         3.7530    2.1950   -2.1020 ha        1 G81      0.136500
     49 H55        -0.4640    2.9990   -2.7260 ha        1 G81      0.136500
     50 H7          3.9120    4.1960   -0.6330 ha        1 G81      0.167500
     51 H9          1.8950    5.6120   -0.2190 ha        1 G81      0.172000
     52 H11        -0.2920    5.0070   -1.2670 ha        1 G81      0.167500
     53 H49        -0.1350   -0.1300   -5.1360 hn        1 G81      0.469300
     54 H57         2.3040   -0.1930   -5.4870 hx        1 G81      0.117700
     55 H591        2.2360   -2.6920   -7.1120 hc        1 G81      0.095700
     56 H592        1.8390   -3.0910   -5.3960 hc        1 G81      0.095700
     57 H631        2.0960   -0.4950   -7.9830 hc        1 G81      0.116200
     58 H632        0.4380   -1.1920   -7.7980 hc        1 G81      0.116200
     59 H61         4.2160   -1.2670   -6.1920 hc        1 G81      0.105700
     60 H731        5.2870   -3.2070   -6.9160 hc        1 G81      0.088700
     61 H732        3.9670   -4.2840   -6.3040 hc        1 G81      0.088700
     62 H711        5.3550   -4.7980   -4.4810 h1        1 G81      0.087200
     63 H712        6.5380   -3.4870   -4.9480 h1        1 G81      0.087200
     64 H69         5.2640   -2.9090   -2.7940 hn        1 G81      0.355500
     65 H821        1.1040    1.5750   -6.5680 hc        1 G81      0.073700
     66 H822       -0.5040    0.9260   -7.1290 hc        1 G81      0.073700
     67 H31C        0.0430    2.4770  -11.0420 h1        1 G81      0.066700
     68 H32C        1.0800    3.7380  -10.2130 h1        1 G81      0.066700
     69 H51C       -2.0440    3.6900  -10.2550 hc        1 G81      0.060700
     70 H52C       -0.9840    4.7830  -11.2500 hc        1 G81      0.060700
     71 H53C       -1.0170    4.9400   -9.4380 hc        1 G81      0.060700
     72 H332        2.0230    0.6140   -1.0510 hn        1 G81      0.502800
     73 H492       -0.1930   -1.7950   -5.2920 hn        1 G81      0.469300
@<TRIPOS>BOND
     1    1    2 2   
     2    2    3 1   
     3    2    8 1   
     4    3    4 1   
     5    4    5 1   
     6    4    6 1   
     7    4    7 1   
     8    5   36 1   
     9    5   37 1   
    10    5   38 1   
    11    6   39 1   
    12    6   40 1   
    13    6   41 1   
    14    7   42 1   
    15    7   43 1   
    16    7   44 1   
    17    8    9 1   
    18    8   35 1   
    19    8   72 1   
    20    9   10 1   
    21    9   17 1   
    22    9   45 1   
    23   10   11 1   
    24   10   46 1   
    25   10   47 1   
    26   11   12 ar  
    27   11   16 ar  
    28   12   13 ar  
    29   12   48 1   
    30   13   14 ar  
    31   13   50 1   
    32   14   15 ar  
    33   14   51 1   
    34   15   16 ar  
    35   15   52 1   
    36   16   49 1   
    37   17   18 2   
    38   17   19 1   
    39   19   20 1   
    40   19   53 1   
    41   19   73 1   
    42   20   21 1   
    43   20   28 1   
    44   20   54 1   
    45   21   22 1   
    46   21   55 1   
    47   21   56 1   
    48   22   23 1   
    49   22   26 1   
    50   22   59 1   
    51   23   24 1   
    52   23   60 1   
    53   23   61 1   
    54   24   25 1   
    55   24   62 1   
    56   24   63 1   
    57   25   26 1   
    58   25   64 1   
    59   26   27 2   
    60   28   29 1   
    61   28   57 1   
    62   28   58 1   
    63   29   30 1   
    64   29   65 1   
    65   29   66 1   
    66   30   31 2   
    67   30   32 1   
    68   32   33 1   
    69   33   34 1   
    70   33   67 1   
    71   33   68 1   
    72   34   69 1   
    73   34   70 1   
    74   34   71 1   
@<TRIPOS>SUBSTRUCTURE
     1 G81         1 TEMP              0 ****  ****    0 ROOT
