@<TRIPOS>MOLECULE
G81
   73    74     1     0     0
SMALL
bcc


@<TRIPOS>ATOM
      1 O35        -0.5190   -0.9540   -0.5660 o         1 G81     -0.453000
      2 C31         0.6720   -0.7910   -0.3360 c         1 G81      0.646100
      3 O1          1.3800   -1.0200    0.7600 os        1 G81     -0.415900
      4 C1          0.6860   -1.5520    1.9990 c3        1 G81      0.212800
      5 C2          0.0990   -2.9060    1.6750 c3        1 G81     -0.133767
      6 C4          1.8610   -1.6400    2.9560 c3        1 G81     -0.133767
      7 C6         -0.3480   -0.5440    2.4390 c3        1 G81     -0.133767
      8 N33         1.5880   -0.2370   -1.4120 n4        1 G81     -0.655800
      9 C37         0.8680    0.0850   -2.6900 c3        1 G81      0.093500
     10 C41         1.5370    1.2790   -3.4000 c3        1 G81     -0.047100
     11 C51         1.6180    2.4550   -2.4930 ca        1 G81     -0.190300
     12 C53         2.8440    2.8060   -1.9110 ca        1 G81     -0.126500
     13 C7          2.9350    3.9400   -1.1060 ca        1 G81     -0.108000
     14 C9          1.8070    4.7310   -0.8790 ca        1 G81     -0.079000
     15 C11         0.5850    4.3850   -1.4590 ca        1 G81     -0.108000
     16 C55         0.4890    3.2530   -2.2660 ca        1 G81     -0.126500
     17 C39         0.7750   -1.1720   -3.5620 c         1 G81      0.555100
     18 O47         0.9010   -2.3200   -3.1580 o         1 G81     -0.403100
     19 N49         0.3980   -1.0080   -5.0000 n4        1 G81     -0.668800
     20 C57         1.5960   -0.9660   -5.9410 c3        1 G81      0.142500
     21 C59         2.3130   -2.3230   -6.0410 c3        1 G81     -0.095400
     22 C61         3.7770   -2.1780   -5.6820 c3        1 G81     -0.146700
     23 C73         4.6200   -3.4140   -6.0320 c3        1 G81     -0.095400
     24 C71         5.4580   -3.7110   -4.7670 c3        1 G81      0.072000
     25 N69         4.9280   -2.8570   -3.7120 n         1 G81     -0.515900
     26 C65         3.9670   -2.0080   -4.1670 c         1 G81      0.721500
     27 O66         3.2930   -1.2110   -3.4590 o         1 G81     -0.816500
     28 C63         1.1590   -0.4960   -7.3290 c3        1 G81     -0.128400
     29 C82         0.5850    0.9040   -7.3370 c3        1 G81     -0.160400
     30 C84         0.8150    1.5500   -8.6800 c         1 G81      0.631100
     31 O88         1.7280    1.2950   -9.4660 o         1 G81     -0.517000
     32 O86        -0.1050    2.5010   -8.9630 os        1 G81     -0.430900
     33 C3          0.0480    3.1920  -10.2300 c3        1 G81      0.141400
     34 C5         -1.0950    4.1710  -10.3050 c3        1 G81     -0.107100
     35 H33         2.0260    0.6320   -1.0540 hn        1 G81      0.502800
     36 H21C        0.8790   -3.5870    1.2580 hc        1 G81      0.077811
     37 H22C       -0.7420   -2.8140    0.9440 hc        1 G81      0.077811
     38 H23C       -0.3010   -3.3600    2.6170 hc        1 G81      0.077811
     39 H41C        2.3210   -0.6340    3.1140 hc        1 G81      0.077811
     40 H42C        2.6390   -2.3390    2.5670 hc        1 G81      0.077811
     41 H43C        1.4840   -2.0250    3.9360 hc        1 G81      0.077811
     42 H61C        0.1130    0.4650    2.5740 hc        1 G81      0.077811
     43 H62C       -0.7750   -0.8700    3.4220 hc        1 G81      0.077811
     44 H63C       -1.1830   -0.4750    1.7000 hc        1 G81      0.077811
     45 H37        -0.2020    0.3720   -2.4160 hx        1 G81      0.158700
     46 H411        0.9180    1.5520   -4.2960 hc        1 G81      0.090200
     47 H412        2.5660    0.9820   -3.7490 hc        1 G81      0.090200
     48 H53         3.7490    2.2120   -2.1180 ha        1 G81      0.136500
     49 H55        -0.4720    3.0000   -2.7370 ha        1 G81      0.136500
     50 H7          3.9040    4.2220   -0.6610 ha        1 G81      0.167500
     51 H9          1.8840    5.6350   -0.2510 ha        1 G81      0.172000
     52 H11        -0.3040    5.0170   -1.2910 ha        1 G81      0.167500
     53 H49        -0.1930   -1.8080   -5.2750 hn        1 G81      0.469300
     54 H57         2.2980   -0.2000   -5.4860 hx        1 G81      0.117700
     55 H591        2.2340   -2.7080   -7.0960 hc        1 G81      0.095700
     56 H592        1.8420   -3.0980   -5.3770 hc        1 G81      0.095700
     57 H631        2.0840   -0.5170   -7.9800 hc        1 G81      0.116200
     58 H632        0.4300   -1.2180   -7.7860 hc        1 G81      0.116200
     59 H61         4.2120   -1.2720   -6.1890 hc        1 G81      0.105700
     60 H731        3.9720   -4.2900   -6.2830 hc        1 G81      0.088700
     61 H732        5.2870   -3.2120   -6.9050 hc        1 G81      0.088700
     62 H711        6.5450   -3.4770   -4.9390 h1        1 G81      0.087200
     63 H712        5.3670   -4.7890   -4.4620 h1        1 G81      0.087200
     64 H69         5.2740   -2.8910   -2.7850 hn        1 G81      0.355500
     65 H821        1.0890    1.5580   -6.5750 hc        1 G81      0.073700
     66 H822       -0.5180    0.9010   -7.1270 hc        1 G81      0.073700
     67 H31C        1.0480    3.7000  -10.2320 h1        1 G81      0.066700
     68 H32C        0.0130    2.4300  -11.0510 h1        1 G81      0.066700
     69 H51C       -1.0230    4.7310  -11.2700 hc        1 G81      0.060700
     70 H52C       -2.0760    3.6390  -10.2660 hc        1 G81      0.060700
     71 H53C       -1.0520    4.8980   -9.4590 hc        1 G81      0.060700
     72 H332        2.3460   -0.9210   -1.5970 hn        1 G81      0.502800
     73 H492       -0.1400   -0.1430   -5.1300 hn        1 G81      0.469300
@<TRIPOS>BOND
     1    1    2 2   
     2    2    3 1   
     3    2    8 1   
     4    3    4 1   
     5    4    5 1   
     6    4    6 1   
     7    4    7 1   
     8    5   36 1   
     9    5   37 1   
    10    5   38 1   
    11    6   39 1   
    12    6   40 1   
    13    6   41 1   
    14    7   42 1   
    15    7   43 1   
    16    7   44 1   
    17    8    9 1   
    18    8   35 1   
    19    8   72 1   
    20    9   10 1   
    21    9   17 1   
    22    9   45 1   
    23   10   11 1   
    24   10   46 1   
    25   10   47 1   
    26   11   12 ar  
    27   11   16 ar  
    28   12   13 ar  
    29   12   48 1   
    30   13   14 ar  
    31   13   50 1   
    32   14   15 ar  
    33   14   51 1   
    34   15   16 ar  
    35   15   52 1   
    36   16   49 1   
    37   17   18 2   
    38   17   19 1   
    39   19   20 1   
    40   19   53 1   
    41   19   73 1   
    42   20   21 1   
    43   20   28 1   
    44   20   54 1   
    45   21   22 1   
    46   21   55 1   
    47   21   56 1   
    48   22   23 1   
    49   22   26 1   
    50   22   59 1   
    51   23   24 1   
    52   23   60 1   
    53   23   61 1   
    54   24   25 1   
    55   24   62 1   
    56   24   63 1   
    57   25   26 1   
    58   25   64 1   
    59   26   27 2   
    60   28   29 1   
    61   28   57 1   
    62   28   58 1   
    63   29   30 1   
    64   29   65 1   
    65   29   66 1   
    66   30   31 2   
    67   30   32 1   
    68   32   33 1   
    69   33   34 1   
    70   33   67 1   
    71   33   68 1   
    72   34   69 1   
    73   34   70 1   
    74   34   71 1   
@<TRIPOS>SUBSTRUCTURE
     1 G81         1 TEMP              0 ****  ****    0 ROOT
