@<TRIPOS>MOLECULE
G82
  103   105     1     0     0
SMALL
bcc


@<TRIPOS>ATOM
      1 O88         2.4350   -2.7400   -1.7420 o         1 G82     -0.667000
      2 C84         2.1070   -1.7670   -1.0270 c         1 G82      0.658100
      3 O86         1.7790   -1.9720    0.2520 os        1 G82     -0.375900
      4 C3          1.8150   -3.3370    0.7620 c3        1 G82      0.146400
      5 C5          1.3690   -3.2370    2.1980 c3        1 G82     -0.114100
      6 C82         2.0740   -0.3260   -1.4450 c3        1 G82     -0.165400
      7 C63         1.3860   -0.0740   -2.7680 c3        1 G82     -0.108400
      8 C57         2.2620   -0.3030   -4.0110 c3        1 G82      0.145500
      9 C59         1.7990    0.5950   -5.1730 c3        1 G82     -0.098400
     10 C61         2.8670    1.6130   -5.5190 c3        1 G82     -0.144700
     11 C73         2.4060    2.6760   -6.5270 c3        1 G82     -0.096400
     12 C71         3.5100    2.7250   -7.6090 c3        1 G82      0.069000
     13 N69         4.3950    1.5960   -7.3480 ns        1 G82     -0.509900
     14 C65         4.0580    0.9360   -6.2120 c         1 G82      0.720500
     15 O66         4.6100   -0.1160   -5.7780 o         1 G82     -0.832500
     16 N49         2.2610   -1.7760   -4.3920 ny        1 G82     -0.679800
     17 C39         3.2750   -2.1620   -5.4030 c         1 G82      0.571100
     18 O47         2.9630   -2.0810   -6.5890 o         1 G82     -0.460100
     19 C37         4.6010   -2.7760   -4.9290 c3        1 G82      0.094500
     20 C41         5.1470   -2.1410   -3.6380 c3        1 G82     -0.059100
     21 C51         6.4670   -2.7140   -3.2630 ca        1 G82     -0.192300
     22 C55         7.6430   -1.9980   -3.5320 ca        1 G82     -0.127500
     23 C11         8.8730   -2.4850   -3.0940 ca        1 G82     -0.110500
     24 C9          8.9380   -3.6880   -2.3870 ca        1 G82     -0.081000
     25 C7          7.7700   -4.4060   -2.1220 ca        1 G82     -0.110500
     26 C53         6.5370   -3.9200   -2.5550 ca        1 G82     -0.127500
     27 N33         5.6290   -2.6810   -6.0370 ny        1 G82     -0.663800
     28 C31         5.5030   -3.7340   -7.0800 c         1 G82      0.538100
     29 O35         4.9450   -4.7900   -6.8180 o         1 G82     -0.396100
     30 C23         6.0980   -3.4010   -8.4590 c3        1 G82      0.066500
     31 C25         4.9320   -3.1280   -9.4250 c3        1 G82     -0.099400
     32 C15         5.3690   -2.3320  -10.6330 c3        1 G82     -0.170400
     33 C14         5.8510   -0.9510  -10.2550 c         1 G82      0.657100
     34 O2          6.3340   -0.2870  -11.3070 os        1 G82     -0.406900
     35 C29         6.7420    1.1250  -11.2420 c3        1 G82      0.176800
     36 C45         7.7620    1.3460  -10.1440 c3        1 G82     -0.117100
     37 C43         7.3630    1.3440  -12.6180 c3        1 G82     -0.117100
     38 C12         5.5030    1.9810  -11.0620 c3        1 G82     -0.117100
     39 O1          5.8370   -0.4970   -9.0970 o         1 G82     -0.644000
     40 N21         6.9800   -4.5240   -8.9160 ny        1 G82     -0.667800
     41 C17         8.1830   -4.6880   -7.9940 c         1 G82      0.660100
     42 O19         8.0800   -4.2850   -6.8380 o         1 G82     -0.512000
     43 O15         9.1970   -5.2160   -8.6400 os        1 G82     -0.389900
     44 C13        10.4020   -5.6900   -7.8570 c3        1 G82      0.241700
     45 C4         10.2560   -7.1250   -7.5860 ca        1 G82     -0.212300
     46 C2         10.5530   -8.0610   -8.5890 ca        1 G82     -0.082500
     47 C1         10.4970   -9.4250   -8.3110 ca        1 G82     -0.128000
     48 C10        10.1470   -9.8640   -7.0330 ca        1 G82     -0.054000
     49 C8          9.8470   -8.9360   -6.0300 ca        1 G82     -0.128000
     50 C6          9.8990   -7.5730   -6.3030 ca        1 G82     -0.082500
     51 H821        1.5320    0.2610   -0.6450 hc        1 G82      0.117200
     52 H822        3.1340    0.0460   -1.4580 hc        1 G82      0.117200
     53 H31C        2.8650   -3.7130    0.6610 h1        1 G82      0.061700
     54 H32C        1.1230   -3.9580    0.1370 h1        1 G82      0.061700
     55 H51C        2.0540   -2.5790    2.7840 hc        1 G82      0.073367
     56 H52C        0.3350   -2.8210    2.2660 hc        1 G82      0.073367
     57 H53C        1.3780   -4.2620    2.6440 hc        1 G82      0.073367
     58 H631        1.0940    1.0170   -2.7800 hc        1 G82      0.104700
     59 H632        0.4290   -0.6600   -2.8310 hc        1 G82      0.104700
     60 H57         3.3410   -0.0630   -3.7570 hx        1 G82      0.118700
     61 H591        1.5500   -0.0050   -6.0910 hc        1 G82      0.093700
     62 H592        0.8580    1.1390   -4.8850 hc        1 G82      0.093700
     63 H49         2.4040   -2.3340   -3.5160 hn        1 G82      0.491800
     64 H61         3.2430    2.1150   -4.5840 hc        1 G82      0.106700
     65 H731        2.2970    3.6750   -6.0360 hc        1 G82      0.091700
     66 H732        1.4230    2.4050   -6.9850 hc        1 G82      0.091700
     67 H711        4.0910    3.6860   -7.5470 h1        1 G82      0.086700
     68 H712        3.0740    2.6340   -8.6410 h1        1 G82      0.086700
     69 H69         5.1360    1.3420   -7.9610 hn        1 G82      0.366500
     70 H37         4.4050   -3.8820   -4.7340 hx        1 G82      0.158700
     71 H411        4.4120   -2.3530   -2.8090 hc        1 G82      0.110200
     72 H412        5.2320   -1.0260   -3.7720 hc        1 G82      0.110200
     73 H33         6.5720   -2.7770   -5.5920 hn        1 G82      0.520800
     74 H55         7.5940   -1.0210   -4.0380 ha        1 G82      0.141000
     75 H53         5.6160   -4.4740   -2.3120 ha        1 G82      0.141000
     76 H11         9.7920   -1.9070   -3.2820 ha        1 G82      0.168000
     77 H9          9.9100   -4.0600   -2.0190 ha        1 G82      0.173000
     78 H7          7.8190   -5.3460   -1.5470 ha        1 G82      0.168000
     79 H23         6.7500   -2.4670   -8.4020 hx        1 G82      0.163700
     80 H251        4.4440   -4.0860   -9.7500 hc        1 G82      0.112200
     81 H252        4.1600   -2.5320   -8.8550 hc        1 G82      0.112200
     82 H21         6.4570   -5.4130   -8.9270 hn        1 G82      0.493300
     83 H151        4.4880   -2.2090  -11.3280 hc        1 G82      0.117700
     84 H152        6.1670   -2.8530  -11.2240 hc        1 G82      0.117700
     85 H451        8.5520    0.5580  -10.1820 hc        1 G82      0.062922
     86 H452        8.2480    2.3420  -10.2930 hc        1 G82      0.062922
     87 H453        7.2780    1.3290   -9.1380 hc        1 G82      0.062922
     88 H431        8.3040    0.7540  -12.7200 hc        1 G82      0.062922
     89 H432        7.5940    2.4300  -12.7390 hc        1 G82      0.062922
     90 H433        6.6530    1.0310  -13.4210 hc        1 G82      0.062922
     91 H121        4.8030    1.8380  -11.9210 hc        1 G82      0.062922
     92 H122        4.9740    1.7100  -10.1170 hc        1 G82      0.062922
     93 H123        5.8020    3.0570  -11.0200 hc        1 G82      0.062922
     94 H131       10.4830   -5.0540   -6.9410 h1        1 G82      0.110200
     95 H132       11.1960   -5.4530   -8.6200 h1        1 G82      0.110200
     96 H2         10.8500   -7.7170   -9.5930 ha        1 G82      0.139500
     97 H6          9.6870   -6.8450   -5.5050 ha        1 G82      0.139500
     98 H1         10.7450  -10.1580   -9.0970 ha        1 G82      0.166500
     99 H10        10.1180  -10.9440   -6.8090 ha        1 G82      0.172000
    100 H8          9.5870   -9.2870   -5.0190 ha        1 G82      0.166500
    101 H492        1.3280   -2.0000   -4.7720 hn        1 G82      0.491800
    102 H332        5.5640   -1.7310   -6.4750 hn        1 G82      0.520800
    103 H212        7.3050   -4.3320   -9.8770 hn        1 G82      0.493300
@<TRIPOS>BOND
     1    1    2 2   
     2    2    3 1   
     3    2    6 1   
     4    3    4 1   
     5    4    5 1   
     6    4   53 1   
     7    4   54 1   
     8    5   55 1   
     9    5   56 1   
    10    5   57 1   
    11    6    7 1   
    12    6   51 1   
    13    6   52 1   
    14    7    8 1   
    15    7   58 1   
    16    7   59 1   
    17    8    9 1   
    18    8   16 1   
    19    8   60 1   
    20    9   10 1   
    21    9   61 1   
    22    9   62 1   
    23   10   11 1   
    24   10   14 1   
    25   10   64 1   
    26   11   12 1   
    27   11   65 1   
    28   11   66 1   
    29   12   13 1   
    30   12   67 1   
    31   12   68 1   
    32   13   14 1   
    33   13   69 1   
    34   14   15 2   
    35   16   17 1   
    36   16   63 1   
    37   16  101 1   
    38   17   18 2   
    39   17   19 1   
    40   19   20 1   
    41   19   27 1   
    42   19   70 1   
    43   20   21 1   
    44   20   71 1   
    45   20   72 1   
    46   21   22 ar  
    47   21   26 ar  
    48   22   23 ar  
    49   22   74 1   
    50   23   24 ar  
    51   23   76 1   
    52   24   25 ar  
    53   24   77 1   
    54   25   26 ar  
    55   25   78 1   
    56   26   75 1   
    57   27   28 1   
    58   27   73 1   
    59   27  102 1   
    60   28   29 2   
    61   28   30 1   
    62   30   31 1   
    63   30   40 1   
    64   30   79 1   
    65   31   32 1   
    66   31   80 1   
    67   31   81 1   
    68   32   33 1   
    69   32   83 1   
    70   32   84 1   
    71   33   34 1   
    72   33   39 2   
    73   34   35 1   
    74   35   36 1   
    75   35   37 1   
    76   35   38 1   
    77   36   85 1   
    78   36   86 1   
    79   36   87 1   
    80   37   88 1   
    81   37   89 1   
    82   37   90 1   
    83   38   91 1   
    84   38   92 1   
    85   38   93 1   
    86   40   41 1   
    87   40   82 1   
    88   40  103 1   
    89   41   42 2   
    90   41   43 1   
    91   43   44 1   
    92   44   45 1   
    93   44   94 1   
    94   44   95 1   
    95   45   46 ar  
    96   45   50 ar  
    97   46   47 ar  
    98   46   96 1   
    99   47   48 ar  
   100   47   98 1   
   101   48   49 ar  
   102   48   99 1   
   103   49   50 ar  
   104   49  100 1   
   105   50   97 1   
@<TRIPOS>SUBSTRUCTURE
     1 G82         1 TEMP              0 ****  ****    0 ROOT
