@<TRIPOS>MOLECULE
G82
  103   105     1     0     0
SMALL
bcc


@<TRIPOS>ATOM
      1 O88         2.1890   -2.1970   -1.5150 o         1 G82     -0.667000
      2 C84         1.9650   -1.1470   -0.8710 c         1 G82      0.657100
      3 O86         1.6260   -1.2270    0.4180 os        1 G82     -0.375900
      4 C3          1.5280   -2.5490    1.0250 c3        1 G82      0.145400
      5 C5          1.1030   -2.3040    2.4490 c3        1 G82     -0.114100
      6 C82         2.0740    0.2560   -1.3910 c3        1 G82     -0.165400
      7 C63         1.4080    0.4810   -2.7300 c3        1 G82     -0.108400
      8 C57         2.2500    0.0790   -3.9510 c3        1 G82      0.145500
      9 C59         1.8710    0.9330   -5.1760 c3        1 G82     -0.098400
     10 C61         3.0330    1.8120   -5.5930 c3        1 G82     -0.144700
     11 C73         2.6730    2.8380   -6.6790 c3        1 G82     -0.096400
     12 C71         3.7700    2.6950   -7.7610 c3        1 G82      0.070000
     13 N69         4.5410    1.5080   -7.4140 n         1 G82     -0.509900
     14 C65         4.1480    0.9720   -6.2310 c         1 G82      0.720500
     15 O66         4.5980   -0.0930   -5.7190 o         1 G82     -0.830500
     16 N49         2.1020   -1.4100   -4.2270 n4        1 G82     -0.679800
     17 C39         3.0690   -1.9650   -5.2050 c         1 G82      0.570100
     18 O47         2.7610   -1.9400   -6.3940 o         1 G82     -0.459100
     19 C37         4.3310   -2.6700   -4.6840 c3        1 G82      0.094500
     20 C41         4.9430   -2.0020   -3.4390 c3        1 G82     -0.059100
     21 C51         6.1950   -2.6840   -3.0170 ca        1 G82     -0.192300
     22 C55         7.4390   -2.1110   -3.3170 ca        1 G82     -0.127500
     23 C11         8.6100   -2.6970   -2.8390 ca        1 G82     -0.110000
     24 C9          8.5470   -3.8560   -2.0610 ca        1 G82     -0.081000
     25 C7          7.3100   -4.4300   -1.7640 ca        1 G82     -0.110000
     26 C53         6.1350   -3.8460   -2.2370 ca        1 G82     -0.127500
     27 N33         5.3570   -2.7570   -5.7930 n4        1 G82     -0.663800
     28 C31         5.1340   -3.8770   -6.7460 c         1 G82      0.539100
     29 O35         4.4680   -4.8440   -6.4060 o         1 G82     -0.398100
     30 C23         5.7740   -3.7260   -8.1360 c3        1 G82      0.067500
     31 C25         4.6540   -3.4160   -9.1440 c3        1 G82     -0.099400
     32 C15         5.1850   -2.7500  -10.3920 c3        1 G82     -0.169400
     33 C14         5.7780   -1.3930  -10.0980 c         1 G82      0.657100
     34 O2          6.3390   -0.8490  -11.1810 os        1 G82     -0.406900
     35 C29         6.8620    0.5250  -11.2060 c3        1 G82      0.175800
     36 C45         7.8730    0.7430  -10.0980 c3        1 G82     -0.116767
     37 C43         7.5290    0.5910  -12.5760 c3        1 G82     -0.116767
     38 C12         5.6960    1.4910  -11.1220 c3        1 G82     -0.116767
     39 O1          5.7810   -0.8570   -8.9760 o         1 G82     -0.643000
     40 N21         6.5380   -4.9700   -8.4800 n4        1 G82     -0.667800
     41 C17         7.6920   -5.1940   -7.5060 c         1 G82      0.649100
     42 O19         7.6610   -4.5990   -6.4290 o         1 G82     -0.522000
     43 O15         8.5750   -6.0270   -7.9970 os        1 G82     -0.389900
     44 C13         9.7780   -6.3930   -7.1230 c3        1 G82      0.253700
     45 C4         10.5000   -7.3720   -7.9370 ca        1 G82     -0.190300
     46 C2         11.5100   -6.9480   -8.8190 ca        1 G82     -0.070000
     47 C1         12.2450   -7.8870   -9.5380 ca        1 G82     -0.129500
     48 C10        11.9730   -9.2510   -9.3920 ca        1 G82     -0.043000
     49 C8         10.9620   -9.6760   -8.5250 ca        1 G82     -0.129500
     50 C6         10.2240   -8.7430   -7.8030 ca        1 G82     -0.070000
     51 H821        3.1670    0.5180   -1.4290 hc        1 G82      0.117200
     52 H822        1.5990    0.9500   -0.6350 hc        1 G82      0.117200
     53 H31C        2.5350   -3.0350    0.9520 h1        1 G82      0.061700
     54 H32C        0.7740   -3.1410    0.4450 h1        1 G82      0.061700
     55 H51C        1.0130   -3.2910    2.9680 hc        1 G82      0.073367
     56 H52C        1.8550   -1.6770    2.9880 hc        1 G82      0.073367
     57 H53C        0.1170   -1.7830    2.4870 hc        1 G82      0.073367
     58 H631        0.3980   -0.0090   -2.7530 hc        1 G82      0.104700
     59 H632        1.2260    1.5920   -2.8190 hc        1 G82      0.104700
     60 H57         3.3490    0.2280   -3.7140 hx        1 G82      0.118700
     61 H591        1.5580    0.2970   -6.0480 hc        1 G82      0.093700
     62 H592        0.9910    1.5870   -4.9280 hc        1 G82      0.093700
     63 H49         1.1500   -1.5670   -4.5930 hn        1 G82      0.491800
     64 H61         3.4610    2.3420   -4.6980 hc        1 G82      0.106700
     65 H731        2.6670    3.8770   -6.2660 hc        1 G82      0.091700
     66 H732        1.6650    2.6330   -7.1170 hc        1 G82      0.091700
     67 H711        3.3200    2.5680   -8.7840 h1        1 G82      0.086200
     68 H712        4.4430    3.5970   -7.7730 h1        1 G82      0.086200
     69 H69         5.2500    1.1360   -8.0040 hn        1 G82      0.366500
     70 H37         4.0270   -3.7340   -4.4090 hx        1 G82      0.158700
     71 H411        5.1440   -0.9150   -3.6540 hc        1 G82      0.109700
     72 H412        4.1910   -2.0740   -2.6020 hc        1 G82      0.109700
     73 H33         5.3750   -1.8440   -6.3080 hn        1 G82      0.521800
     74 H55         7.4950   -1.1680   -3.8820 ha        1 G82      0.140500
     75 H53         5.1610   -4.2850   -1.9700 ha        1 G82      0.140500
     76 H11         9.5860   -2.2300   -3.0530 ha        1 G82      0.167500
     77 H9          9.4730   -4.3050   -1.6640 ha        1 G82      0.172000
     78 H7          7.2580   -5.3350   -1.1350 ha        1 G82      0.167500
     79 H23         6.5210   -2.8650   -8.1430 hx        1 G82      0.163700
     80 H251        4.0840   -4.3450   -9.4150 hc        1 G82      0.111700
     81 H252        3.9320   -2.7130   -8.6350 hc        1 G82      0.111700
     82 H21         6.9100   -4.8880   -9.4380 hn        1 G82      0.491800
     83 H151        5.9470   -3.3800  -10.9220 hc        1 G82      0.117700
     84 H152        4.3330   -2.6020  -11.1190 hc        1 G82      0.117700
     85 H451        8.5930   -0.1090  -10.0560 hc        1 G82      0.062922
     86 H452        7.3670    0.8410   -9.1080 hc        1 G82      0.062922
     87 H453        8.4450    1.6810  -10.3050 hc        1 G82      0.062922
     88 H431        7.8510    1.6440  -12.7680 hc        1 G82      0.062922
     89 H432        8.4220   -0.0770  -12.6080 hc        1 G82      0.062922
     90 H433        6.8140    0.2770  -13.3740 hc        1 G82      0.062922
     91 H121        5.1210    1.3300  -10.1790 hc        1 G82      0.062922
     92 H122        5.0090    1.3470  -11.9920 hc        1 G82      0.062922
     93 H123        6.0820    2.5390  -11.1420 hc        1 G82      0.062922
     94 H131        9.3390   -6.8010   -6.1790 h1        1 G82      0.088700
     95 H132       10.3180   -5.4270   -6.9620 h1        1 G82      0.088700
     96 H2         11.7340   -5.8760   -8.9280 ha        1 G82      0.138000
     97 H6          9.4350   -9.0830   -7.1140 ha        1 G82      0.138000
     98 H1         13.0470   -7.5560  -10.2170 ha        1 G82      0.169000
     99 H10        12.5610   -9.9930   -9.9590 ha        1 G82      0.173000
    100 H8         10.7550  -10.7530   -8.4080 ha        1 G82      0.169000
    101 H492        2.1920   -1.9160   -3.3130 hn        1 G82      0.491800
    102 H332        6.2910   -2.8990   -5.3400 hn        1 G82      0.521800
    103 H212        5.9190   -5.7950   -8.4480 hn        1 G82      0.491800
@<TRIPOS>BOND
     1    1    2 2   
     2    2    3 1   
     3    2    6 1   
     4    3    4 1   
     5    4    5 1   
     6    4   53 1   
     7    4   54 1   
     8    5   55 1   
     9    5   56 1   
    10    5   57 1   
    11    6    7 1   
    12    6   51 1   
    13    6   52 1   
    14    7    8 1   
    15    7   58 1   
    16    7   59 1   
    17    8    9 1   
    18    8   16 1   
    19    8   60 1   
    20    9   10 1   
    21    9   61 1   
    22    9   62 1   
    23   10   11 1   
    24   10   14 1   
    25   10   64 1   
    26   11   12 1   
    27   11   65 1   
    28   11   66 1   
    29   12   13 1   
    30   12   67 1   
    31   12   68 1   
    32   13   14 1   
    33   13   69 1   
    34   14   15 2   
    35   16   17 1   
    36   16   63 1   
    37   16  101 1   
    38   17   18 2   
    39   17   19 1   
    40   19   20 1   
    41   19   27 1   
    42   19   70 1   
    43   20   21 1   
    44   20   71 1   
    45   20   72 1   
    46   21   22 ar  
    47   21   26 ar  
    48   22   23 ar  
    49   22   74 1   
    50   23   24 ar  
    51   23   76 1   
    52   24   25 ar  
    53   24   77 1   
    54   25   26 ar  
    55   25   78 1   
    56   26   75 1   
    57   27   28 1   
    58   27   73 1   
    59   27  102 1   
    60   28   29 2   
    61   28   30 1   
    62   30   31 1   
    63   30   40 1   
    64   30   79 1   
    65   31   32 1   
    66   31   80 1   
    67   31   81 1   
    68   32   33 1   
    69   32   83 1   
    70   32   84 1   
    71   33   34 1   
    72   33   39 2   
    73   34   35 1   
    74   35   36 1   
    75   35   37 1   
    76   35   38 1   
    77   36   85 1   
    78   36   86 1   
    79   36   87 1   
    80   37   88 1   
    81   37   89 1   
    82   37   90 1   
    83   38   91 1   
    84   38   92 1   
    85   38   93 1   
    86   40   41 1   
    87   40   82 1   
    88   40  103 1   
    89   41   42 2   
    90   41   43 1   
    91   43   44 1   
    92   44   45 1   
    93   44   94 1   
    94   44   95 1   
    95   45   46 ar  
    96   45   50 ar  
    97   46   47 ar  
    98   46   96 1   
    99   47   48 ar  
   100   47   98 1   
   101   48   49 ar  
   102   48   99 1   
   103   49   50 ar  
   104   49  100 1   
   105   50   97 1   
@<TRIPOS>SUBSTRUCTURE
     1 G82         1 TEMP              0 ****  ****    0 ROOT
