@<TRIPOS>MOLECULE
G82
  100   102     1     0     0
SMALL
bcc


@<TRIPOS>ATOM
      1 O88         7.9310   -0.5390    0.7200 o         1 G82     -0.557000
      2 C84         7.1250   -1.3030    0.1820 c         1 G82      0.633100
      3 O86         7.5960   -2.4810   -0.3280 os        1 G82     -0.442900
      4 C3          9.0110   -2.7120   -0.2150 c3        1 G82      0.138400
      5 C5          9.2750   -4.0490   -0.8640 c3        1 G82     -0.100100
      6 C82         5.6530   -1.1290   -0.0240 c3        1 G82     -0.130400
      7 C63         5.0330   -0.3640    1.1240 c3        1 G82     -0.085400
      8 C57         3.6470    0.1970    0.7580 c3        1 G82      0.099700
      9 C59         3.1940    1.1360    1.8990 c3        1 G82     -0.080400
     10 C61         3.4390    2.5880    1.5430 c3        1 G82     -0.143700
     11 C73         3.4290    3.5050    2.7730 c3        1 G82     -0.095400
     12 C71         2.3960    4.6140    2.4690 c3        1 G82      0.082000
     13 N69         1.8360    4.3250    1.1670 n         1 G82     -0.565900
     14 C65         2.3200    3.1360    0.6440 c         1 G82      0.691500
     15 O66         1.9140    2.6200   -0.4110 o         1 G82     -0.648500
     16 N49         2.6690   -0.8350    0.4770 n         1 G82     -0.551900
     17 C39         2.4350   -1.2670   -0.8090 c         1 G82      0.636100
     18 O47         3.2270   -1.0570   -1.7480 o         1 G82     -0.610100
     19 C37         1.1270   -2.0750   -1.0360 c3        1 G82      0.041700
     20 C41         1.3180   -2.9410   -2.2910 c3        1 G82     -0.043100
     21 C51         0.1260   -3.7820   -2.5760 ca        1 G82     -0.089300
     22 C55        -0.7860   -3.4040   -3.5690 ca        1 G82     -0.126000
     23 C11        -1.8980   -4.1990   -3.8410 ca        1 G82     -0.124000
     24 C9         -2.1080   -5.3770   -3.1250 ca        1 G82     -0.127000
     25 C7         -1.2010   -5.7600   -2.1370 ca        1 G82     -0.124000
     26 C53        -0.0890   -4.9670   -1.8630 ca        1 G82     -0.126000
     27 N33        -0.0030   -1.1830   -1.1340 n         1 G82     -0.544900
     28 C31        -0.6290   -0.6600   -0.0310 c         1 G82      0.638100
     29 O35        -0.2500   -0.9220    1.1310 o         1 G82     -0.636100
     30 C23        -1.8330    0.2880   -0.2750 c3        1 G82      0.036700
     31 C25        -1.2950    1.7230   -0.1440 c3        1 G82     -0.087400
     32 C15        -2.3050    2.7230   -0.6630 c3        1 G82     -0.128400
     33 C14        -1.7960    4.1280   -0.5100 c         1 G82      0.660100
     34 O2         -2.1760    4.9130   -1.5520 os        1 G82     -0.440900
     35 C29        -1.8130    6.3170   -1.6090 c3        1 G82      0.171800
     36 C45        -0.3030    6.4770   -1.6540 c3        1 G82     -0.111767
     37 C43        -2.4360    6.7800   -2.9250 c3        1 G82     -0.111767
     38 C12        -2.4220    7.0740   -0.4410 c3        1 G82     -0.111767
     39 O1         -1.1380    4.5960    0.4230 o         1 G82     -0.579000
     40 N21        -2.9080    0.0170    0.6550 n         1 G82     -0.508900
     41 C17        -3.9770   -0.7600    0.2280 c         1 G82      0.727100
     42 O19        -4.3480   -0.9720   -0.9390 o         1 G82     -0.584000
     43 O15        -4.7200   -1.2660    1.2720 os        1 G82     -0.434900
     44 C13        -5.9210   -1.9600    0.8750 c3        1 G82      0.196700
     45 C4         -6.5890   -2.4460    2.1160 ca        1 G82     -0.097300
     46 C2         -6.5530   -1.7040    3.3000 ca        1 G82     -0.111500
     47 C1         -7.2180   -2.1660    4.4360 ca        1 G82     -0.131500
     48 C10        -7.9250   -3.3680    4.3920 ca        1 G82     -0.123000
     49 C8         -7.9620   -4.1110    3.2120 ca        1 G82     -0.131500
     50 C6         -7.2930   -3.6560    2.0770 ca        1 G82     -0.111500
     51 H821        5.5030   -0.5770   -0.9940 hc        1 G82      0.095200
     52 H822        5.1650   -2.1320   -0.1440 hc        1 G82      0.095200
     53 H31C        9.5550   -1.8800   -0.7330 h1        1 G82      0.049700
     54 H32C        9.2890   -2.7100    0.8710 h1        1 G82      0.049700
     55 H51C        8.7060   -4.8570   -0.3440 hc        1 G82      0.046700
     56 H52C        8.9620   -4.0340   -1.9350 hc        1 G82      0.046700
     57 H53C       10.3660   -4.2740   -0.8040 hc        1 G82      0.046700
     58 H631        4.9600   -1.0250    2.0260 hc        1 G82      0.057700
     59 H632        5.6920    0.5060    1.3920 hc        1 G82      0.057700
     60 H57         3.7650    0.8110   -0.1910 h1        1 G82      0.087700
     61 H591        2.1040    0.9990    2.1340 hc        1 G82      0.057700
     62 H592        3.7620    0.8850    2.8330 hc        1 G82      0.057700
     63 H49         1.9520   -0.9780    1.1560 hn        1 G82      0.331500
     64 H61         4.4130    2.6910    0.9930 hc        1 G82      0.088700
     65 H731        3.1330    2.9470    3.6950 hc        1 G82      0.058200
     66 H732        4.4380    3.9490    2.9460 hc        1 G82      0.058200
     67 H711        1.5950    4.6390    3.2570 h1        1 G82      0.045200
     68 H712        2.8920    5.6220    2.4440 h1        1 G82      0.045200
     69 H69         0.9660    4.7150    0.8900 hn        1 G82      0.347500
     70 H37         0.9590   -2.7590   -0.1480 h1        1 G82      0.086700
     71 H411        1.5620   -2.2820   -3.1680 hc        1 G82      0.077200
     72 H412        2.2170   -3.5900   -2.1110 hc        1 G82      0.077200
     73 H33        -0.3180   -0.9480   -2.0460 hn        1 G82      0.329500
     74 H55        -0.6200   -2.4780   -4.1410 ha        1 G82      0.130500
     75 H53         0.6260   -5.2710   -1.0830 ha        1 G82      0.130500
     76 H11        -2.6120   -3.8930   -4.6200 ha        1 G82      0.134000
     77 H9         -2.9860   -6.0030   -3.3400 ha        1 G82      0.133000
     78 H7         -1.3640   -6.6900   -1.5720 ha        1 G82      0.134000
     79 H23        -2.2400    0.1470   -1.3230 h1        1 G82      0.100700
     80 H251       -1.0450    1.9530    0.9260 hc        1 G82      0.086200
     81 H252       -0.3380    1.8010   -0.7300 hc        1 G82      0.086200
     82 H21        -2.6390   -0.0790    1.6130 hn        1 G82      0.333500
     83 H151       -2.5390    2.5240   -1.7430 hc        1 G82      0.085700
     84 H152       -3.2660    2.6550   -0.0860 hc        1 G82      0.085700
     85 H451        0.1290    5.8220   -2.4480 hc        1 G82      0.051033
     86 H452       -0.0490    7.5390   -1.8810 hc        1 G82      0.051033
     87 H453        0.1510    6.1970   -0.6730 hc        1 G82      0.051033
     88 H431       -3.5400    6.6240   -2.9040 hc        1 G82      0.051033
     89 H432       -2.2180    7.8650   -3.0690 hc        1 G82      0.051033
     90 H433       -2.0080    6.2010   -3.7770 hc        1 G82      0.051033
     91 H121       -1.9400    6.7680    0.5190 hc        1 G82      0.051033
     92 H122       -2.2700    8.1690   -0.5900 hc        1 G82      0.051033
     93 H123       -3.5170    6.8650   -0.3770 hc        1 G82      0.051033
     94 H131       -6.5800   -1.2400    0.3180 h1        1 G82      0.065200
     95 H132       -5.6360   -2.8050    0.1930 h1        1 G82      0.065200
     96 H2         -5.9890   -0.7590    3.3310 ha        1 G82      0.138500
     97 H6         -7.3180   -4.2480    1.1500 ha        1 G82      0.138500
     98 H1         -7.1840   -1.5810    5.3660 ha        1 G82      0.133500
     99 H10        -8.4510   -3.7300    5.2870 ha        1 G82      0.132000
    100 H8         -8.5170   -5.0590    3.1760 ha        1 G82      0.133500
@<TRIPOS>BOND
     1    1    2 2   
     2    2    3 1   
     3    2    6 1   
     4    3    4 1   
     5    4    5 1   
     6    4   53 1   
     7    4   54 1   
     8    5   55 1   
     9    5   56 1   
    10    5   57 1   
    11    6    7 1   
    12    6   51 1   
    13    6   52 1   
    14    7    8 1   
    15    7   58 1   
    16    7   59 1   
    17    8    9 1   
    18    8   16 1   
    19    8   60 1   
    20    9   10 1   
    21    9   61 1   
    22    9   62 1   
    23   10   11 1   
    24   10   14 1   
    25   10   64 1   
    26   11   12 1   
    27   11   65 1   
    28   11   66 1   
    29   12   13 1   
    30   12   67 1   
    31   12   68 1   
    32   13   14 1   
    33   13   69 1   
    34   14   15 2   
    35   16   17 1   
    36   16   63 1   
    37   17   18 2   
    38   17   19 1   
    39   19   20 1   
    40   19   27 1   
    41   19   70 1   
    42   20   21 1   
    43   20   71 1   
    44   20   72 1   
    45   21   22 ar  
    46   21   26 ar  
    47   22   23 ar  
    48   22   74 1   
    49   23   24 ar  
    50   23   76 1   
    51   24   25 ar  
    52   24   77 1   
    53   25   26 ar  
    54   25   78 1   
    55   26   75 1   
    56   27   28 1   
    57   27   73 1   
    58   28   29 2   
    59   28   30 1   
    60   30   31 1   
    61   30   40 1   
    62   30   79 1   
    63   31   32 1   
    64   31   80 1   
    65   31   81 1   
    66   32   33 1   
    67   32   83 1   
    68   32   84 1   
    69   33   34 1   
    70   33   39 2   
    71   34   35 1   
    72   35   36 1   
    73   35   37 1   
    74   35   38 1   
    75   36   85 1   
    76   36   86 1   
    77   36   87 1   
    78   37   88 1   
    79   37   89 1   
    80   37   90 1   
    81   38   91 1   
    82   38   92 1   
    83   38   93 1   
    84   40   41 1   
    85   40   82 1   
    86   41   42 2   
    87   41   43 1   
    88   43   44 1   
    89   44   45 1   
    90   44   94 1   
    91   44   95 1   
    92   45   46 ar  
    93   45   50 ar  
    94   46   47 ar  
    95   46   96 1   
    96   47   48 ar  
    97   47   98 1   
    98   48   49 ar  
    99   48   99 1   
   100   49   50 ar  
   101   49  100 1   
   102   50   97 1   
@<TRIPOS>SUBSTRUCTURE
     1 G82         1 TEMP              0 ****  ****    0 ROOT
