@<TRIPOS>MOLECULE
G82
  103   105     1     0     0
SMALL
bcc


@<TRIPOS>ATOM
      1 O88         2.2210   -2.2150   -1.4880 o         1 G82     -0.666000
      2 C84         1.9850   -1.1630   -0.8520 c         1 G82      0.657100
      3 O86         1.6560   -1.2370    0.4410 os        1 G82     -0.375900
      4 C3          1.5820   -2.5550    1.0590 c3        1 G82      0.145400
      5 C5          1.1630   -2.3040    2.4840 c3        1 G82     -0.114100
      6 C82         2.0700    0.2370   -1.3850 c3        1 G82     -0.165400
      7 C63         1.3910    0.4410   -2.7210 c3        1 G82     -0.108400
      8 C57         2.2300    0.0410   -3.9450 c3        1 G82      0.145500
      9 C59         1.8300    0.8790   -5.1740 c3        1 G82     -0.098400
     10 C61         2.9750    1.7720   -5.6060 c3        1 G82     -0.144700
     11 C73         2.5920    2.7830   -6.6980 c3        1 G82     -0.096400
     12 C71         3.6830    2.6470   -7.7870 c3        1 G82      0.070000
     13 N69         4.4750    1.4760   -7.4350 n         1 G82     -0.509900
     14 C65         4.0980    0.9430   -6.2450 c         1 G82      0.720500
     15 O66         4.5680   -0.1110   -5.7270 o         1 G82     -0.830500
     16 N49         2.1030   -1.4520   -4.2060 n4        1 G82     -0.679800
     17 C39         3.0710   -2.0010   -5.1860 c         1 G82      0.570100
     18 O47         2.7550   -1.9900   -6.3740 o         1 G82     -0.459100
     19 C37         4.3470   -2.6830   -4.6690 c3        1 G82      0.094500
     20 C41         4.9570   -1.9940   -3.4340 c3        1 G82     -0.059100
     21 C51         6.2220   -2.6540   -3.0150 ca        1 G82     -0.192300
     22 C55         7.4560   -2.0650   -3.3290 ca        1 G82     -0.127500
     23 C11         8.6390   -2.6300   -2.8540 ca        1 G82     -0.110000
     24 C9          8.5990   -3.7820   -2.0660 ca        1 G82     -0.081000
     25 C7          7.3720   -4.3730   -1.7560 ca        1 G82     -0.110000
     26 C53         6.1860   -3.8100   -2.2250 ca        1 G82     -0.127500
     27 N33         5.3670   -2.7630   -5.7840 n4        1 G82     -0.663800
     28 C31         5.1540   -3.8940   -6.7270 c         1 G82      0.539100
     29 O35         4.5050   -4.8680   -6.3740 o         1 G82     -0.398100
     30 C23         5.7830   -3.7450   -8.1220 c3        1 G82      0.067500
     31 C25         4.6510   -3.4600   -9.1250 c3        1 G82     -0.099400
     32 C15         5.1630   -2.7960  -10.3830 c3        1 G82     -0.169400
     33 C14         5.7370   -1.4280  -10.1040 c         1 G82      0.657100
     34 O2          6.2830   -0.8860  -11.1950 os        1 G82     -0.406900
     35 C29         6.7840    0.4960  -11.2350 c3        1 G82      0.175800
     36 C45         7.7980    0.7390  -10.1360 c3        1 G82     -0.116767
     37 C43         7.4410    0.5610  -12.6100 c3        1 G82     -0.116767
     38 C12         5.6030    1.4450  -11.1510 c3        1 G82     -0.116767
     39 O1          5.7390   -0.8830   -8.9860 o         1 G82     -0.643000
     40 N21         6.5620   -4.9800   -8.4610 n4        1 G82     -0.667800
     41 C17         7.7270   -5.1780   -7.4940 c         1 G82      0.649100
     42 O19         7.6940   -4.5750   -6.4220 o         1 G82     -0.522000
     43 O15         8.6190   -6.0000   -7.9860 os        1 G82     -0.389900
     44 C13         9.8340   -6.3410   -7.1170 c3        1 G82      0.253700
     45 C4         10.5750   -7.3010   -7.9370 ca        1 G82     -0.190300
     46 C2         11.5740   -6.8530   -8.8200 ca        1 G82     -0.070500
     47 C1         12.3260   -7.7720   -9.5430 ca        1 G82     -0.129500
     48 C10        12.0840   -9.1420   -9.4030 ca        1 G82     -0.043000
     49 C8         11.0850   -9.5920   -8.5360 ca        1 G82     -0.129500
     50 C6         10.3280   -8.6790   -7.8090 ca        1 G82     -0.070500
     51 H821        3.1590    0.5150   -1.4320 hc        1 G82      0.117200
     52 H822        1.5900    0.9300   -0.6310 hc        1 G82      0.117200
     53 H31C        2.5950   -3.0260    0.9820 h1        1 G82      0.061700
     54 H32C        0.8330   -3.1620    0.4890 h1        1 G82      0.061700
     55 H51C        1.0910   -3.2870    3.0110 hc        1 G82      0.073367
     56 H52C        1.9100   -1.6620    3.0120 hc        1 G82      0.073367
     57 H53C        0.1700   -1.7960    2.5240 hc        1 G82      0.073367
     58 H631        1.1910    1.5480   -2.8180 hc        1 G82      0.104700
     59 H632        0.3880   -0.0650   -2.7320 hc        1 G82      0.104700
     60 H57         3.3290    0.2090   -3.7160 hx        1 G82      0.118700
     61 H591        0.9410    1.5220   -4.9250 hc        1 G82      0.093700
     62 H592        1.5200    0.2300   -6.0380 hc        1 G82      0.093700
     63 H49         2.2070   -1.9490   -3.2890 hn        1 G82      0.491800
     64 H61         3.4010    2.3160   -4.7190 hc        1 G82      0.106700
     65 H731        1.5840    2.5590   -7.1270 hc        1 G82      0.091700
     66 H732        2.5730    3.8250   -6.2930 hc        1 G82      0.091700
     67 H711        3.2280    2.5060   -8.8050 h1        1 G82      0.086200
     68 H712        4.3420    3.5590   -7.8110 h1        1 G82      0.086200
     69 H69         5.1850    1.1090   -8.0270 hn        1 G82      0.366500
     70 H37         4.0610   -3.7480   -4.3830 hx        1 G82      0.158700
     71 H411        4.2130   -2.0710   -2.5910 hc        1 G82      0.109700
     72 H412        5.1410   -0.9070   -3.6600 hc        1 G82      0.109700
     73 H33         5.3680   -1.8540   -6.3070 hn        1 G82      0.521800
     74 H55         7.4930   -1.1260   -3.9020 ha        1 G82      0.140500
     75 H53         5.2210   -4.2620   -1.9470 ha        1 G82      0.140500
     76 H11         9.6060   -2.1500   -3.0790 ha        1 G82      0.167500
     77 H9          9.5350   -4.2140   -1.6720 ha        1 G82      0.172000
     78 H7          7.3390   -5.2730   -1.1190 ha        1 G82      0.167500
     79 H23         6.5160   -2.8720   -8.1420 hx        1 G82      0.163700
     80 H251        4.0930   -4.4000   -9.3840 hc        1 G82      0.111700
     81 H252        3.9220   -2.7640   -8.6170 hc        1 G82      0.111700
     82 H21         5.9570   -5.8140   -8.4180 hn        1 G82      0.491800
     83 H151        5.9300   -3.4190  -10.9130 hc        1 G82      0.117700
     84 H152        4.3040   -2.6670  -11.1050 hc        1 G82      0.117700
     85 H451        7.2980    0.8380   -9.1430 hc        1 G82      0.062922
     86 H452        8.3540    1.6850  -10.3540 hc        1 G82      0.062922
     87 H453        8.5320   -0.1010  -10.0920 hc        1 G82      0.062922
     88 H431        7.7450    1.6170  -12.8130 hc        1 G82      0.062922
     89 H432        6.7250    0.2300  -13.4010 hc        1 G82      0.062922
     90 H433        8.3430   -0.0940  -12.6430 hc        1 G82      0.062922
     91 H121        4.9120    1.2830  -12.0150 hc        1 G82      0.062922
     92 H122        5.9730    2.4980  -11.1840 hc        1 G82      0.062922
     93 H123        5.0370    1.2840  -10.2030 hc        1 G82      0.062922
     94 H131        9.4080   -6.7620   -6.1730 h1        1 G82      0.088700
     95 H132       10.3530   -5.3640   -6.9540 h1        1 G82      0.088700
     96 H2         11.7750   -5.7750   -8.9250 ha        1 G82      0.138500
     97 H6          9.5490   -9.0380   -7.1190 ha        1 G82      0.138500
     98 H1         13.1210   -7.4220  -10.2230 ha        1 G82      0.169000
     99 H10        12.6870   -9.8690   -9.9750 ha        1 G82      0.173000
    100 H8         10.9010  -10.6740   -8.4240 ha        1 G82      0.169000
    101 H492        1.1510   -1.6270   -4.5640 hn        1 G82      0.491800
    102 H332        6.3060   -2.8870   -5.3370 hn        1 G82      0.521800
    103 H212        6.9270   -4.9010   -9.4240 hn        1 G82      0.491800
@<TRIPOS>BOND
     1    1    2 2   
     2    2    3 1   
     3    2    6 1   
     4    3    4 1   
     5    4    5 1   
     6    4   53 1   
     7    4   54 1   
     8    5   55 1   
     9    5   56 1   
    10    5   57 1   
    11    6    7 1   
    12    6   51 1   
    13    6   52 1   
    14    7    8 1   
    15    7   58 1   
    16    7   59 1   
    17    8    9 1   
    18    8   16 1   
    19    8   60 1   
    20    9   10 1   
    21    9   61 1   
    22    9   62 1   
    23   10   11 1   
    24   10   14 1   
    25   10   64 1   
    26   11   12 1   
    27   11   65 1   
    28   11   66 1   
    29   12   13 1   
    30   12   67 1   
    31   12   68 1   
    32   13   14 1   
    33   13   69 1   
    34   14   15 2   
    35   16   17 1   
    36   16   63 1   
    37   16  101 1   
    38   17   18 2   
    39   17   19 1   
    40   19   20 1   
    41   19   27 1   
    42   19   70 1   
    43   20   21 1   
    44   20   71 1   
    45   20   72 1   
    46   21   22 ar  
    47   21   26 ar  
    48   22   23 ar  
    49   22   74 1   
    50   23   24 ar  
    51   23   76 1   
    52   24   25 ar  
    53   24   77 1   
    54   25   26 ar  
    55   25   78 1   
    56   26   75 1   
    57   27   28 1   
    58   27   73 1   
    59   27  102 1   
    60   28   29 2   
    61   28   30 1   
    62   30   31 1   
    63   30   40 1   
    64   30   79 1   
    65   31   32 1   
    66   31   80 1   
    67   31   81 1   
    68   32   33 1   
    69   32   83 1   
    70   32   84 1   
    71   33   34 1   
    72   33   39 2   
    73   34   35 1   
    74   35   36 1   
    75   35   37 1   
    76   35   38 1   
    77   36   85 1   
    78   36   86 1   
    79   36   87 1   
    80   37   88 1   
    81   37   89 1   
    82   37   90 1   
    83   38   91 1   
    84   38   92 1   
    85   38   93 1   
    86   40   41 1   
    87   40   82 1   
    88   40  103 1   
    89   41   42 2   
    90   41   43 1   
    91   43   44 1   
    92   44   45 1   
    93   44   94 1   
    94   44   95 1   
    95   45   46 ar  
    96   45   50 ar  
    97   46   47 ar  
    98   46   96 1   
    99   47   48 ar  
   100   47   98 1   
   101   48   49 ar  
   102   48   99 1   
   103   49   50 ar  
   104   49  100 1   
   105   50   97 1   
@<TRIPOS>SUBSTRUCTURE
     1 G82         1 TEMP              0 ****  ****    0 ROOT
