@<TRIPOS>MOLECULE
G83
  100   102     1     0     0
SMALL
bcc


@<TRIPOS>ATOM
      1 O19         0.1460   -1.3400   -0.7230 o         1 G83     -0.552000
      2 C17         1.2180   -0.8540   -0.3590 c         1 G83      0.654100
      3 O15         1.5630   -0.3430    0.7960 os        1 G83     -0.380900
      4 C13         0.5090   -0.3000    1.9060 c3        1 G83      0.253700
      5 C4          1.2040    0.3760    3.0030 ca        1 G83     -0.189300
      6 C6          1.1140    1.7720    3.1420 ca        1 G83     -0.069500
      7 C8          1.7160    2.4040    4.2260 ca        1 G83     -0.129000
      8 C10         2.4200    1.6530    5.1720 ca        1 G83     -0.043000
      9 C1          2.5220    0.2660    5.0320 ca        1 G83     -0.129000
     10 C2          1.9230   -0.3720    3.9510 ca        1 G83     -0.069500
     11 N21         2.3630   -0.8070   -1.3560 n4        1 G83     -0.676800
     12 C23         1.8850   -1.0170   -2.7600 c3        1 G83      0.100500
     13 C25         3.0060   -0.8230   -3.7910 c3        1 G83     -0.202400
     14 C14         3.4390    0.6250   -3.8160 c         1 G83      0.656100
     15 O1          3.4860    1.3290   -2.7990 o         1 G83     -0.566000
     16 O2          3.7360    1.0530   -5.0450 os        1 G83     -0.442900
     17 C29         4.3450    2.3920   -5.2640 c3        1 G83      0.185800
     18 C12         5.6550    2.4820   -4.5090 c3        1 G83     -0.124767
     19 C43         4.5690    2.3870   -6.7700 c3        1 G83     -0.124767
     20 C45         3.3620    3.4670   -4.8490 c3        1 G83     -0.124767
     21 C31         1.3370   -2.4420   -2.9590 c         1 G83      0.540100
     22 O35         2.0180   -3.4480   -2.8460 o         1 G83     -0.373100
     23 N33        -0.1100   -2.5640   -3.3200 n4        1 G83     -0.649800
     24 C37        -0.4470   -3.7600   -4.1780 c3        1 G83      0.066500
     25 C41        -1.6020   -4.5990   -3.5830 c3        1 G83     -0.054100
     26 C51        -1.3410   -4.9830   -2.1750 ca        1 G83     -0.190300
     27 C53        -1.9880   -4.3010   -1.1340 ca        1 G83     -0.123000
     28 C7         -1.8290   -4.7270    0.1840 ca        1 G83     -0.111500
     29 C9         -1.0270   -5.8340    0.4710 ca        1 G83     -0.082000
     30 C11        -0.3790   -6.5130   -0.5620 ca        1 G83     -0.111500
     31 C55        -0.5370   -6.0930   -1.8820 ca        1 G83     -0.123000
     32 C39        -0.9180   -3.2910   -5.5660 c         1 G83      0.564100
     33 O47        -1.7030   -2.3640   -5.7210 o         1 G83     -0.427100
     34 N49        -0.4210   -4.0860   -6.7130 n4        1 G83     -0.673800
     35 C57        -1.0030   -3.7080   -8.0600 c3        1 G83      0.135500
     36 C59        -0.0860   -2.7290   -8.8050 c3        1 G83     -0.102400
     37 C61        -0.0530   -1.3330   -8.2200 c3        1 G83     -0.148700
     38 C73         0.3880   -0.2950   -9.2720 c3        1 G83     -0.098400
     39 C71         1.6110    0.4310   -8.6740 c3        1 G83      0.066000
     40 N69         1.8490   -0.1710   -7.3680 n         1 G83     -0.506900
     41 C65         0.9560   -1.1500   -7.0740 c         1 G83      0.710500
     42 O66         0.9380   -1.7900   -5.9770 o         1 G83     -0.858500
     43 C63        -1.2420   -4.9660   -8.9130 c3        1 G83     -0.104400
     44 C82        -2.5420   -5.6830   -8.6200 c3        1 G83     -0.165400
     45 C84        -2.4880   -6.6220   -7.4500 c         1 G83      0.664100
     46 O88        -1.8540   -6.4570   -6.3830 o         1 G83     -0.680000
     47 O86        -3.2380   -7.7170   -7.6030 os        1 G83     -0.375900
     48 C3         -3.2810   -8.6830   -6.5130 c3        1 G83      0.146400
     49 C5         -4.1760   -9.7930   -7.0000 c3        1 G83     -0.114100
     50 H21         2.8230    0.1390   -1.3070 hn        1 G83      0.510300
     51 H131        0.2560   -1.3710    2.1010 h1        1 G83      0.087700
     52 H132       -0.3490    0.2710    1.4720 h1        1 G83      0.087700
     53 H6          0.5520    2.3660    2.4040 ha        1 G83      0.138000
     54 H2          1.9980   -1.4660    3.8490 ha        1 G83      0.138000
     55 H8          1.6320    3.4970    4.3430 ha        1 G83      0.169000
     56 H10         2.8910    2.1560    6.0340 ha        1 G83      0.173000
     57 H1          3.0740   -0.3230    5.7840 ha        1 G83      0.169000
     58 H23         1.0800   -0.2360   -2.9380 hx        1 G83      0.145700
     59 H251        3.9020   -1.4640   -3.5630 hc        1 G83      0.140200
     60 H252        2.6180   -1.1320   -4.8040 hc        1 G83      0.140200
     61 H121        6.3170    1.6210   -4.7650 hc        1 G83      0.068811
     62 H122        5.4780    2.4970   -3.4060 hc        1 G83      0.068811
     63 H123        6.1760    3.4290   -4.7960 hc        1 G83      0.068811
     64 H431        3.6030    2.2500   -7.3110 hc        1 G83      0.068811
     65 H432        5.0160    3.3690   -7.0660 hc        1 G83      0.068811
     66 H433        5.2710    1.5700   -7.0610 hc        1 G83      0.068811
     67 H451        3.2250    3.4740   -3.7410 hc        1 G83      0.068811
     68 H452        2.3730    3.3080   -5.3410 hc        1 G83      0.068811
     69 H453        3.7610    4.4640   -5.1620 hc        1 G83      0.068811
     70 H33        -0.4150   -1.7030   -3.8020 hn        1 G83      0.502800
     71 H37         0.4790   -4.4110   -4.2390 hx        1 G83      0.146700
     72 H411       -2.5660   -4.0250   -3.6640 hc        1 G83      0.115700
     73 H412       -1.7000   -5.5220   -4.2280 hc        1 G83      0.115700
     74 H53        -2.6710   -3.4660   -1.3540 ha        1 G83      0.138500
     75 H55        -0.0540   -6.6570   -2.6950 ha        1 G83      0.138500
     76 H7         -2.3660   -4.2100    0.9960 ha        1 G83      0.168500
     77 H9         -0.9250   -6.1860    1.5120 ha        1 G83      0.173000
     78 H11         0.2390   -7.3990   -0.3380 ha        1 G83      0.168500
     79 H49        -0.6340   -5.0990   -6.5290 hn        1 G83      0.493300
     80 H57        -1.9990   -3.2030   -7.8640 hx        1 G83      0.127700
     81 H591        0.9520   -3.1470   -8.9010 hc        1 G83      0.102200
     82 H592       -0.4990   -2.6470   -9.8540 hc        1 G83      0.102200
     83 H631       -1.2850   -4.6300   -9.9890 hc        1 G83      0.102700
     84 H632       -0.3770   -5.6780   -8.8370 hc        1 G83      0.102700
     85 H61        -1.0680   -1.0630   -7.8140 hc        1 G83      0.108700
     86 H731       -0.4380    0.4320   -9.4770 hc        1 G83      0.095700
     87 H732        0.6670   -0.7790  -10.2410 hc        1 G83      0.095700
     88 H711        1.4120    1.5320   -8.5510 h1        1 G83      0.092200
     89 H712        2.5210    0.3020   -9.3220 h1        1 G83      0.092200
     90 H69         2.5840    0.1440   -6.7770 hn        1 G83      0.361500
     91 H821       -2.8340   -6.2820   -9.5340 hc        1 G83      0.122200
     92 H822       -3.3800   -4.9570   -8.4340 hc        1 G83      0.122200
     93 H31C       -2.2340   -9.0280   -6.3160 h1        1 G83      0.060200
     94 H32C       -3.6910   -8.1630   -5.6090 h1        1 G83      0.060200
     95 H51C       -4.2480  -10.5690   -6.1980 hc        1 G83      0.074033
     96 H52C       -5.2000   -9.4090   -7.2280 hc        1 G83      0.074033
     97 H53C       -3.7620  -10.2630   -7.9240 hc        1 G83      0.074033
     98 H212        3.0680   -1.5100   -1.0950 hn        1 G83      0.510300
     99 H332       -0.6400   -2.6550   -2.4190 hn        1 G83      0.502800
    100 H492        0.6010   -3.9550   -6.7480 hn        1 G83      0.493300
@<TRIPOS>BOND
     1    1    2 2   
     2    2    3 1   
     3    2   11 1   
     4    3    4 1   
     5    4    5 1   
     6    4   51 1   
     7    4   52 1   
     8    5    6 ar  
     9    5   10 ar  
    10    6    7 ar  
    11    6   53 1   
    12    7    8 ar  
    13    7   55 1   
    14    8    9 ar  
    15    8   56 1   
    16    9   10 ar  
    17    9   57 1   
    18   10   54 1   
    19   11   12 1   
    20   11   50 1   
    21   11   98 1   
    22   12   13 1   
    23   12   21 1   
    24   12   58 1   
    25   13   14 1   
    26   13   59 1   
    27   13   60 1   
    28   14   15 2   
    29   14   16 1   
    30   16   17 1   
    31   17   18 1   
    32   17   19 1   
    33   17   20 1   
    34   18   61 1   
    35   18   62 1   
    36   18   63 1   
    37   19   64 1   
    38   19   65 1   
    39   19   66 1   
    40   20   67 1   
    41   20   68 1   
    42   20   69 1   
    43   21   22 2   
    44   21   23 1   
    45   23   24 1   
    46   23   70 1   
    47   23   99 1   
    48   24   25 1   
    49   24   32 1   
    50   24   71 1   
    51   25   26 1   
    52   25   72 1   
    53   25   73 1   
    54   26   27 ar  
    55   26   31 ar  
    56   27   28 ar  
    57   27   74 1   
    58   28   29 ar  
    59   28   76 1   
    60   29   30 ar  
    61   29   77 1   
    62   30   31 ar  
    63   30   78 1   
    64   31   75 1   
    65   32   33 2   
    66   32   34 1   
    67   34   35 1   
    68   34   79 1   
    69   34  100 1   
    70   35   36 1   
    71   35   43 1   
    72   35   80 1   
    73   36   37 1   
    74   36   81 1   
    75   36   82 1   
    76   37   38 1   
    77   37   41 1   
    78   37   85 1   
    79   38   39 1   
    80   38   86 1   
    81   38   87 1   
    82   39   40 1   
    83   39   88 1   
    84   39   89 1   
    85   40   41 1   
    86   40   90 1   
    87   41   42 2   
    88   43   44 1   
    89   43   83 1   
    90   43   84 1   
    91   44   45 1   
    92   44   91 1   
    93   44   92 1   
    94   45   46 2   
    95   45   47 1   
    96   47   48 1   
    97   48   49 1   
    98   48   93 1   
    99   48   94 1   
   100   49   95 1   
   101   49   96 1   
   102   49   97 1   
@<TRIPOS>SUBSTRUCTURE
     1 G83         1 TEMP              0 ****  ****    0 ROOT
