@<TRIPOS>MOLECULE
G83
   97    94     1     0     0
SMALL
bcc


@<TRIPOS>ATOM
      1 O19         1.0080    3.5430    3.9830 o         1 G83     -0.384000
      2 C17         1.4930    3.3700    2.8800 c1        1 G83      0.383000
      3 O15         2.6790    4.1060    2.4850 o         1 G83     -0.272000
      4 C13         2.8730    5.3390    3.2110 c3        1 G83      0.039000
      5 C4          3.8260    6.2520    2.4260 c2        1 G83     -0.090000
      6 C6          3.3160    7.2150    1.5680 c1        1 G83     -0.103000
      7 C8          4.1820    8.0580    0.8740 c1        1 G83     -0.126000
      8 C10         5.5560    7.9310    1.0410 c1        1 G83     -0.126000
      9 C1          6.0650    6.9670    1.8990 c1        1 G83     -0.131000
     10 C2          5.2010    6.1270    2.5920 c2        1 G83     -0.119000
     11 N21         0.8910    2.4160    1.9630 n3        1 G83     -0.313000
     12 C23        -0.3440    1.7680    2.3070 c3        1 G83      0.011000
     13 C25        -1.3880    2.1110    1.2890 c3        1 G83     -0.168000
     14 C14        -1.8190    3.5860    1.4670 c2        1 G83      0.321000
     15 O1         -1.4780    4.2010    2.4540 o         1 G83     -0.352000
     16 O2         -2.6790    4.2110    0.4880 os        1 G83     -0.278000
     17 C29        -3.2510    5.4700    0.9290 c3        1 G83      0.101000
     18 C12        -2.1630    6.5260    0.9880 c3        1 G83     -0.231000
     19 C43        -4.3340    5.9080   -0.0530 c3        1 G83     -0.231000
     20 C45        -3.8610    5.2930    2.3110 c3        1 G83     -0.231000
     21 C31        -0.1350    0.2480    2.3350 c2        1 G83      0.274000
     22 O35         0.9320   -0.2060    2.6660 o         1 G83     -0.391000
     23 N33        -1.2640   -0.6470    2.0990 n         1 G83     -0.353000
     24 C37        -1.0290   -2.0090    1.7330 c3        1 G83      0.013000
     25 C41        -2.1540   -2.8790    2.2670 c3        1 G83     -0.130000
     26 C51        -1.6900   -3.5820    3.6090 c2        1 G83     -0.087000
     27 C53        -2.4480   -3.4340    4.7680 c2        1 G83     -0.132000
     28 C7         -2.1290   -4.1740    5.9120 c1        1 G83     -0.120000
     29 C9         -1.0530   -5.0580    5.8930 c1        1 G83     -0.126000
     30 C11        -0.2940   -5.2060    4.7370 c1        1 G83     -0.126000
     31 C55        -0.6110   -4.4680    3.5930 c1        1 G83     -0.123000
     32 C39        -0.9710   -2.1260    0.2070 c2        1 G83      0.289000
     33 O47        -1.5240   -1.2900   -0.4880 o         1 G83     -0.372000
     34 N49        -0.2730   -3.2630   -0.4230 n         1 G83     -0.373000
     35 C57         0.0170   -3.2360   -1.8390 c3        1 G83      0.021000
     36 C59         1.4030   -2.7080   -2.0560 c3        1 G83     -0.156000
     37 C61         1.6220   -2.4250   -3.5810 c3        1 G83     -0.129000
     38 C73         3.2310   -2.7880   -4.0020 c3        1 G83     -0.173000
     39 C71         3.4910   -2.1430   -4.9790 c3        1 G83     -0.026000
     40 N69         2.6320   -0.9670   -4.9180 n         1 G83     -0.394000
     41 C65         1.5710   -1.2530   -3.7780 c2        1 G83      0.300000
     42 O66         0.6750   -0.5150   -3.4420 o         1 G83     -0.347000
     43 C63        -0.0860   -4.6490   -2.4110 c3        1 G83     -0.172000
     44 C82        -1.3190   -4.7490   -3.3060 c3        1 G83     -0.164000
     45 C84        -1.2580   -6.0540   -4.1200 c2        1 G83      0.303000
     46 O88        -1.0030   -7.1100   -3.5590 o         1 G83     -0.366000
     47 O86        -1.6610   -6.0560   -5.4900 os        1 G83     -0.280000
     48 C3         -1.3640   -7.2570   -6.1760 c3        1 G83     -0.012000
     49 C5         -1.8760   -7.1610   -7.6170 c3        1 G83     -0.218000
     50 H21         1.2770    2.2590    1.1500 hn        1 G83      0.244000
     51 H131        3.2640    5.1410    4.0960 h1        1 G83      0.105500
     52 H132        2.0050    5.7910    3.3280 h1        1 G83      0.105500
     53 H6          2.3490    7.3040    1.4520 ha        1 G83      0.144000
     54 H2          5.5590    5.4490    3.1940 ha        1 G83      0.134000
     55 H8          3.8240    8.7370    0.2690 ha        1 G83      0.133000
     56 H10         6.1620    8.5200    0.5550 ha        1 G83      0.133000
     57 H1          7.0310    6.8790    2.0160 ha        1 G83      0.133000
     58 H23        -0.6370    2.0730    3.1890 h1        1 G83      0.163000
     59 H251       -2.1670    1.5260    1.4090 hc        1 G83      0.134500
     60 H252       -1.0200    1.9840    0.3870 hc        1 G83      0.134500
     61 H121       -1.7530    6.5260    1.8850 hc        1 G83      0.091000
     62 H122       -2.5560    7.4140    0.8050 hc        1 G83      0.091000
     63 H123       -1.4790    6.3280    0.3160 hc        1 G83      0.091000
     64 H431       -4.7120    6.7680    0.2380 hc        1 G83      0.091000
     65 H432       -5.0410    5.2340   -0.0800 hc        1 G83      0.091000
     66 H433       -3.9410    6.0090   -0.9500 hc        1 G83      0.091000
     67 H451       -3.1520    5.3620    2.9950 hc        1 G83      0.091000
     68 H452       -4.5350    5.9940    2.4650 hc        1 G83      0.091000
     69 H453       -4.2810    4.4240    2.3690 hc        1 G83      0.091000
     70 H33        -2.1120   -0.3620    2.2680 hn        1 G83      0.244000
     71 H37        -0.1820   -2.3050    2.1120 h1        1 G83      0.125000
     72 H411       -2.9370   -2.3240    2.4440 hc        1 G83      0.118000
     73 H412       -2.3820   -3.5630    1.6020 hc        1 G83      0.118000
     74 H53        -3.2020   -2.8160    4.7810 ha        1 G83      0.130000
     75 H55        -0.0760   -4.5730    2.7780 ha        1 G83      0.133000
     76 H7         -2.6670   -4.0690    6.7330 ha        1 G83      0.136000
     77 H9         -0.8280   -5.5800    6.7020 ha        1 G83      0.133000
     78 H11         0.4650   -5.8300    4.7240 ha        1 G83      0.133000
     79 H49        -0.0040   -3.9710    0.0850 hn        1 G83      0.249000
     80 H57        -0.6210   -2.6590   -2.2870 h1        1 G83      0.147000
     81 H591        2.0570   -3.3710   -1.7490 hc        1 G83      0.095000
     82 H592        1.5180   -1.8770   -1.5490 hc        1 G83      0.095000
     83 H631       -0.1630   -5.2950   -1.6760 hc        1 G83      0.097000
     84 H632        0.7250   -4.8500   -2.9440 hc        1 G83      0.097000
     85 H61         0.9200   -2.9780   -3.9780 hc        1 G83      0.126000
     86 H731        3.3180   -3.7420   -4.2000 hc        1 G83      0.099000
     87 H732        3.8370   -2.5400   -3.2650 hc        1 G83      0.099000
     88 H711        3.2960   -2.6630   -5.7910 h1        1 G83      0.082000
     89 H712        4.4400   -1.8720   -4.9670 h1        1 G83      0.082000
     90 H69         2.8040   -0.1560   -5.3000 hn        1 G83      0.245000
     91 H821       -2.1160   -4.7480   -2.7580 hc        1 G83      0.135500
     92 H822       -1.3420   -3.9890   -3.9130 hc        1 G83      0.135500
     93 H31C       -1.8000   -8.0070   -5.7240 h1        1 G83      0.089000
     94 H32C       -0.3960   -7.3990   -6.1810 h1        1 G83      0.089000
     95 H51C       -1.6550   -6.2740   -7.9860 hc        1 G83      0.086667
     96 H52C       -1.4540   -7.8510   -8.1570 hc        1 G83      0.086667
     97 H53C       -2.8410   -7.2860   -7.6270 hc        1 G83      0.086667
@<TRIPOS>BOND
     1    1    2 1   
     2    2   11 1   
     3    3    4 1   
     4    4    5 1   
     5    4   51 1   
     6    4   52 1   
     7    5    6 1   
     8    5   10 1   
     9    6   53 1   
    10    7    8 1   
    11    7   55 1   
    12    8   56 1   
    13    9   10 1   
    14    9   57 1   
    15   10   54 1   
    16   11   12 1   
    17   11   50 1   
    18   12   13 1   
    19   12   21 1   
    20   12   58 1   
    21   13   14 1   
    22   13   59 1   
    23   13   60 1   
    24   14   15 1   
    25   14   16 1   
    26   16   17 1   
    27   17   18 1   
    28   17   19 1   
    29   17   20 1   
    30   18   61 1   
    31   18   62 1   
    32   18   63 1   
    33   19   64 1   
    34   19   65 1   
    35   19   66 1   
    36   20   67 1   
    37   20   68 1   
    38   20   69 1   
    39   21   22 1   
    40   21   23 1   
    41   23   24 1   
    42   23   70 1   
    43   24   25 1   
    44   24   32 1   
    45   24   71 1   
    46   25   26 1   
    47   25   72 1   
    48   25   73 1   
    49   26   27 1   
    50   26   31 1   
    51   27   28 1   
    52   27   74 1   
    53   28   76 1   
    54   29   30 1   
    55   29   77 1   
    56   30   78 1   
    57   31   75 1   
    58   32   33 1   
    59   32   34 1   
    60   34   35 1   
    61   34   79 1   
    62   35   36 1   
    63   35   43 1   
    64   35   80 1   
    65   36   37 1   
    66   36   81 1   
    67   36   82 1   
    68   37   38 1   
    69   37   41 1   
    70   37   85 1   
    71   38   39 1   
    72   38   86 1   
    73   38   87 1   
    74   39   40 1   
    75   39   88 1   
    76   39   89 1   
    77   40   41 1   
    78   40   90 1   
    79   41   42 1   
    80   43   44 1   
    81   43   83 1   
    82   43   84 1   
    83   44   45 1   
    84   44   91 1   
    85   44   92 1   
    86   45   46 1   
    87   45   47 1   
    88   47   48 1   
    89   48   49 1   
    90   48   93 1   
    91   48   94 1   
    92   49   95 1   
    93   49   96 1   
    94   49   97 1   
@<TRIPOS>SUBSTRUCTURE
     1 G83         1 TEMP              0 ****  ****    0 ROOT
