@<TRIPOS>MOLECULE
G83
  100   102     1     0     0
SMALL
bcc


@<TRIPOS>ATOM
      1 O19         0.1200   -1.2820   -0.7390 o         1 G83     -0.552000
      2 C17         1.1920   -0.7970   -0.3730 c         1 G83      0.654100
      3 O15         1.5280   -0.2660    0.7760 os        1 G83     -0.380900
      4 C13         0.4640   -0.1960    1.8730 c3        1 G83      0.253700
      5 C4          1.1470    0.5090    2.9600 ca        1 G83     -0.189300
      6 C6          1.0520    1.9080    3.0630 ca        1 G83     -0.069500
      7 C8          1.6420    2.5670    4.1370 ca        1 G83     -0.129000
      8 C10         2.3410    1.8430    5.1070 ca        1 G83     -0.043000
      9 C1          2.4490    0.4530    5.0020 ca        1 G83     -0.129000
     10 C2          1.8600   -0.2140    3.9330 ca        1 G83     -0.069500
     11 N21         2.3470   -0.7760   -1.3590 n4        1 G83     -0.676800
     12 C23         1.8820   -1.0090   -2.7640 c3        1 G83      0.100500
     13 C25         3.0140   -0.8420   -3.7860 c3        1 G83     -0.202400
     14 C14         3.4590    0.6020   -3.8340 c         1 G83      0.656100
     15 O1          3.5010    1.3250   -2.8290 o         1 G83     -0.566000
     16 O2          3.7710    1.0050   -5.0670 os        1 G83     -0.442900
     17 C29         4.3930    2.3360   -5.3050 c3        1 G83      0.185800
     18 C12         5.6950    2.4300   -4.5380 c3        1 G83     -0.124767
     19 C43         4.6320    2.3010   -6.8080 c3        1 G83     -0.124767
     20 C45         3.4140    3.4250   -4.9200 c3        1 G83     -0.124767
     21 C31         1.3260   -2.4330   -2.9420 c         1 G83      0.540100
     22 O35         1.9990   -3.4420   -2.8040 o         1 G83     -0.373100
     23 N33        -0.1180   -2.5520   -3.3160 n4        1 G83     -0.649800
     24 C37        -0.4550   -3.7620   -4.1540 c3        1 G83      0.066500
     25 C41        -1.6220   -4.5820   -3.5560 c3        1 G83     -0.054100
     26 C51        -1.3770   -4.9420   -2.1390 ca        1 G83     -0.190300
     27 C53        -2.0300   -4.2360   -1.1170 ca        1 G83     -0.123000
     28 C7         -1.8870   -4.6390    0.2100 ca        1 G83     -0.111500
     29 C9         -1.0950   -5.7450    0.5260 ca        1 G83     -0.082000
     30 C11        -0.4420   -6.4480   -0.4890 ca        1 G83     -0.111500
     31 C55        -0.5850   -6.0510   -1.8180 ca        1 G83     -0.123000
     32 C39        -0.9090   -3.3150   -5.5560 c         1 G83      0.564100
     33 O47        -1.6860   -2.3850   -5.7360 o         1 G83     -0.427100
     34 N49        -0.4050   -4.1340   -6.6830 n4        1 G83     -0.673800
     35 C57        -0.9720   -3.7760   -8.0420 c3        1 G83      0.135500
     36 C59        -0.0410   -2.8180   -8.7960 c3        1 G83     -0.102400
     37 C61        -0.0040   -1.4110   -8.2360 c3        1 G83     -0.148700
     38 C73         0.4550   -0.3950   -9.3020 c3        1 G83     -0.098400
     39 C71         1.6760    0.3330   -8.7050 c3        1 G83      0.066000
     40 N69         1.8970   -0.2470   -7.3860 n         1 G83     -0.506900
     41 C65         0.9940   -1.2140   -7.0840 c         1 G83      0.710500
     42 O66         0.9620   -1.8340   -5.9750 o         1 G83     -0.858500
     43 C63        -1.2110   -5.0480   -8.8740 c3        1 G83     -0.104400
     44 C82        -2.5180   -5.7510   -8.5820 c3        1 G83     -0.165400
     45 C84        -2.4830   -6.6680   -7.3950 c         1 G83      0.664100
     46 O88        -1.8580   -6.4890   -6.3250 o         1 G83     -0.680000
     47 O86        -3.2390   -7.7610   -7.5350 os        1 G83     -0.375900
     48 C3         -3.3000   -8.7060   -6.4280 c3        1 G83      0.146400
     49 C5         -4.1980   -9.8190   -6.9030 c3        1 G83     -0.114100
     50 H21         3.0440   -1.4790   -1.0780 hn        1 G83      0.510300
     51 H131        0.2110   -1.2620    2.0940 h1        1 G83      0.087700
     52 H132       -0.3910    0.3610    1.4180 h1        1 G83      0.087700
     53 H6          0.4950    2.4810    2.3060 ha        1 G83      0.138000
     54 H2          1.9400   -1.3090    3.8580 ha        1 G83      0.138000
     55 H8          1.5540    3.6630    4.2270 ha        1 G83      0.169000
     56 H10         2.8030    2.3690    5.9600 ha        1 G83      0.173000
     57 H1          2.9950   -0.1150    5.7730 ha        1 G83      0.169000
     58 H23         1.0840   -0.2260   -2.9640 hx        1 G83      0.145700
     59 H251        2.6350   -1.1660   -4.7980 hc        1 G83      0.140200
     60 H252        3.9040   -1.4850   -3.5380 hc        1 G83      0.140200
     61 H121        6.2270    3.3680   -4.8370 hc        1 G83      0.068811
     62 H122        6.3530    1.5590   -4.7710 hc        1 G83      0.068811
     63 H123        5.5070    2.4660   -3.4380 hc        1 G83      0.068811
     64 H431        5.0880    3.2740   -7.1170 hc        1 G83      0.068811
     65 H432        3.6700    2.1620   -7.3560 hc        1 G83      0.068811
     66 H433        5.3300    1.4730   -7.0770 hc        1 G83      0.068811
     67 H451        2.4290    3.2650   -5.4180 hc        1 G83      0.068811
     68 H452        3.2660    3.4540   -3.8130 hc        1 G83      0.068811
     69 H453        3.8230    4.4140   -5.2470 hc        1 G83      0.068811
     70 H33        -0.6580   -2.6230   -2.4180 hn        1 G83      0.502800
     71 H37         0.4670   -4.4190   -4.1940 hx        1 G83      0.146700
     72 H411       -1.7190   -5.5160   -4.1850 hc        1 G83      0.115700
     73 H412       -2.5800   -4.0020   -3.6580 hc        1 G83      0.115700
     74 H53        -2.7040   -3.4000   -1.3590 ha        1 G83      0.138500
     75 H55        -0.0980   -6.6330   -2.6150 ha        1 G83      0.138500
     76 H7         -2.4280   -4.1030    1.0070 ha        1 G83      0.168500
     77 H9         -1.0060   -6.0790    1.5740 ha        1 G83      0.173000
     78 H11         0.1670   -7.3340   -0.2420 ha        1 G83      0.168500
     79 H49        -0.6280   -5.1420   -6.4820 hn        1 G83      0.493300
     80 H57        -1.9660   -3.2610   -7.8660 hx        1 G83      0.127700
     81 H591        0.9950   -3.2440   -8.8740 hc        1 G83      0.102200
     82 H592       -0.4420   -2.7520   -9.8500 hc        1 G83      0.102200
     83 H631       -1.2400   -4.7310   -9.9570 hc        1 G83      0.102700
     84 H632       -0.3510   -5.7640   -8.7770 hc        1 G83      0.102700
     85 H61        -1.0210   -1.1270   -7.8450 hc        1 G83      0.108700
     86 H731       -0.3640    0.3330   -9.5280 hc        1 G83      0.095700
     87 H732        0.7400   -0.8990  -10.2590 hc        1 G83      0.095700
     88 H711        2.5930    0.1860   -9.3410 h1        1 G83      0.092200
     89 H712        1.4850    1.4370   -8.6050 h1        1 G83      0.092200
     90 H69         2.6280    0.0750   -6.7930 hn        1 G83      0.361500
     91 H821       -3.3530   -5.0160   -8.4190 hc        1 G83      0.122200
     92 H822       -2.8050   -6.3650   -9.4880 hc        1 G83      0.122200
     93 H31C       -3.7140   -8.1670   -5.5380 h1        1 G83      0.060200
     94 H32C       -2.2570   -9.0550   -6.2140 h1        1 G83      0.060200
     95 H51C       -4.2840  -10.5800   -6.0880 hc        1 G83      0.074033
     96 H52C       -3.7780  -10.3090   -7.8150 hc        1 G83      0.074033
     97 H53C       -5.2170   -9.4320   -7.1480 hc        1 G83      0.074033
     98 H212        2.8130    0.1670   -1.3230 hn        1 G83      0.510300
     99 H332       -0.4120   -1.6980   -3.8160 hn        1 G83      0.502800
    100 H492        0.6180   -4.0100   -6.7100 hn        1 G83      0.493300
@<TRIPOS>BOND
     1    1    2 2   
     2    2    3 1   
     3    2   11 1   
     4    3    4 1   
     5    4    5 1   
     6    4   51 1   
     7    4   52 1   
     8    5    6 ar  
     9    5   10 ar  
    10    6    7 ar  
    11    6   53 1   
    12    7    8 ar  
    13    7   55 1   
    14    8    9 ar  
    15    8   56 1   
    16    9   10 ar  
    17    9   57 1   
    18   10   54 1   
    19   11   12 1   
    20   11   50 1   
    21   11   98 1   
    22   12   13 1   
    23   12   21 1   
    24   12   58 1   
    25   13   14 1   
    26   13   59 1   
    27   13   60 1   
    28   14   15 2   
    29   14   16 1   
    30   16   17 1   
    31   17   18 1   
    32   17   19 1   
    33   17   20 1   
    34   18   61 1   
    35   18   62 1   
    36   18   63 1   
    37   19   64 1   
    38   19   65 1   
    39   19   66 1   
    40   20   67 1   
    41   20   68 1   
    42   20   69 1   
    43   21   22 2   
    44   21   23 1   
    45   23   24 1   
    46   23   70 1   
    47   23   99 1   
    48   24   25 1   
    49   24   32 1   
    50   24   71 1   
    51   25   26 1   
    52   25   72 1   
    53   25   73 1   
    54   26   27 ar  
    55   26   31 ar  
    56   27   28 ar  
    57   27   74 1   
    58   28   29 ar  
    59   28   76 1   
    60   29   30 ar  
    61   29   77 1   
    62   30   31 ar  
    63   30   78 1   
    64   31   75 1   
    65   32   33 2   
    66   32   34 1   
    67   34   35 1   
    68   34   79 1   
    69   34  100 1   
    70   35   36 1   
    71   35   43 1   
    72   35   80 1   
    73   36   37 1   
    74   36   81 1   
    75   36   82 1   
    76   37   38 1   
    77   37   41 1   
    78   37   85 1   
    79   38   39 1   
    80   38   86 1   
    81   38   87 1   
    82   39   40 1   
    83   39   88 1   
    84   39   89 1   
    85   40   41 1   
    86   40   90 1   
    87   41   42 2   
    88   43   44 1   
    89   43   83 1   
    90   43   84 1   
    91   44   45 1   
    92   44   91 1   
    93   44   92 1   
    94   45   46 2   
    95   45   47 1   
    96   47   48 1   
    97   48   49 1   
    98   48   93 1   
    99   48   94 1   
   100   49   95 1   
   101   49   96 1   
   102   49   97 1   
@<TRIPOS>SUBSTRUCTURE
     1 G83         1 TEMP              0 ****  ****    0 ROOT
