@<TRIPOS>MOLECULE
G83
   97    99     1     0     0
SMALL
bcc


@<TRIPOS>ATOM
      1 O19         4.2980   -0.7110    0.9260 o         1 G83     -0.572000
      2 C17         3.8550   -0.2370   -0.1310 c         1 G83      0.731100
      3 O15         4.6000   -0.3530   -1.2850 os        1 G83     -0.436900
      4 C13         5.9160   -0.9170   -1.0950 c3        1 G83      0.195700
      5 C4          6.5990   -0.9110   -2.4200 ca        1 G83     -0.096300
      6 C6          7.9760   -0.6670   -2.4740 ca        1 G83     -0.111000
      7 C8          8.6430   -0.7020   -3.6970 ca        1 G83     -0.132000
      8 C10         7.9400   -0.9710   -4.8720 ca        1 G83     -0.124000
      9 C1          6.5660   -1.2070   -4.8210 ca        1 G83     -0.132000
     10 C2          5.8960   -1.1800   -3.5990 ca        1 G83     -0.111000
     11 N21         2.6820    0.4840   -0.3270 n         1 G83     -0.502900
     12 C23         1.6440    0.3960    0.6730 c3        1 G83      0.042700
     13 C25         0.8610    1.7110    0.8080 c3        1 G83     -0.149400
     14 C14         1.7240    2.8370    1.2890 c         1 G83      0.657100
     15 O1          2.6690    2.7880    2.0750 o         1 G83     -0.532000
     16 O2          1.3110    4.0290    0.7660 os        1 G83     -0.464900
     17 C29         1.9660    5.2690    1.1350 c3        1 G83      0.173800
     18 C12         3.4100    5.2660    0.6590 c3        1 G83     -0.115100
     19 C43         1.1580    6.3240    0.3810 c3        1 G83     -0.115100
     20 C45         1.8720    5.5070    2.6330 c3        1 G83     -0.115100
     21 C31         0.5740   -0.6720    0.3140 c         1 G83      0.634100
     22 O35         0.2590   -0.8800   -0.8780 o         1 G83     -0.639100
     23 N33        -0.0320   -1.3290    1.3520 n         1 G83     -0.542900
     24 C37        -1.1220   -2.2540    1.1530 c3        1 G83      0.042700
     25 C41        -1.3150   -3.2190    2.3340 c3        1 G83     -0.043100
     26 C51        -0.0940   -4.0220    2.6030 ca        1 G83     -0.090300
     27 C53         0.7800   -3.6560    3.6330 ca        1 G83     -0.126000
     28 C7          1.9210   -4.4150    3.8890 ca        1 G83     -0.124000
     29 C9          2.1970   -5.5450    3.1190 ca        1 G83     -0.125000
     30 C11         1.3280   -5.9160    2.0930 ca        1 G83     -0.124000
     31 C55         0.1870   -5.1590    1.8350 ca        1 G83     -0.126000
     32 C39        -2.4520   -1.4730    0.9490 c         1 G83      0.636100
     33 O47        -3.2790   -1.3650    1.8730 o         1 G83     -0.606100
     34 N49        -2.6580   -0.9380   -0.3030 n         1 G83     -0.555900
     35 C57        -3.6410    0.1020   -0.5330 c3        1 G83      0.099700
     36 C59        -3.1580    1.1390   -1.5730 c3        1 G83     -0.082400
     37 C61        -3.3590    2.5590   -1.0840 c3        1 G83     -0.140700
     38 C73        -3.1900    3.5890   -2.2110 c3        1 G83     -0.095400
     39 C71        -2.0430    4.5250   -1.7670 c3        1 G83      0.087000
     40 N69        -1.6060    4.0670   -0.4690 n         1 G83     -0.581900
     41 C65        -2.2920    2.9420   -0.0480 c         1 G83      0.694500
     42 O66        -2.0660    2.3500    1.0210 o         1 G83     -0.650500
     43 C63        -5.0040   -0.4420   -0.9970 c3        1 G83     -0.085400
     44 C82        -5.6490   -1.3160    0.0550 c3        1 G83     -0.130400
     45 C84        -7.1120   -1.4830   -0.2120 c         1 G83      0.633100
     46 O88        -7.9070   -0.6840   -0.7150 o         1 G83     -0.557000
     47 O86        -7.5880   -2.7000    0.1900 os        1 G83     -0.441900
     48 C3         -8.9970   -2.9310    0.0140 c3        1 G83      0.138400
     49 C5         -9.2700   -4.3150    0.5490 c3        1 G83     -0.100100
     50 H21         2.3690    0.5670   -1.2730 hn        1 G83      0.328500
     51 H131        6.4650   -0.3000   -0.3350 h1        1 G83      0.066200
     52 H132        5.7980   -1.9650   -0.7060 h1        1 G83      0.066200
     53 H6          8.5330   -0.4480   -1.5500 ha        1 G83      0.139000
     54 H2          4.8110   -1.3610   -3.5540 ha        1 G83      0.139000
     55 H8          9.7260   -0.5130   -3.7360 ha        1 G83      0.133000
     56 H10         8.4680   -0.9950   -5.8360 ha        1 G83      0.132000
     57 H1          6.0090   -1.4160   -5.7460 ha        1 G83      0.133000
     58 H23         2.1400    0.1590    1.6640 h1        1 G83      0.122700
     59 H251        0.3790    1.9880   -0.1680 hc        1 G83      0.106200
     60 H252        0.0320    1.5750    1.5600 hc        1 G83      0.106200
     61 H121        3.4540    5.0410   -0.4330 hc        1 G83      0.051922
     62 H122        3.8640    6.2680    0.8440 hc        1 G83      0.051922
     63 H123        3.9990    4.4930    1.2110 hc        1 G83      0.051922
     64 H431        0.1140    6.3640    0.7740 hc        1 G83      0.051922
     65 H432        1.6390    7.3200    0.5180 hc        1 G83      0.051922
     66 H433        1.1240    6.0780   -0.7070 hc        1 G83      0.051922
     67 H451        2.5470    4.8070    3.1840 hc        1 G83      0.051922
     68 H452        2.1750    6.5560    2.8610 hc        1 G83      0.051922
     69 H453        0.8250    5.3460    2.9820 hc        1 G83      0.051922
     70 H33         0.2580   -1.1630    2.2880 hn        1 G83      0.331500
     71 H37        -0.9040   -2.8620    0.2220 h1        1 G83      0.087700
     72 H411       -1.6200   -2.6380    3.2470 hc        1 G83      0.077700
     73 H412       -2.1750   -3.8920    2.0730 hc        1 G83      0.077700
     74 H53         0.5620   -2.7700    4.2480 ha        1 G83      0.130000
     75 H55        -0.4980   -5.4540    1.0260 ha        1 G83      0.130000
     76 H7          2.6050   -4.1190    4.6980 ha        1 G83      0.134000
     77 H9          3.0990   -6.1410    3.3200 ha        1 G83      0.134000
     78 H11         1.5430   -6.8070    1.4860 ha        1 G83      0.134000
     79 H49        -1.9300   -1.0320   -0.9800 hn        1 G83      0.330500
     80 H57        -3.8030    0.6320    0.4600 h1        1 G83      0.090700
     81 H591       -2.0730    0.9940   -1.8250 hc        1 G83      0.057700
     82 H592       -3.7320    1.0010   -2.5280 hc        1 G83      0.057700
     83 H631       -5.6680    0.4400   -1.2080 hc        1 G83      0.057700
     84 H632       -4.8890   -1.0170   -1.9520 hc        1 G83      0.057700
     85 H61        -4.3690    2.6620   -0.6050 hc        1 G83      0.091700
     86 H731       -2.9320    3.0950   -3.1790 hc        1 G83      0.060200
     87 H732       -4.1310    4.1710   -2.3580 hc        1 G83      0.060200
     88 H711       -1.1950    4.4950   -2.5060 h1        1 G83      0.044200
     89 H712       -2.4030    5.5880   -1.6940 h1        1 G83      0.044200
     90 H69        -0.7750    4.4010   -0.0430 hn        1 G83      0.348500
     91 H821       -5.1530   -2.3220    0.0970 hc        1 G83      0.096200
     92 H822       -5.5340   -0.8570    1.0770 hc        1 G83      0.096200
     93 H31C       -9.5640   -2.1440    0.5770 h1        1 G83      0.049700
     94 H32C       -9.2410   -2.8460   -1.0770 h1        1 G83      0.049700
     95 H51C      -10.3570   -4.5410    0.4370 hc        1 G83      0.047033
     96 H52C       -8.6780   -5.0770   -0.0130 hc        1 G83      0.047033
     97 H53C       -8.9910   -4.3800    1.6280 hc        1 G83      0.047033
@<TRIPOS>BOND
     1    1    2 2   
     2    2    3 1   
     3    2   11 1   
     4    3    4 1   
     5    4    5 1   
     6    4   51 1   
     7    4   52 1   
     8    5    6 ar  
     9    5   10 ar  
    10    6    7 ar  
    11    6   53 1   
    12    7    8 ar  
    13    7   55 1   
    14    8    9 ar  
    15    8   56 1   
    16    9   10 ar  
    17    9   57 1   
    18   10   54 1   
    19   11   12 1   
    20   11   50 1   
    21   12   13 1   
    22   12   21 1   
    23   12   58 1   
    24   13   14 1   
    25   13   59 1   
    26   13   60 1   
    27   14   15 2   
    28   14   16 1   
    29   16   17 1   
    30   17   18 1   
    31   17   19 1   
    32   17   20 1   
    33   18   61 1   
    34   18   62 1   
    35   18   63 1   
    36   19   64 1   
    37   19   65 1   
    38   19   66 1   
    39   20   67 1   
    40   20   68 1   
    41   20   69 1   
    42   21   22 2   
    43   21   23 1   
    44   23   24 1   
    45   23   70 1   
    46   24   25 1   
    47   24   32 1   
    48   24   71 1   
    49   25   26 1   
    50   25   72 1   
    51   25   73 1   
    52   26   27 ar  
    53   26   31 ar  
    54   27   28 ar  
    55   27   74 1   
    56   28   29 ar  
    57   28   76 1   
    58   29   30 ar  
    59   29   77 1   
    60   30   31 ar  
    61   30   78 1   
    62   31   75 1   
    63   32   33 2   
    64   32   34 1   
    65   34   35 1   
    66   34   79 1   
    67   35   36 1   
    68   35   43 1   
    69   35   80 1   
    70   36   37 1   
    71   36   81 1   
    72   36   82 1   
    73   37   38 1   
    74   37   41 1   
    75   37   85 1   
    76   38   39 1   
    77   38   86 1   
    78   38   87 1   
    79   39   40 1   
    80   39   88 1   
    81   39   89 1   
    82   40   41 1   
    83   40   90 1   
    84   41   42 2   
    85   43   44 1   
    86   43   83 1   
    87   43   84 1   
    88   44   45 1   
    89   44   91 1   
    90   44   92 1   
    91   45   46 2   
    92   45   47 1   
    93   47   48 1   
    94   48   49 1   
    95   48   93 1   
    96   48   94 1   
    97   49   95 1   
    98   49   96 1   
    99   49   97 1   
@<TRIPOS>SUBSTRUCTURE
     1 G83         1 TEMP              0 ****  ****    0 ROOT
