@<TRIPOS>MOLECULE
G83
  100   102     1     0     0
SMALL
bcc


@<TRIPOS>ATOM
      1 O19         0.1420   -1.3210   -0.7280 o         1 G83     -0.552000
      2 C17         1.2140   -0.8340   -0.3650 c         1 G83      0.654100
      3 O15         1.5580   -0.3160    0.7870 os        1 G83     -0.380900
      4 C13         0.5030   -0.2660    1.8950 c3        1 G83      0.253700
      5 C4          1.1940    0.4210    2.9870 ca        1 G83     -0.189300
      6 C6          1.0990    1.8180    3.1150 ca        1 G83     -0.069500
      7 C8          1.6980    2.4600    4.1940 ca        1 G83     -0.129000
      8 C10         2.4040    1.7200    5.1470 ca        1 G83     -0.043000
      9 C1          2.5110    0.3320    5.0190 ca        1 G83     -0.129000
     10 C2          1.9150   -0.3180    3.9420 ca        1 G83     -0.069500
     11 N21         2.3610   -0.7940   -1.3610 ny        1 G83     -0.676800
     12 C23         1.8840   -1.0120   -2.7640 c3        1 G83      0.100500
     13 C25         3.0070   -0.8260   -3.7950 c3        1 G83     -0.202400
     14 C14         3.4420    0.6220   -3.8280 c         1 G83      0.656100
     15 O1          3.4890    1.3320   -2.8150 o         1 G83     -0.566000
     16 O2          3.7410    1.0420   -5.0590 os        1 G83     -0.442900
     17 C29         4.3520    2.3790   -5.2850 c3        1 G83      0.185800
     18 C12         5.6610    2.4710   -4.5290 c3        1 G83     -0.124767
     19 C43         4.5790    2.3650   -6.7910 c3        1 G83     -0.124767
     20 C45         3.3710    3.4580   -4.8780 c3        1 G83     -0.124767
     21 C31         1.3360   -2.4380   -2.9560 c         1 G83      0.540100
     22 O35         2.0160   -3.4440   -2.8360 o         1 G83     -0.373100
     23 N33        -0.1110   -2.5610   -3.3180 ny        1 G83     -0.649800
     24 C37        -0.4480   -3.7620   -4.1690 c3        1 G83      0.066500
     25 C41        -1.6040   -4.5970   -3.5700 c3        1 G83     -0.054100
     26 C51        -1.3450   -4.9730   -2.1600 ca        1 G83     -0.190300
     27 C53        -1.9920   -4.2840   -1.1240 ca        1 G83     -0.123000
     28 C7         -1.8360   -4.7020    0.1960 ca        1 G83     -0.111500
     29 C9         -1.0340   -5.8080    0.4920 ca        1 G83     -0.082000
     30 C11        -0.3860   -6.4930   -0.5370 ca        1 G83     -0.111500
     31 C55        -0.5430   -6.0810   -1.8600 ca        1 G83     -0.123000
     32 C39        -0.9170   -3.3010   -5.5600 c         1 G83      0.564100
     33 O47        -1.7010   -2.3740   -5.7220 o         1 G83     -0.427100
     34 N49        -0.4180   -4.1030   -6.7020 ny        1 G83     -0.673800
     35 C57        -0.9980   -3.7320   -8.0520 c3        1 G83      0.135500
     36 C59        -0.0800   -2.7580   -8.8020 c3        1 G83     -0.102400
     37 C61        -0.0470   -1.3580   -8.2250 c3        1 G83     -0.148700
     38 C73         0.3960   -0.3270   -9.2820 c3        1 G83     -0.098400
     39 C71         1.6190    0.4010   -8.6870 c3        1 G83      0.066000
     40 N69         1.8550   -0.1930   -7.3770 ns        1 G83     -0.506900
     41 C65         0.9600   -1.1690   -7.0790 c         1 G83      0.710500
     42 O66         0.9410   -1.8030   -5.9770 o         1 G83     -0.858500
     43 C63        -1.2370   -4.9950   -8.8980 c3        1 G83     -0.104400
     44 C82        -2.5370   -5.7100   -8.6030 c3        1 G83     -0.165400
     45 C84        -2.4860   -6.6410   -7.4270 c         1 G83      0.664100
     46 O88        -1.8530   -6.4710   -6.3610 o         1 G83     -0.680000
     47 O86        -3.2370   -7.7370   -7.5750 os        1 G83     -0.375900
     48 C3         -3.2820   -8.6960   -6.4800 c3        1 G83      0.146400
     49 C5         -4.1770   -9.8090   -6.9610 c3        1 G83     -0.114100
     50 H21         3.0640   -1.4960   -1.0950 hn        1 G83      0.510300
     51 H131       -0.3570    0.2980    1.4560 h1        1 G83      0.087700
     52 H132        0.2520   -1.3360    2.0990 h1        1 G83      0.087700
     53 H6          0.5360    2.4030    2.3710 ha        1 G83      0.138000
     54 H2          1.9940   -1.4120    3.8490 ha        1 G83      0.138000
     55 H8          1.6110    3.5540    4.3030 ha        1 G83      0.169000
     56 H10         2.8730    2.2310    6.0050 ha        1 G83      0.173000
     57 H1          3.0640   -0.2490    5.7760 ha        1 G83      0.169000
     58 H23         1.0800   -0.2320   -2.9480 hx        1 G83      0.145700
     59 H251        2.6200   -1.1400   -4.8070 hc        1 G83      0.140200
     60 H252        3.9020   -1.4660   -3.5620 hc        1 G83      0.140200
     61 H121        6.3220    1.6070   -4.7790 hc        1 G83      0.068811
     62 H122        6.1850    3.4160   -4.8210 hc        1 G83      0.068811
     63 H123        5.4830    2.4930   -3.4270 hc        1 G83      0.068811
     64 H431        3.6120    2.2260   -7.3320 hc        1 G83      0.068811
     65 H432        5.0260    3.3440   -7.0920 hc        1 G83      0.068811
     66 H433        5.2790    1.5440   -7.0760 hc        1 G83      0.068811
     67 H451        3.7710    4.4520   -5.1970 hc        1 G83      0.068811
     68 H452        3.2320    3.4720   -3.7700 hc        1 G83      0.068811
     69 H453        2.3820    3.2970   -5.3700 hc        1 G83      0.068811
     70 H33        -0.6420   -2.6460   -2.4170 hn        1 G83      0.502800
     71 H37         0.4780   -4.4130   -4.2250 hx        1 G83      0.146700
     72 H411       -2.5670   -4.0220   -3.6560 hc        1 G83      0.115700
     73 H412       -1.7020   -5.5240   -4.2100 hc        1 G83      0.115700
     74 H53        -2.6750   -3.4490   -1.3490 ha        1 G83      0.138500
     75 H55        -0.0590   -6.6500   -2.6690 ha        1 G83      0.138500
     76 H7         -2.3730   -4.1800    1.0050 ha        1 G83      0.168500
     77 H9         -0.9340   -6.1540    1.5350 ha        1 G83      0.173000
     78 H11         0.2310   -7.3790   -0.3070 ha        1 G83      0.168500
     79 H49         0.6040   -3.9720   -6.7360 hn        1 G83      0.493300
     80 H57        -1.9950   -3.2250   -7.8610 hx        1 G83      0.127700
     81 H591        0.9580   -3.1770   -8.8940 hc        1 G83      0.102200
     82 H592       -0.4910   -2.6820   -9.8510 hc        1 G83      0.102200
     83 H631       -0.3720   -5.7060   -8.8170 hc        1 G83      0.102700
     84 H632       -1.2780   -4.6650   -9.9760 hc        1 G83      0.102700
     85 H61        -1.0620   -1.0850   -7.8210 hc        1 G83      0.108700
     86 H731       -0.4280    0.3990   -9.4920 hc        1 G83      0.095700
     87 H732        0.6760   -0.8160  -10.2480 hc        1 G83      0.095700
     88 H711        1.4220    1.5030   -8.5710 h1        1 G83      0.092200
     89 H712        2.5300    0.2670   -9.3330 h1        1 G83      0.092200
     90 H69         2.5890    0.1250   -6.7870 hn        1 G83      0.361500
     91 H821       -3.3760   -4.9810   -8.4230 hc        1 G83      0.122200
     92 H822       -2.8290   -6.3140   -9.5140 hc        1 G83      0.122200
     93 H31C       -2.2360   -9.0400   -6.2780 h1        1 G83      0.060200
     94 H32C       -3.6930   -8.1710   -5.5800 h1        1 G83      0.060200
     95 H51C       -3.7610  -10.2840   -7.8820 hc        1 G83      0.074033
     96 H52C       -4.2510  -10.5800   -6.1550 hc        1 G83      0.074033
     97 H53C       -5.2000   -9.4260   -7.1930 hc        1 G83      0.074033
     98 H212        2.8210    0.1510   -1.3170 hn        1 G83      0.510300
     99 H332       -0.4150   -1.7030   -3.8050 hn        1 G83      0.502800
    100 H492       -0.6330   -5.1140   -6.5120 hn        1 G83      0.493300
@<TRIPOS>BOND
     1    1    2 2   
     2    2    3 1   
     3    2   11 1   
     4    3    4 1   
     5    4    5 1   
     6    4   51 1   
     7    4   52 1   
     8    5    6 ar  
     9    5   10 ar  
    10    6    7 ar  
    11    6   53 1   
    12    7    8 ar  
    13    7   55 1   
    14    8    9 ar  
    15    8   56 1   
    16    9   10 ar  
    17    9   57 1   
    18   10   54 1   
    19   11   12 1   
    20   11   50 1   
    21   11   98 1   
    22   12   13 1   
    23   12   21 1   
    24   12   58 1   
    25   13   14 1   
    26   13   59 1   
    27   13   60 1   
    28   14   15 2   
    29   14   16 1   
    30   16   17 1   
    31   17   18 1   
    32   17   19 1   
    33   17   20 1   
    34   18   61 1   
    35   18   62 1   
    36   18   63 1   
    37   19   64 1   
    38   19   65 1   
    39   19   66 1   
    40   20   67 1   
    41   20   68 1   
    42   20   69 1   
    43   21   22 2   
    44   21   23 1   
    45   23   24 1   
    46   23   70 1   
    47   23   99 1   
    48   24   25 1   
    49   24   32 1   
    50   24   71 1   
    51   25   26 1   
    52   25   72 1   
    53   25   73 1   
    54   26   27 ar  
    55   26   31 ar  
    56   27   28 ar  
    57   27   74 1   
    58   28   29 ar  
    59   28   76 1   
    60   29   30 ar  
    61   29   77 1   
    62   30   31 ar  
    63   30   78 1   
    64   31   75 1   
    65   32   33 2   
    66   32   34 1   
    67   34   35 1   
    68   34   79 1   
    69   34  100 1   
    70   35   36 1   
    71   35   43 1   
    72   35   80 1   
    73   36   37 1   
    74   36   81 1   
    75   36   82 1   
    76   37   38 1   
    77   37   41 1   
    78   37   85 1   
    79   38   39 1   
    80   38   86 1   
    81   38   87 1   
    82   39   40 1   
    83   39   88 1   
    84   39   89 1   
    85   40   41 1   
    86   40   90 1   
    87   41   42 2   
    88   43   44 1   
    89   43   83 1   
    90   43   84 1   
    91   44   45 1   
    92   44   91 1   
    93   44   92 1   
    94   45   46 2   
    95   45   47 1   
    96   47   48 1   
    97   48   49 1   
    98   48   93 1   
    99   48   94 1   
   100   49   95 1   
   101   49   96 1   
   102   49   97 1   
@<TRIPOS>SUBSTRUCTURE
     1 G83         1 TEMP              0 ****  ****    0 ROOT
