@<TRIPOS>MOLECULE
G85
   95    97     1     0     0
SMALL
bcc


@<TRIPOS>ATOM
      1 C17        -4.6310    0.0100    0.9260 c         1 G85      0.728100
      2 O19        -4.8000    0.8700    1.8070 o         1 G85     -0.588000
      3 O15        -5.6320   -0.2070    0.0030 os        1 G85     -0.433900
      4 C13        -6.8200    0.5850    0.2090 c3        1 G85      0.195700
      5 C4         -7.8000    0.2180   -0.8540 ca        1 G85     -0.094300
      6 C2         -7.8430   -1.0700   -1.3970 ca        1 G85     -0.112500
      7 C1         -8.7950   -1.3880   -2.3640 ca        1 G85     -0.131500
      8 C10        -9.7100   -0.4260   -2.7900 ca        1 G85     -0.126000
      9 C8         -9.6690    0.8600   -2.2500 ca        1 G85     -0.131500
     10 C6         -8.7150    1.1850   -1.2880 ca        1 G85     -0.112500
     11 C31        -1.3470    0.2040    0.4160 c         1 G85      0.647100
     12 N21        -3.5660   -0.8700    0.7820 n         1 G85     -0.489900
     13 C12        -1.9990   -4.7080    1.9540 c3        1 G85     -0.110433
     14 C45         0.3790   -3.9250    2.0810 c3        1 G85     -0.110433
     15 C43        -0.5930   -4.6350   -0.1120 c3        1 G85     -0.110433
     16 C23        -2.3030   -0.5240    1.3940 c3        1 G85      0.028700
     17 C25        -1.5800   -1.7730    1.9520 c3        1 G85      0.130400
     18 C29        -0.8820   -3.9660    1.2310 c3        1 G85      0.153800
     19 O27        -1.3060   -2.6390    0.8630 os        1 G85     -0.423600
     20 N33        -0.3160    0.9180    0.9940 n         1 G85     -0.552900
     21 C37         0.7010    1.5690    0.2110 c3        1 G85      0.046700
     22 C39         2.0280    0.7640    0.2930 c         1 G85      0.632100
     23 O47         2.5880    0.5910    1.3940 o         1 G85     -0.614100
     24 C41         1.0380    2.9920    0.6990 c3        1 G85     -0.044100
     25 C51        -0.1070    3.9280    0.5520 ca        1 G85     -0.082300
     26 C53        -0.7610    4.4300    1.6830 ca        1 G85     -0.121000
     27 C55        -0.5290    4.3330   -0.7200 ca        1 G85     -0.121000
     28 C7         -1.8230    5.3220    1.5420 ca        1 G85     -0.125000
     29 C11        -1.5910    5.2230   -0.8590 ca        1 G85     -0.125000
     30 C9         -2.2400    5.7190    0.2720 ca        1 G85     -0.127000
     31 O86         6.9230    2.7870    0.6500 os        1 G85     -0.441900
     32 C3          8.2770    3.2630    0.7500 c3        1 G85      0.138400
     33 C5          8.2030    4.6130    1.4190 c3        1 G85     -0.100100
     34 N49         2.5580    0.2940   -0.8850 n         1 G85     -0.558900
     35 C57         3.7230   -0.5670   -0.9160 c3        1 G85      0.093700
     36 C59         3.6170   -1.6280   -2.0300 c3        1 G85     -0.079400
     37 C61         4.4520   -2.8530   -1.7150 c3        1 G85     -0.139700
     38 C63         5.0320    0.2200   -1.1090 c3        1 G85     -0.089400
     39 C65         3.7580   -3.7740   -0.7020 c         1 G85      0.696500
     40 O66         3.3780   -3.4630    0.4380 o         1 G85     -0.630500
     41 N69         3.6160   -5.0390   -1.2470 n         1 G85     -0.586900
     42 C71         4.1800   -5.1450   -2.5700 c3        1 G85      0.091000
     43 C73         4.6820   -3.7340   -2.9520 c3        1 G85     -0.093400
     44 C82         5.3140    1.1240    0.0710 c3        1 G85     -0.130400
     45 C84         6.7470    1.5540    0.0860 c         1 G85      0.633100
     46 O88         7.7440    0.9510   -0.3190 o         1 G85     -0.556000
     47 H13        -6.5370    1.6700    0.1600 h1        1 G85      0.064700
     48 H13A       -7.2300    0.3550    1.2300 h1        1 G85      0.064700
     49 H2         -7.1150   -1.8240   -1.0620 ha        1 G85      0.139500
     50 H1         -8.8230   -2.4010   -2.7910 ha        1 G85      0.132000
     51 H10       -10.4630   -0.6790   -3.5510 ha        1 G85      0.131000
     52 H8        -10.3880    1.6210   -2.5860 ha        1 G85      0.132000
     53 H6         -8.6790    2.2020   -0.8700 ha        1 G85      0.139500
     54 HN21       -3.4940   -1.3510   -0.0910 hn        1 G85      0.338500
     55 H12        -1.7990   -5.8050    1.9260 hc        1 G85      0.046478
     56 H12A       -2.0640   -4.3910    3.0220 hc        1 G85      0.046478
     57 H12B       -2.9770   -4.5040    1.4570 hc        1 G85      0.046478
     58 H45         0.7370   -4.9660    2.2650 hc        1 G85      0.046478
     59 H45A        1.1870   -3.3580    1.5550 hc        1 G85      0.046478
     60 H45B        0.1770   -3.4410    3.0650 hc        1 G85      0.046478
     61 H43        -1.5220   -4.6720   -0.7270 hc        1 G85      0.046478
     62 H43A        0.1820   -4.0540   -0.6650 hc        1 G85      0.046478
     63 H43B       -0.2230   -5.6710    0.0650 hc        1 G85      0.046478
     64 H23        -2.5170    0.1590    2.2740 h1        1 G85      0.107700
     65 H25        -0.6180   -1.4540    2.4340 h1        1 G85      0.047200
     66 H25A       -2.2320   -2.2760    2.7130 h1        1 G85      0.047200
     67 HN33       -0.1420    0.8370    1.9680 hn        1 G85      0.323500
     68 H37         0.3280    1.6360   -0.8560 h1        1 G85      0.097700
     69 H41         1.3820    2.9470    1.7680 hc        1 G85      0.066700
     70 H41A        1.9040    3.3580    0.0840 hc        1 G85      0.066700
     71 H53        -0.4360    4.1200    2.6870 ha        1 G85      0.129500
     72 H55        -0.0200    3.9420   -1.6140 ha        1 G85      0.129500
     73 H7         -2.3350    5.7080    2.4360 ha        1 G85      0.132500
     74 H11        -1.9190    5.5330   -1.8610 ha        1 G85      0.132500
     75 H9         -3.0800    6.4200    0.1620 ha        1 G85      0.132000
     76 H3          8.8740    2.5280    1.3510 h1        1 G85      0.049700
     77 H3A         8.7100    3.3290   -0.2820 h1        1 G85      0.049700
     78 H5          7.5850    5.3180    0.8140 hc        1 G85      0.047700
     79 H5A         7.7410    4.5240    2.4320 hc        1 G85      0.047700
     80 H5B         9.2350    5.0250    1.5220 hc        1 G85      0.047700
     81 HN49        2.0380    0.3920   -1.7240 hn        1 G85      0.314500
     82 H57         3.7770   -1.1060    0.0840 h1        1 G85      0.107700
     83 H59         2.5500   -1.9460   -2.1730 hc        1 G85      0.056200
     84 H59A        3.9700   -1.1830   -2.9980 hc        1 G85      0.056200
     85 H61         5.4370   -2.5480   -1.2690 hc        1 G85      0.091700
     86 H63         5.8730   -0.5140   -1.2230 hc        1 G85      0.057700
     87 H63A        4.9870    0.8260   -2.0510 hc        1 G85      0.057700
     88 HN69        3.2820   -5.8230   -0.7500 hn        1 G85      0.332500
     89 H71         5.0280   -5.8850   -2.5820 h1        1 G85      0.043200
     90 H71A        3.3980   -5.5000   -3.2960 h1        1 G85      0.043200
     91 H73         4.1150   -3.3510   -3.8340 hc        1 G85      0.060200
     92 H73A        5.7650   -3.7650   -3.2200 hc        1 G85      0.060200
     93 H82         4.6490    2.0270    0.0510 hc        1 G85      0.094200
     94 H82A        5.1030    0.5870    1.0380 hc        1 G85      0.094200
     95 O35        -1.5120    0.1740   -0.8180 o         1 G85     -0.604100
@<TRIPOS>BOND
     1    1    2 2   
     2    1    3 1   
     3    1   12 1   
     4    3    4 1   
     5    4    5 1   
     6    4   47 1   
     7    4   48 1   
     8    5    6 ar  
     9    5   10 ar  
    10    6    7 ar  
    11    6   49 1   
    12    7    8 ar  
    13    7   50 1   
    14    8    9 ar  
    15    8   51 1   
    16    9   10 ar  
    17    9   52 1   
    18   10   53 1   
    19   11   16 1   
    20   11   20 1   
    21   11   95 2   
    22   12   16 1   
    23   12   54 1   
    24   13   18 1   
    25   13   55 1   
    26   13   56 1   
    27   13   57 1   
    28   14   18 1   
    29   14   58 1   
    30   14   59 1   
    31   14   60 1   
    32   15   18 1   
    33   15   61 1   
    34   15   62 1   
    35   15   63 1   
    36   16   17 1   
    37   16   64 1   
    38   17   19 1   
    39   17   65 1   
    40   17   66 1   
    41   18   19 1   
    42   20   21 1   
    43   20   67 1   
    44   21   22 1   
    45   21   24 1   
    46   21   68 1   
    47   22   23 2   
    48   22   34 1   
    49   24   25 1   
    50   24   69 1   
    51   24   70 1   
    52   25   26 ar  
    53   25   27 ar  
    54   26   28 ar  
    55   26   71 1   
    56   27   29 ar  
    57   27   72 1   
    58   28   30 ar  
    59   28   73 1   
    60   29   30 ar  
    61   29   74 1   
    62   30   75 1   
    63   31   32 1   
    64   31   45 1   
    65   32   33 1   
    66   32   76 1   
    67   32   77 1   
    68   33   78 1   
    69   33   79 1   
    70   33   80 1   
    71   34   35 1   
    72   34   81 1   
    73   35   36 1   
    74   35   38 1   
    75   35   82 1   
    76   36   37 1   
    77   36   83 1   
    78   36   84 1   
    79   37   39 1   
    80   37   43 1   
    81   37   85 1   
    82   38   44 1   
    83   38   86 1   
    84   38   87 1   
    85   39   40 2   
    86   39   41 1   
    87   41   42 1   
    88   41   88 1   
    89   42   43 1   
    90   42   89 1   
    91   42   90 1   
    92   43   91 1   
    93   43   92 1   
    94   44   45 1   
    95   44   93 1   
    96   44   94 1   
    97   45   46 2   
@<TRIPOS>SUBSTRUCTURE
     1 G85         1 TEMP              0 ****  ****    0 ROOT
