@<TRIPOS>MOLECULE
G85
   95    90     1     0     0
SMALL
bcc


@<TRIPOS>ATOM
      1 C17         0.9590   -0.0950    4.9630 c1        1 G85      0.391000
      2 O19         2.0730   -0.5410    4.7130 o         1 G85     -0.432000
      3 O15         0.7390    0.6770    6.1770 o         1 G85     -0.269000
      4 C13         1.9620    1.0900    6.8500 c3        1 G85      0.039000
      5 C4          1.6010    1.8530    8.1590 c1        1 G85     -0.091000
      6 C2          1.4160    3.2250    8.1260 c1        1 G85     -0.121000
      7 C1          1.1190    3.9090    9.2860 c1        1 G85     -0.123667
      8 C10         1.0070    3.2240   10.4860 c1        1 G85     -0.123667
      9 C8          1.1920    1.8550   10.5210 c1        1 G85     -0.123667
     10 C6          1.4890    1.1680    9.3590 c1        1 G85     -0.123667
     11 C31        -0.7220   -0.6480    1.7360 c1        1 G85      0.306000
     12 N21        -0.1450   -0.3600    4.0660 n3        1 G85     -0.318000
     13 O35        -1.9550   -0.4770    1.8020 o         1 G85     -0.393000
     14 C12         0.7970   -5.3000    3.1340 c3        1 G85     -0.231667
     15 C45        -1.2960   -4.9860    4.4700 c3        1 G85     -0.231667
     16 C43         0.9070   -5.1070    5.6020 c3        1 G85     -0.231667
     17 C23         0.0410   -1.2160    2.9400 c2        1 G85     -0.015000
     18 C25        -0.4870   -2.6000    3.2710 c3        1 G85     -0.031000
     19 C29         0.1900   -4.6240    4.3760 c3        1 G85      0.083000
     20 O27         0.3320   -3.1940    4.2700 os        1 G85     -0.291000
     21 N33         0.0280   -0.2190    0.5220 n3        1 G85     -0.368000
     22 C37        -0.6480    0.4920   -0.5310 c3        1 G85      0.021000
     23 C39        -0.2680   -0.1000   -1.8590 c2        1 G85      0.278000
     24 O47         0.4260   -1.1060   -1.9030 o         1 G85     -0.381000
     25 C41        -0.2370    1.9710   -0.4980 c3        1 G85     -0.125000
     26 C51        -1.2820    2.7850    0.3170 c2        1 G85     -0.083000
     27 C53        -0.8850    3.4880    1.4480 c2        1 G85     -0.122000
     28 C55        -2.6060    2.9230   -0.1710 c1        1 G85     -0.123000
     29 C7         -1.7930    4.3290    2.1030 c1        1 G85     -0.131000
     30 C11        -3.5010    3.7550    0.4790 c1        1 G85     -0.123667
     31 C9         -3.1030    4.4610    1.6150 c1        1 G85     -0.123667
     32 O86         3.0750    0.9510   -7.5450 os        1 G85     -0.281000
     33 C3          3.2870    1.6920   -8.7310 c3        1 G85     -0.012000
     34 C5          4.0790    0.8290   -9.7470 c3        1 G85     -0.218000
     35 N49        -0.8440    0.4560   -3.1050 n         1 G85     -0.367000
     36 C57        -0.4100   -0.0120   -4.3520 c3        1 G85      0.019000
     37 C59        -1.5970   -0.5680   -5.1240 c3        1 G85     -0.173000
     38 C61        -1.2210   -0.7450   -6.5730 c3        1 G85     -0.129000
     39 C63         0.2250    1.1640   -5.1620 c3        1 G85     -0.165000
     40 C65        -1.3570   -2.2870   -6.9790 c2        1 G85      0.311000
     41 O66        -0.4390   -3.1310   -6.9640 o         1 G85     -0.390000
     42 N69        -2.6350   -2.5420   -7.1120 n         1 G85     -0.393000
     43 C71        -3.2300   -1.2910   -7.5780 c3        1 G85     -0.026000
     44 C73        -2.1420   -0.1790   -7.3400 c3        1 G85     -0.172000
     45 C82         1.7530    0.8790   -5.3870 c3        1 G85     -0.153000
     46 C84         2.2290    1.6110   -6.5930 c2        1 G85      0.301000
     47 O88         1.9030    2.7720   -6.7700 o         1 G85     -0.360000
     48 H13         2.5110    0.2820    7.0740 h1        1 G85      0.103000
     49 H13A        2.4980    1.7070    6.2350 h1        1 G85      0.103000
     50 H2          1.4980    3.7250    7.2510 ha        1 G85      0.132000
     51 H1          0.9920    4.8470    9.2640 ha        1 G85      0.134500
     52 H10         0.8010    3.6990   11.2910 ha        1 G85      0.134500
     53 H8          1.1120    1.3720   11.3700 ha        1 G85      0.134500
     54 H6          1.6160    0.2340    9.3850 ha        1 G85      0.134500
     55 HN21       -0.9980   -0.0540    4.2780 hn        1 G85      0.257000
     56 H12         0.1650   -5.2000    2.3540 hc        1 G85      0.086889
     57 H12A        1.6790   -4.8650    2.9120 hc        1 G85      0.086889
     58 H12B        0.9390   -6.2470    3.3180 hc        1 G85      0.086889
     59 H45        -1.3930   -5.9780    4.7480 hc        1 G85      0.086889
     60 H45A       -1.7350   -4.4140    5.1400 hc        1 G85      0.086889
     61 H45B       -1.7120   -4.8520    3.6100 hc        1 G85      0.086889
     62 H43         0.7490   -6.0590    5.7140 hc        1 G85      0.086889
     63 H43A        0.5730   -4.6190    6.3970 hc        1 G85      0.086889
     64 H43B        1.8780   -4.9450    5.5010 hc        1 G85      0.086889
     65 H23         1.0310   -1.2750    2.7150 h4        1 G85      0.124000
     66 H25        -1.4130   -2.5230    3.6070 h1        1 G85      0.127000
     67 H25A       -0.4750   -3.1580    2.4640 h1        1 G85      0.127000
     68 HN33        0.9440   -0.4310    0.4350 hn        1 G85      0.264000
     69 H37        -1.6250    0.4180   -0.4060 h1        1 G85      0.124000
     70 H41         0.6730    2.0580   -0.0630 hc        1 G85      0.114000
     71 H41A       -0.1970    2.3160   -1.4080 hc        1 G85      0.114000
     72 H53         0.0390    3.3950    1.7900 ha        1 G85      0.149000
     73 H55        -2.8930    2.4230   -0.9800 ha        1 G85      0.131000
     74 H7         -1.5090    4.8390    2.9230 ha        1 G85      0.127000
     75 H11        -4.4050    3.8470    0.1440 ha        1 G85      0.134500
     76 H9         -3.7360    5.0450    2.0690 ha        1 G85      0.134500
     77 H3          3.7920    2.4960   -8.5240 h1        1 G85      0.090500
     78 H3A         2.4400    1.9380   -9.1120 h1        1 G85      0.090500
     79 H5          3.6070   -0.0650   -9.8760 hc        1 G85      0.087333
     80 H5A         4.1300    1.3070  -10.6210 hc        1 G85      0.087333
     81 H5B         5.0090    0.6710   -9.3960 hc        1 G85      0.087333
     82 HN49       -1.5270    1.0360   -3.0590 hn        1 G85      0.251000
     83 H57         0.2380   -0.6970   -4.2270 h1        1 G85      0.124000
     84 H59        -1.8500   -1.4150   -4.7560 hc        1 G85      0.104000
     85 H59A       -2.3670    0.0700   -5.0560 hc        1 G85      0.104000
     86 H61        -0.3600   -0.3690   -6.5850 hc        1 G85      0.138000
     87 H63         0.1190    2.0010   -4.6620 hc        1 G85      0.103500
     88 H63A       -0.2370    1.2440   -6.0510 hc        1 G85      0.103500
     89 HN69       -3.0160   -3.3840   -7.1810 hn        1 G85      0.246000
     90 H71        -4.0550   -1.0850   -7.0540 h1        1 G85      0.083000
     91 H71A       -3.4410   -1.3550   -8.5300 h1        1 G85      0.083000
     92 H73        -1.7390    0.1090   -8.2180 hc        1 G85      0.103500
     93 H73A       -2.5350    0.5820   -6.8840 hc        1 G85      0.103500
     94 H82         1.8900   -0.0840   -5.5180 hc        1 G85      0.124500
     95 H82A        2.2700    1.1830   -4.5870 hc        1 G85      0.124500
@<TRIPOS>BOND
     1    1    2 1   
     2    1   12 1   
     3    3    4 1   
     4    4    5 1   
     5    4   48 1   
     6    4   49 1   
     7    5    6 1   
     8    6   50 1   
     9    7    8 1   
    10    7   51 1   
    11    8   52 1   
    12    9   10 1   
    13    9   53 1   
    14   10   54 1   
    15   11   13 1   
    16   11   21 1   
    17   12   17 1   
    18   12   55 1   
    19   14   19 1   
    20   14   56 1   
    21   14   57 1   
    22   14   58 1   
    23   15   19 1   
    24   15   59 1   
    25   15   60 1   
    26   15   61 1   
    27   16   19 1   
    28   16   62 1   
    29   16   63 1   
    30   16   64 1   
    31   17   18 1   
    32   17   65 1   
    33   18   20 1   
    34   18   66 1   
    35   18   67 1   
    36   19   20 1   
    37   21   22 1   
    38   21   68 1   
    39   22   23 1   
    40   22   25 1   
    41   22   69 1   
    42   23   24 1   
    43   23   35 1   
    44   25   26 1   
    45   25   70 1   
    46   25   71 1   
    47   26   27 1   
    48   26   28 1   
    49   27   29 1   
    50   27   72 1   
    51   28   73 1   
    52   29   74 1   
    53   30   31 1   
    54   30   75 1   
    55   31   76 1   
    56   32   33 1   
    57   32   46 1   
    58   33   34 1   
    59   33   77 1   
    60   33   78 1   
    61   34   79 1   
    62   34   80 1   
    63   34   81 1   
    64   35   36 1   
    65   35   82 1   
    66   36   37 1   
    67   36   39 1   
    68   36   83 1   
    69   37   38 1   
    70   37   84 1   
    71   37   85 1   
    72   38   40 1   
    73   38   44 1   
    74   38   86 1   
    75   39   45 1   
    76   39   87 1   
    77   39   88 1   
    78   40   41 1   
    79   40   42 1   
    80   42   43 1   
    81   42   89 1   
    82   43   44 1   
    83   43   90 1   
    84   43   91 1   
    85   44   92 1   
    86   44   93 1   
    87   45   46 1   
    88   45   94 1   
    89   45   95 1   
    90   46   47 1   
@<TRIPOS>SUBSTRUCTURE
     1 G85         1 TEMP              0 ****  ****    0 ROOT
