@<TRIPOS>MOLECULE
G88
   21    20     1     0     0
SMALL
bcc


@<TRIPOS>ATOM
      1 O6          1.1080   -1.8930   -1.2040 o         1 G88     -0.921300
      2 C6          1.1920   -0.9720   -0.3300 c         1 G88      0.899600
      3 O7          1.0260   -1.2780    0.9040 o         1 G88     -0.921300
      4 C5          1.5600    0.4680   -0.6750 c3        1 G88     -0.160400
      5 C4          1.0010    1.0550   -1.9580 c3        1 G88     -0.040400
      6 C2          1.4780    2.4910   -2.2150 c3        1 G88     -0.079700
      7 C3          2.9910    2.4810   -2.5180 c         1 G88      0.907600
      8 O5          3.8000    3.0230   -1.6860 o         1 G88     -0.928800
      9 O4          3.4740    1.9340   -3.5640 o         1 G88     -0.928800
     10 C1          0.6800    3.1700   -3.3340 c3        1 G88     -0.255600
     11 P1         -0.8100    4.3230   -3.3310 p5        1 G88      1.211700
     12 O2         -0.3680    5.4540   -4.2480 o         1 G88     -0.973833
     13 O3         -1.1440    4.8080   -1.9360 o         1 G88     -0.973833
     14 O1         -1.9260    3.5060   -3.9620 o         1 G88     -0.973833
     15 H5C1        2.6810    0.5140   -0.7290 hc        1 G88      0.024200
     16 H5C2        1.2450    1.1140    0.1880 hc        1 G88      0.024200
     17 H4C1        1.3090    0.4080   -2.8200 hc        1 G88      0.025200
     18 H4C2       -0.1180    1.0470   -1.9110 hc        1 G88      0.025200
     19 H2          1.3540    3.0700   -1.2570 hc        1 G88      0.023700
     20 H1C1        0.3320    2.3660   -4.0280 hc        1 G88      0.008200
     21 H1C2        1.4100    3.7930   -3.9090 hc        1 G88      0.008200
@<TRIPOS>BOND
     1    1    2 1   
     2    2    3 1   
     3    2    4 1   
     4    4    5 1   
     5    4   15 1   
     6    4   16 1   
     7    5    6 1   
     8    5   17 1   
     9    5   18 1   
    10    6    7 1   
    11    6   10 1   
    12    6   19 1   
    13    7    8 1   
    14    7    9 1   
    15   10   11 1   
    16   10   20 1   
    17   10   21 1   
    18   11   12 1   
    19   11   13 1   
    20   11   14 1   
@<TRIPOS>SUBSTRUCTURE
     1 G88         1 TEMP              0 ****  ****    0 ROOT
