@<TRIPOS>MOLECULE
G88
   21    20     1     0     0
SMALL
bcc


@<TRIPOS>ATOM
      1 O6          1.0470   -1.8870   -1.1800 o         1 G88     -0.921300
      2 C6          1.1540   -0.9630   -0.3130 c         1 G88      0.899600
      3 O7          0.9920   -1.2570    0.9250 o         1 G88     -0.921300
      4 C5          1.5450    0.4680   -0.6690 c3        1 G88     -0.160400
      5 C4          0.9860    1.0570   -1.9520 c3        1 G88     -0.040400
      6 C2          1.4870    2.4830   -2.2220 c3        1 G88     -0.079700
      7 C3          2.9970    2.4430   -2.5380 c         1 G88      0.907600
      8 O5          3.8230    2.9760   -1.7160 o         1 G88     -0.928800
      9 O4          3.4610    1.8810   -3.5850 o         1 G88     -0.928800
     10 C1          0.6920    3.1690   -3.3390 c3        1 G88     -0.255600
     11 P1         -0.7770    4.3490   -3.3310 p5        1 G88      1.211700
     12 O2         -0.3230    5.4650   -4.2610 o         1 G88     -0.973833
     13 O3         -1.0880    4.8510   -1.9360 o         1 G88     -0.973833
     14 O1         -1.9130    3.5470   -3.9450 o         1 G88     -0.973833
     15 H5C1        1.2500    1.1250    0.1910 hc        1 G88      0.024200
     16 H5C2        2.6660    0.4930   -0.7340 hc        1 G88      0.024200
     17 H4C1        1.2750    0.4000   -2.8120 hc        1 G88      0.025200
     18 H4C2       -0.1320    1.0700   -1.8960 hc        1 G88      0.025200
     19 H2          1.3820    3.0700   -1.2670 hc        1 G88      0.023700
     20 H1C1        0.3240    2.3670   -4.0240 hc        1 G88      0.008200
     21 H1C2        1.4280    3.7750   -3.9240 hc        1 G88      0.008200
@<TRIPOS>BOND
     1    1    2 1   
     2    2    3 1   
     3    2    4 1   
     4    4    5 1   
     5    4   15 1   
     6    4   16 1   
     7    5    6 1   
     8    5   17 1   
     9    5   18 1   
    10    6    7 1   
    11    6   10 1   
    12    6   19 1   
    13    7    8 1   
    14    7    9 1   
    15   10   11 1   
    16   10   20 1   
    17   10   21 1   
    18   11   12 1   
    19   11   13 1   
    20   11   14 1   
@<TRIPOS>SUBSTRUCTURE
     1 G88         1 TEMP              0 ****  ****    0 ROOT
