@<TRIPOS>MOLECULE
G88
   21    19     1     0     0
SMALL
bcc


@<TRIPOS>ATOM
      1 O6         -2.8930   -1.7130    2.4070 o         1 G88     -0.629000
      2 C6         -1.6610   -1.5140    2.5750 c1        1 G88      0.319000
      3 O7         -1.1990   -1.3800    3.7380 os        1 G88     -0.683000
      4 C5         -0.7370   -1.4380    1.3800 c3        1 G88     -0.189000
      5 C4         -0.6610   -0.0080    0.8920 c3        1 G88     -0.119000
      6 C2          0.3520    0.0890   -0.2280 c3        1 G88     -0.069000
      7 C3          1.6570    0.6260    0.3180 c2        1 G88      0.327000
      8 O5          2.6910   -0.0920    0.2950 o         1 G88     -0.663500
      9 O4          1.7080    1.7890    0.7960 o         1 G88     -0.663500
     10 C1         -0.1680    1.0220   -1.2990 c3        1 G88     -0.742000
     11 P1          0.9060    0.9250   -2.7600 p5        1 G88      1.619500
     12 O2          1.2510   -0.5180   -3.0360 o         1 G88     -0.973833
     13 O3          2.1730    1.7060   -2.5060 o         1 G88     -0.973833
     14 O1          0.1860    1.5080   -3.9530 o         1 G88     -0.973833
     15 H5C1        0.1560   -1.7420    1.6390 hc        1 G88      0.063500
     16 H5C2       -1.0810   -2.0090    0.6640 hc        1 G88      0.063500
     17 H4C1       -1.5390    0.2710    0.5620 hc        1 G88      0.064500
     18 H4C2       -0.3890    0.5740    1.6290 hc        1 G88      0.064500
     19 H2          0.4990   -0.7960   -0.6110 hc        1 G88      0.063000
     20 H1C1       -1.0780    0.7610   -1.5450 hc        1 G88      0.047500
     21 H1C2       -0.1730    1.9390   -0.9580 hc        1 G88      0.047500
@<TRIPOS>BOND
     1    1    2 1   
     2    2    4 1   
     3    4    5 1   
     4    4   15 1   
     5    4   16 1   
     6    5    6 1   
     7    5   17 1   
     8    5   18 1   
     9    6    7 1   
    10    6   10 1   
    11    6   19 1   
    12    7    8 1   
    13    7    9 1   
    14   10   11 1   
    15   10   20 1   
    16   10   21 1   
    17   11   12 1   
    18   11   13 1   
    19   11   14 1   
@<TRIPOS>SUBSTRUCTURE
     1 G88         1 TEMP              0 ****  ****    0 ROOT
