@<TRIPOS>MOLECULE
G88
   21    20     1     0     0
SMALL
bcc


@<TRIPOS>ATOM
      1 O6         -1.2050   -0.2050    0.6490 o         1 G88     -0.921300
      2 C6         -1.3800    0.1170   -0.5700 c         1 G88      0.899600
      3 O7         -2.2720    0.9950   -0.8530 o         1 G88     -0.921300
      4 C5         -0.5240   -0.4350   -1.7050 c3        1 G88     -0.160400
      5 C4         -0.1090   -1.8940   -1.6360 c3        1 G88     -0.040400
      6 C2          0.7850   -2.3170   -2.8100 c3        1 G88     -0.079700
      7 C3          2.1490   -1.6060   -2.6960 c         1 G88      0.907600
      8 O5          2.4750   -0.7310   -3.5740 o         1 G88     -0.928800
      9 O4          2.9660   -1.8430   -1.7450 o         1 G88     -0.928800
     10 C1          0.9440   -3.8400   -2.8920 c3        1 G88     -0.255600
     11 P1          0.0590   -5.1710   -3.8880 p5        1 G88      1.211700
     12 O2          1.2090   -5.9670   -4.4890 o         1 G88     -0.973833
     13 O3         -0.8440   -4.5750   -4.9480 o         1 G88     -0.973833
     14 O1         -0.6940   -5.9880   -2.8510 o         1 G88     -0.973833
     15 H5C1       -1.0800   -0.2610   -2.6650 hc        1 G88      0.024200
     16 H5C2        0.4070    0.1910   -1.7450 hc        1 G88      0.024200
     17 H4C1       -1.0250   -2.5390   -1.6250 hc        1 G88      0.025200
     18 H4C2        0.4420   -2.0710   -0.6760 hc        1 G88      0.025200
     19 H2          0.3100   -1.9350   -3.7570 hc        1 G88      0.023700
     20 H1C1        0.8400   -4.2390   -1.8530 hc        1 G88      0.008200
     21 H1C2        2.0020   -4.0300   -3.2020 hc        1 G88      0.008200
@<TRIPOS>BOND
     1    1    2 1   
     2    2    3 1   
     3    2    4 1   
     4    4    5 1   
     5    4   15 1   
     6    4   16 1   
     7    5    6 1   
     8    5   17 1   
     9    5   18 1   
    10    6    7 1   
    11    6   10 1   
    12    6   19 1   
    13    7    8 1   
    14    7    9 1   
    15   10   11 1   
    16   10   20 1   
    17   10   21 1   
    18   11   12 1   
    19   11   13 1   
    20   11   14 1   
@<TRIPOS>SUBSTRUCTURE
     1 G88         1 TEMP              0 ****  ****    0 ROOT
