@<TRIPOS>MOLECULE
G89
   80    75     1     0     0
SMALL
bcc


@<TRIPOS>ATOM
      1 C21         0.7070   -0.1630    2.8440 c1        1 G89      0.385000
      2 O22         1.8380    0.2440    2.7040 o         1 G89     -0.406000
      3 O23         0.0940   -0.1490    4.1470 os        1 G89     -0.281000
      4 C24         0.8370    0.5590    5.1260 c3        1 G89      0.047000
      5 C25         0.3210    1.7930    5.2980 c3        1 G89     -0.186000
      6 C26         0.5370    2.1210    6.8480 c3        1 G89      0.032000
      7 O27        -0.5630    2.4600    7.4120 os        1 G89     -0.270000
      8 C28        -0.5350    1.7950    8.8890 c3        1 G89     -0.056000
      9 C29         0.0500    0.5990    8.7490 c3        1 G89      0.008000
     10 C30         0.9610    0.7530    7.5310 c3        1 G89     -0.127000
     11 C31         0.7160   -0.2010    6.6030 c3        1 G89     -0.175000
     12 O41         0.8500    0.2720    9.9560 oh        1 G89     -0.321000
     13 N11        -0.1460    0.4990   -3.0140 n3        1 G89     -0.819000
     14 C12         0.6670    1.2010   -4.0260 c3        1 G89     -0.005000
     15 C13         1.2540    2.5160   -3.4030 c3        1 G89     -0.120000
     16 C14         2.6370    2.8310   -4.0570 c3        1 G89     -0.217500
     17 C15         0.3270    3.6310   -3.6500 c3        1 G89     -0.217500
     18 C16         0.5180   -0.3210   -1.9620 c3        1 G89     -0.037000
     19 C17        -0.2330   -0.1740   -0.6590 c3        1 G89     -0.022000
     20 O18        -1.4670   -0.8190   -0.7570 oh        1 G89     -0.331000
     21 C19         0.5910   -0.8090    0.4900 c3        1 G89     -0.002000
     22 N20        -0.0500   -0.5760    1.7030 n2        1 G89     -0.321000
     23 C32         0.7140   -2.3110    0.2600 c3        1 G89     -0.131000
     24 C33         1.6780   -3.9380    1.5130 c1        1 G89     -0.119000
     25 C34         2.5740   -4.9760    1.7230 c1        1 G89     -0.119833
     26 C35         3.8650   -4.8810    1.2450 c1        1 G89     -0.119833
     27 C36         4.2670   -3.7530    0.5580 c1        1 G89     -0.119833
     28 C37         3.3760   -2.7180    0.3480 c1        1 G89     -0.119833
     29 C38         2.0760   -2.8130    0.8280 c1        1 G89     -0.067000
     30 S8         -1.8270    0.5830   -3.0810 s4        1 G89      2.071800
     31 O9         -2.3080    1.8950   -2.6750 o         1 G89     -0.546400
     32 O10        -2.4310   -0.2530   -2.0880 o         1 G89     -0.546400
     33 C5         -2.4010    0.1590   -4.7290 c1        1 G89     -0.870000
     34 C6         -2.2650    1.0790   -5.7670 c1        1 G89     -0.119833
     35 C4         -3.1090   -1.0290   -4.9360 c1        1 G89      0.013000
     36 C7         -2.8370    0.8160   -7.0160 c1        1 G89     -0.119833
     37 C3         -3.6800   -1.2940   -6.1800 c1        1 G89     -0.185000
     38 C2         -3.5430   -0.3690   -7.2240 c1        1 G89      0.146000
     39 O39        -4.2030   -0.6020   -8.4840 os        1 G89     -0.202000
     40 C40        -5.4290    0.1330   -8.6450 c3        1 G89     -0.080000
     41 H24         1.7850    0.6220    4.8540 h1        1 G89      0.122000
     42 H25         0.8060    2.4540    4.7320 hc        1 G89      0.112500
     43 H25A       -0.6630    1.7950    5.0740 hc        1 G89      0.112500
     44 H26         1.2320    2.8090    6.9740 h1        1 G89      0.111000
     45 H28        -0.0110    2.3560    9.5000 h1        1 G89      0.091500
     46 H28A       -1.4360    1.6890    9.2230 h1        1 G89      0.091500
     47 H29        -0.6130   -0.0820    8.5900 h1        1 G89      0.091000
     48 H30         1.9150    0.7630    7.7950 hc        1 G89      0.129000
     49 H31        -0.1770   -0.5620    6.7220 hc        1 G89      0.104500
     50 H31A        1.3950   -0.9300    6.6700 hc        1 G89      0.104500
     51 HO41        0.5080   -0.4690   10.3540 ho        1 G89      0.201000
     52 H12         1.4160    0.6100   -4.3210 h1        1 G89      0.085500
     53 H12A        0.0940    1.4300   -4.8120 h1        1 G89      0.085500
     54 H13         1.3690    2.3960   -2.4380 hc        1 G89      0.089000
     55 H14         2.8970    3.7690   -3.8480 hc        1 G89      0.081667
     56 H14A        2.5750    2.7190   -5.0220 hc        1 G89      0.081667
     57 H14B        3.3110    2.2200   -3.7000 hc        1 G89      0.081667
     58 H15         0.0440    3.6180   -4.5780 hc        1 G89      0.081667
     59 H15A       -0.4470    3.5400   -3.0750 hc        1 G89      0.081667
     60 H15B        0.7750    4.4740   -3.4590 hc        1 G89      0.081667
     61 H16         0.5200   -1.2500   -2.2290 h1        1 G89      0.097000
     62 H16A        1.4340   -0.0160   -1.8430 h1        1 G89      0.097000
     63 H17        -0.3770    0.7780   -0.4700 h1        1 G89      0.127000
     64 HO18       -1.3420   -1.6560   -1.0070 ho        1 G89      0.230000
     65 H19         1.4870   -0.4080    0.5120 h1        1 G89      0.129000
     66 HN20       -0.9390   -0.6590    1.7620 hn        1 G89      0.238000
     67 H32         0.6710   -2.4990   -0.7030 hc        1 G89      0.102000
     68 H32A       -0.0350   -2.7820    0.7250 hc        1 G89      0.102000
     69 H33         0.7770   -4.0050    1.8460 ha        1 G89      0.131000
     70 H34         2.2920   -5.7680    2.2050 ha        1 G89      0.137167
     71 H35         4.4850   -5.6010    1.3920 ha        1 G89      0.137167
     72 H36         5.1770   -3.6850    0.2220 ha        1 G89      0.137167
     73 H37         3.6540   -1.9370   -0.1270 ha        1 G89      0.137167
     74 H6         -1.7550    1.9340   -5.6160 ha        1 G89      0.137167
     75 H4         -3.2050   -1.6790   -4.2040 ha        1 G89      0.151000
     76 H7         -2.7410    1.4600   -7.7400 ha        1 G89      0.137167
     77 H3         -4.1810   -2.1360   -6.3250 ha        1 G89      0.159000
     78 H40        -5.4170    0.9170   -8.0620 h1        1 G89      0.091000
     79 H40A       -6.1920   -0.4430   -8.4050 h1        1 G89      0.091000
     80 H40B       -5.5180    0.4240   -9.5880 h1        1 G89      0.091000
@<TRIPOS>BOND
     1    1    2 1   
     2    1    3 1   
     3    3    4 1   
     4    4    5 1   
     5    4   11 1   
     6    4   41 1   
     7    5    6 1   
     8    5   42 1   
     9    5   43 1   
    10    6    7 1   
    11    6   10 1   
    12    6   44 1   
    13    7    8 1   
    14    8    9 1   
    15    8   45 1   
    16    8   46 1   
    17    9   10 1   
    18    9   12 1   
    19    9   47 1   
    20   10   11 1   
    21   10   48 1   
    22   11   49 1   
    23   11   50 1   
    24   12   51 1   
    25   13   14 1   
    26   13   18 1   
    27   13   30 1   
    28   14   15 1   
    29   14   52 1   
    30   14   53 1   
    31   15   16 1   
    32   15   17 1   
    33   15   54 1   
    34   16   55 1   
    35   16   56 1   
    36   16   57 1   
    37   17   58 1   
    38   17   59 1   
    39   17   60 1   
    40   18   19 1   
    41   18   61 1   
    42   18   62 1   
    43   19   20 1   
    44   19   21 1   
    45   19   63 1   
    46   20   64 1   
    47   21   22 1   
    48   21   23 1   
    49   21   65 1   
    50   22   66 1   
    51   23   29 1   
    52   23   67 1   
    53   23   68 1   
    54   24   29 1   
    55   24   69 1   
    56   25   26 1   
    57   25   70 1   
    58   26   71 1   
    59   27   28 1   
    60   27   72 1   
    61   28   73 1   
    62   30   31 1   
    63   30   32 1   
    64   33   35 1   
    65   34   36 1   
    66   34   74 1   
    67   35   75 1   
    68   36   76 1   
    69   37   38 1   
    70   37   77 1   
    71   38   39 1   
    72   39   40 1   
    73   40   78 1   
    74   40   79 1   
    75   40   80 1   
@<TRIPOS>SUBSTRUCTURE
     1 G89         1 TEMP              0 ****  ****    0 ROOT
