@<TRIPOS>MOLECULE
G89
   80    83     1     0     0
SMALL
bcc


@<TRIPOS>ATOM
      1 C21        -1.8080   -0.6050    0.3650 c         1 G89      0.733100
      2 O22        -1.2860   -0.0900    1.3700 o         1 G89     -0.602000
      3 O23        -2.9320   -0.0290   -0.1890 os        1 G89     -0.439900
      4 C24        -3.4840    1.1040    0.5120 c3        1 G89      0.157100
      5 C25        -2.9320    2.4020   -0.0780 c3        1 G89     -0.124400
      6 C26        -4.1310    3.3000   -0.3760 c3        1 G89      0.144100
      7 O27        -4.0480    3.8250   -1.7060 os        1 G89     -0.413600
      8 C28        -5.0700    3.2690   -2.5330 c3        1 G89      0.093400
      9 C29        -6.0180    2.4270   -1.6630 c3        1 G89      0.120100
     10 C30        -5.4070    2.4420   -0.2530 c3        1 G89     -0.089700
     11 C31        -4.9960    1.0680    0.2550 c3        1 G89     -0.081400
     12 O41        -7.3090    3.0070   -1.5670 oh        1 G89     -0.593800
     13 N11         3.4050   -0.9040   -0.2360 n3        1 G89     -0.799500
     14 C12         3.9130   -0.5700   -1.5410 c3        1 G89      0.220800
     15 C13         4.8910   -1.5840   -2.1600 c3        1 G89     -0.079700
     16 C14         5.2720   -1.0970   -3.5440 c3        1 G89     -0.094600
     17 C15         6.1220   -1.7710   -1.3030 c3        1 G89     -0.094600
     18 C16         2.3960   -1.9210   -0.1780 c3        1 G89      0.193800
     19 C17         1.0110   -1.4910   -0.7110 c3        1 G89      0.075100
     20 O18         0.9270   -1.5910   -2.1190 oh        1 G89     -0.591800
     21 C19        -0.1140   -2.3110   -0.0170 c3        1 G89      0.069700
     22 N20        -1.4340   -1.7720   -0.2810 n         1 G89     -0.503900
     23 C32        -0.0250   -3.7920   -0.4250 c3        1 G89     -0.041100
     24 C33        -2.0170   -5.2930   -0.1740 ca        1 G89     -0.121000
     25 C34        -2.8270   -6.1240    0.5990 ca        1 G89     -0.126000
     26 C35        -2.5350   -6.3320    1.9460 ca        1 G89     -0.127000
     27 C36        -1.4280   -5.7070    2.5210 ca        1 G89     -0.126000
     28 C37        -0.6160   -4.8770    1.7510 ca        1 G89     -0.121000
     29 C38        -0.9050   -4.6630    0.3980 ca        1 G89     -0.081300
     30 S8          3.9170   -0.1160    1.1090 sy        1 G89      1.510200
     31 O9          5.2670    0.2730    0.9520 o         1 G89     -0.655300
     32 O10         3.6210   -0.9130    2.2390 o         1 G89     -0.655300
     33 C5          2.9680    1.2650    1.1390 ca        1 G89     -0.436500
     34 C6          3.5110    2.5110    0.7990 ca        1 G89      0.018000
     35 C4          1.6220    1.2120    1.5370 ca        1 G89      0.018000
     36 C7          2.7500    3.6730    0.8450 ca        1 G89     -0.207500
     37 C3          0.8350    2.3520    1.5860 ca        1 G89     -0.207500
     38 C2          1.4050    3.5930    1.2370 ca        1 G89      0.187100
     39 O39         0.5510    4.6670    1.3140 os        1 G89     -0.320900
     40 C40         1.0930    5.9380    0.9650 c3        1 G89      0.110700
     41 H24        -3.2510    1.0210    1.6070 h1        1 G89      0.084700
     42 H25        -2.2330    2.8940    0.6430 hc        1 G89      0.074700
     43 H25A       -2.3630    2.1950   -1.0200 hc        1 G89      0.074700
     44 H26        -4.1520    4.1950    0.3000 h1        1 G89      0.072700
     45 H28        -5.5990    4.1340   -3.0110 h1        1 G89      0.052200
     46 H28A       -4.5680    2.6430   -3.3140 h1        1 G89      0.052200
     47 H29        -6.1110    1.3850   -2.0740 h1        1 G89      0.050700
     48 H30        -6.1360    2.9180    0.4540 hc        1 G89      0.091700
     49 H31        -5.2380    0.2620   -0.4840 hc        1 G89      0.064200
     50 H31A       -5.5340    0.8240    1.2050 hc        1 G89      0.064200
     51 HO41       -7.6620    3.0560   -2.4630 ho        1 G89      0.403000
     52 H12         3.0420   -0.4470   -2.2510 h1        1 G89      0.057200
     53 H12A        4.4450    0.4240   -1.4610 h1        1 G89      0.057200
     54 H13         4.3670   -2.5750   -2.2650 hc        1 G89      0.039700
     55 H14         5.8180   -0.1250   -3.4800 hc        1 G89      0.039867
     56 H14A        5.9370   -1.8420   -4.0420 hc        1 G89      0.039867
     57 H14B        4.3630   -0.9530   -4.1760 hc        1 G89      0.039867
     58 H15         5.8730   -2.3400   -0.3750 hc        1 G89      0.039867
     59 H15A        6.9030   -2.3400   -1.8640 hc        1 G89      0.039867
     60 H15B        6.5460   -0.7830   -0.9970 hc        1 G89      0.039867
     61 H16         2.7410   -2.8160   -0.7740 h1        1 G89      0.067200
     62 H16A        2.2810   -2.2490    0.8980 h1        1 G89      0.067200
     63 H17         0.8340   -0.3930   -0.5070 h1        1 G89      0.097700
     64 HO18        1.2150   -2.4780   -2.3690 ho        1 G89      0.399000
     65 H19         0.0540   -2.2320    1.1010 h1        1 G89      0.096700
     66 HN20       -1.8000   -1.9140   -1.1960 hn        1 G89      0.320500
     67 H32        -0.2760   -3.9040   -1.5140 hc        1 G89      0.055200
     68 H32A        1.0420   -4.1160   -0.2880 hc        1 G89      0.055200
     69 H33        -2.2540   -5.1310   -1.2360 ha        1 G89      0.131500
     70 H34        -3.6990   -6.6150    0.1420 ha        1 G89      0.133500
     71 H35        -3.1750   -6.9870    2.5540 ha        1 G89      0.133000
     72 H36        -1.1950   -5.8680    3.5840 ha        1 G89      0.133500
     73 H37         0.2560   -4.3850    2.2080 ha        1 G89      0.131500
     74 H6          4.5730    2.5680    0.4980 ha        1 G89      0.159000
     75 H4          1.1680    0.2440    1.8230 ha        1 G89      0.159000
     76 H7          3.2060    4.6360    0.5770 ha        1 G89      0.157000
     77 H3         -0.2230    2.2910    1.8850 ha        1 G89      0.157000
     78 H40         1.9290    6.2110    1.6530 h1        1 G89      0.050033
     79 H40A        1.4380    5.9390   -0.0970 h1        1 G89      0.050033
     80 H40B        0.2250    6.6330    1.1000 h1        1 G89      0.050033
@<TRIPOS>BOND
     1    1    2 2   
     2    1    3 1   
     3    1   22 1   
     4    3    4 1   
     5    4    5 1   
     6    4   11 1   
     7    4   41 1   
     8    5    6 1   
     9    5   42 1   
    10    5   43 1   
    11    6    7 1   
    12    6   10 1   
    13    6   44 1   
    14    7    8 1   
    15    8    9 1   
    16    8   45 1   
    17    8   46 1   
    18    9   10 1   
    19    9   12 1   
    20    9   47 1   
    21   10   11 1   
    22   10   48 1   
    23   11   49 1   
    24   11   50 1   
    25   12   51 1   
    26   13   14 1   
    27   13   18 1   
    28   13   30 1   
    29   14   15 1   
    30   14   52 1   
    31   14   53 1   
    32   15   16 1   
    33   15   17 1   
    34   15   54 1   
    35   16   55 1   
    36   16   56 1   
    37   16   57 1   
    38   17   58 1   
    39   17   59 1   
    40   17   60 1   
    41   18   19 1   
    42   18   61 1   
    43   18   62 1   
    44   19   20 1   
    45   19   21 1   
    46   19   63 1   
    47   20   64 1   
    48   21   22 1   
    49   21   23 1   
    50   21   65 1   
    51   22   66 1   
    52   23   29 1   
    53   23   67 1   
    54   23   68 1   
    55   24   25 ar  
    56   24   29 ar  
    57   24   69 1   
    58   25   26 ar  
    59   25   70 1   
    60   26   27 ar  
    61   26   71 1   
    62   27   28 ar  
    63   27   72 1   
    64   28   29 ar  
    65   28   73 1   
    66   30   31 2   
    67   30   32 2   
    68   30   33 1   
    69   33   34 ar  
    70   33   35 ar  
    71   34   36 ar  
    72   34   74 1   
    73   35   37 ar  
    74   35   75 1   
    75   36   38 ar  
    76   36   76 1   
    77   37   38 ar  
    78   37   77 1   
    79   38   39 1   
    80   39   40 1   
    81   40   78 1   
    82   40   79 1   
    83   40   80 1   
@<TRIPOS>SUBSTRUCTURE
     1 G89         1 TEMP              0 ****  ****    0 ROOT
