@<TRIPOS>MOLECULE
G8M
   21    21     1     0     0
SMALL
bcc


@<TRIPOS>ATOM
      1 CD         -2.2670    0.3980   -0.3330 c         1 G8M      0.931600
      2 OE1        -3.1110   -0.2000   -1.0720 o         1 G8M     -0.870800
      3 OE2        -2.1430    1.6580   -0.3380 o         1 G8M     -0.870800
      4 CG         -1.4800   -0.4210    0.6870 cy        1 G8M     -0.159700
      5 C           2.3340    0.5520    0.2970 c         1 G8M      0.874600
      6 OXT         2.4750    0.9110    1.5020 o         1 G8M     -0.876300
      7 O           3.3320    0.3880   -0.4760 o         1 G8M     -0.876300
      8 CA          0.8980    0.3260   -0.2800 c3        1 G8M      0.042500
      9 N           0.9180   -0.1840   -1.6470 n3        1 G8M     -0.853800
     10 CB          0.0780   -0.4980    0.7000 cy        1 G8M     -0.023700
     11 C6         -0.0070   -2.0360    0.5250 cy        1 G8M     -0.093400
     12 C7         -1.5440   -1.9540    0.5030 cy        1 G8M     -0.089400
     13 HG2        -1.8510   -0.1050    1.6940 hc        1 G8M      0.014700
     14 HA          0.3930    1.3400   -0.3200 h1        1 G8M      0.089700
     15 H2          1.4480    0.4740   -2.1940 hn        1 G8M      0.310800
     16 H1          1.4530   -1.0370   -1.6550 hn        1 G8M      0.310800
     17 HB2         0.4590   -0.2350    1.7220 hc        1 G8M      0.057700
     18 H9          0.4340   -2.4440   -0.4060 hc        1 G8M      0.014200
     19 H10         0.4050   -2.5980    1.3920 hc        1 G8M      0.014200
     20 H11        -2.0410   -2.4990    1.3330 hc        1 G8M      0.026200
     21 H12        -2.0070   -2.2410   -0.4670 hc        1 G8M      0.026200
@<TRIPOS>BOND
     1    1    2 1   
     2    1    3 1   
     3    1    4 1   
     4    4   10 1   
     5    4   12 1   
     6    4   13 1   
     7    5    6 1   
     8    5    7 1   
     9    5    8 1   
    10    8    9 1   
    11    8   10 1   
    12    8   14 1   
    13    9   15 1   
    14    9   16 1   
    15   10   11 1   
    16   10   17 1   
    17   11   12 1   
    18   11   18 1   
    19   11   19 1   
    20   12   20 1   
    21   12   21 1   
@<TRIPOS>SUBSTRUCTURE
     1 G8M         1 TEMP              0 ****  ****    0 ROOT
