@<TRIPOS>MOLECULE
G8S
   83    72     1     0     0
SMALL
bcc


@<TRIPOS>ATOM
      1 CL          6.5680   10.2000   -8.4350 cl        1 G8S     -0.044900
      2 CAA        -2.2010   -7.1750   11.6190 c3        1 G8S      0.172600
      3 CAB        -0.4610   -8.2090   10.1210 c3        1 G8S      0.172600
      4 CAC         0.8290    8.1580   -5.4580 c3        1 G8S      0.178100
      5 CAE         5.1110    9.2640   -6.4260 c1        1 G8S     -0.052800
      6 CAF         4.0160    9.1720   -8.5680 c1        1 G8S     -0.055500
      7 CAG        -2.7640   -4.0950    2.6070 c1        1 G8S     -0.052800
      8 CAH        -0.9130   -2.7100    3.3090 c1        1 G8S     -0.067000
      9 CAI        -0.9110   -0.0450   -4.2410 c1        1 G8S     -0.052800
     10 CAJ         1.0780    0.0460   -2.8920 c1        1 G8S     -0.067000
     11 CAK        -3.1520   -4.2560    3.9430 c1        1 G8S     -0.052800
     12 CAL        -1.3020   -2.8720    4.6490 c1        1 G8S     -0.037500
     13 CAM        -0.2850    0.7150   -5.2180 c1        1 G8S     -0.052800
     14 CAN         1.7060    0.8090   -3.8730 c1        1 G8S     -0.037500
     15 CAO         4.0690    8.5270   -5.8610 c1        1 G8S     -0.052800
     16 CAP         2.9730    8.4350   -8.0030 c1        1 G8S     -0.110000
     17 CAQ        -1.3480   -5.0530    9.1680 c1        1 G8S     -0.182500
     18 CAR        -2.7460   -6.7490    8.2880 c1        1 G8S     -0.052800
     19 CAS         2.4340    5.2910   -4.9960 c1        1 G8S     -0.110000
     20 CAT         1.3270    5.3000   -7.0920 c1        1 G8S     -0.052800
     21 CAU        -1.6960   -4.2180    8.1080 c1        1 G8S      0.414800
     22 CAV        -3.0920   -5.9120    7.2300 c1        1 G8S     -0.052800
     23 CAW         2.4130    3.8870   -4.9920 c1        1 G8S      0.414800
     24 CAX         1.3070    3.8980   -7.0860 c1        1 G8S     -0.052800
     25 CAY        -1.6300   -2.0730    0.1030 c3        1 G8S     -0.076900
     26 CAZ        -0.9980   -2.0190   -1.3020 c3        1 G8S     -0.076900
     27 CBA        -1.1890   -3.3680    0.8180 c3        1 G8S     -0.082300
     28 CBB        -1.2270   -0.6060   -1.9200 c3        1 G8S     -0.082300
     29 CBC        -3.1370   -3.6470    6.3030 c3        1 G8S      0.234200
     30 CBD         1.8350    1.7510   -6.1710 c3        1 G8S      0.234200
     31 CBE         5.0820    9.5850   -7.7780 c1        1 G8S      0.049900
     32 CBF        -1.6440   -3.3210    2.2930 c1        1 G8S     -0.005600
     33 CBG        -0.2270   -0.3790   -3.0760 c1        1 G8S     -0.005600
     34 CBH        -2.4190   -3.6440    4.9620 c1        1 G8S     -0.129100
     35 CBI         1.0250    1.1420   -5.0330 c1        1 G8S     -0.129100
     36 CBJ        -1.8760   -6.3120    9.2480 c1        1 G8S      0.259800
     37 CBK         3.0010    8.1140   -6.6500 c1        1 G8S      0.147800
     38 CBL         1.8910    5.9800   -6.0460 c1        1 G8S      0.147800
     39 NBM        -1.5040   -7.2370   10.3310 n3        1 G8S     -0.577200
     40 NBN         1.9140    7.4200   -6.0480 n3        1 G8S     -0.434800
     41 NBO        -2.5640   -4.6550    7.1510 n1        1 G8S     -0.624300
     42 NBP         1.8500    3.2090   -6.0360 n1        1 G8S     -0.624300
     43 HAA        -3.1680   -7.2480   11.4720 h1        1 G8S      0.073367
     44 HAAA       -1.9990   -6.3170   12.0620 h1        1 G8S      0.073367
     45 HAAB       -1.8970   -7.9230   12.1960 h1        1 G8S      0.073367
     46 HAB         0.4130   -7.7570   10.1170 h1        1 G8S      0.073367
     47 HABA       -0.4830   -8.8730   10.8420 h1        1 G8S      0.073367
     48 HABB       -0.6010   -8.6600    9.2570 h1        1 G8S      0.073367
     49 HAC         0.6000    7.7640   -4.5950 h1        1 G8S      0.074033
     50 HACA        1.1020    9.1000   -5.3290 h1        1 G8S      0.074033
     51 HACB        0.0440    8.1220   -6.0540 h1        1 G8S      0.074033
     52 HAE         5.8600    9.5540   -5.8720 ha        1 G8S      0.109700
     53 HAF         3.9960    9.3950   -9.5080 ha        1 G8S      0.114500
     54 HAG        -3.2740   -4.5210    1.8990 ha        1 G8S      0.109700
     55 HAH        -0.1290   -2.1700    3.0900 ha        1 G8S      0.093000
     56 HAI        -1.8270   -0.3430   -4.3700 ha        1 G8S      0.109700
     57 HAJ         1.5530   -0.1860   -2.0840 ha        1 G8S      0.093000
     58 HAK        -3.9330   -4.7960    4.1620 ha        1 G8S      0.109700
     59 HAL        -0.7890   -2.4440    5.3620 ha        1 G8S      0.082000
     60 HAM        -0.7630    0.9490   -6.0330 ha        1 G8S      0.109700
     61 HAN         2.6220    1.1070   -3.7440 ha        1 G8S      0.082000
     62 HAO         4.0890    8.3020   -4.9080 ha        1 G8S      0.109700
     63 HAP         2.2310    8.1470   -8.5530 ha        1 G8S      0.117500
     64 HAQ        -0.7330   -4.7430    9.8460 ha        1 G8S      0.128500
     65 HAR        -3.1230   -7.6470    8.3440 ha        1 G8S      0.109700
     66 HAS         2.8340    5.7720   -4.2550 ha        1 G8S      0.117500
     67 HAT         0.9440    5.7840   -7.8320 ha        1 G8S      0.109700
     68 HAU        -1.3210   -3.3240    8.0510 ha        1 G8S      0.137500
     69 HAV        -3.7150   -6.2250    6.5420 ha        1 G8S      0.109700
     70 HAW         2.7950    3.4030   -4.2550 ha        1 G8S      0.137500
     71 HAX         0.9100    3.4200   -7.8210 ha        1 G8S      0.109700
     72 HAY        -2.6030   -2.0600    0.0230 hc        1 G8S      0.049450
     73 HAYA       -1.3350   -1.2970    0.6230 hc        1 G8S      0.049450
     74 HAZ        -1.4130   -2.6940   -1.8720 hc        1 G8S      0.049450
     75 HAZA       -0.0380   -2.1940   -1.2350 hc        1 G8S      0.049450
     76 HBA        -0.2120   -3.4470    0.7790 hc        1 G8S      0.059950
     77 HBAA       -1.5980   -4.1420    0.3740 hc        1 G8S      0.059950
     78 HBB        -1.0900    0.0810   -1.2270 hc        1 G8S      0.059950
     79 HBBA       -2.1440   -0.5450   -2.2650 hc        1 G8S      0.059950
     80 HBC        -3.0390   -2.7700    6.7270 h1        1 G8S      0.089950
     81 HBCA       -4.0890   -3.8390    6.1640 h1        1 G8S      0.089950
     82 HBD         2.7550    1.4100   -6.1370 h1        1 G8S      0.089950
     83 HBDA        1.4260    1.5070   -7.0310 h1        1 G8S      0.089950
@<TRIPOS>BOND
     1    1   31 1   
     2    2   39 1   
     3    2   43 1   
     4    2   44 1   
     5    2   45 1   
     6    3   39 1   
     7    3   46 1   
     8    3   47 1   
     9    3   48 1   
    10    4   40 1   
    11    4   49 1   
    12    4   50 1   
    13    4   51 1   
    14    5   15 3   
    15    5   52 1   
    16    6   31 3   
    17    6   53 1   
    18    7   11 3   
    19    7   54 1   
    20    8   32 3   
    21    8   55 1   
    22    9   13 3   
    23    9   56 1   
    24   10   33 3   
    25   10   57 1   
    26   11   58 1   
    27   12   34 3   
    28   12   59 1   
    29   13   60 1   
    30   14   35 3   
    31   14   61 1   
    32   15   62 1   
    33   16   37 3   
    34   16   63 1   
    35   17   36 3   
    36   17   64 1   
    37   18   22 3   
    38   18   65 1   
    39   19   38 3   
    40   19   66 1   
    41   20   24 3   
    42   20   67 1   
    43   21   41 3   
    44   21   68 1   
    45   22   69 1   
    46   23   42 3   
    47   23   70 1   
    48   24   71 1   
    49   25   26 1   
    50   25   27 1   
    51   25   72 1   
    52   25   73 1   
    53   26   28 1   
    54   26   74 1   
    55   26   75 1   
    56   27   32 1   
    57   27   76 1   
    58   27   77 1   
    59   28   33 1   
    60   28   78 1   
    61   28   79 1   
    62   29   34 1   
    63   29   41 1   
    64   29   80 1   
    65   29   81 1   
    66   30   35 1   
    67   30   42 1   
    68   30   82 1   
    69   30   83 1   
    70   36   39 1   
    71   37   40 1   
    72   38   40 1   
@<TRIPOS>SUBSTRUCTURE
     1 G8S         1 TEMP              0 ****  ****    0 ROOT
