@<TRIPOS>MOLECULE
G8S
   83    85     1     0     0
SMALL
bcc


@<TRIPOS>ATOM
      1 Cl          0.0000    0.0000    0.0000 cl        1 G8S      0.109000
      2 CAA         2.5450   24.6980   -5.2510 c3        1 G8S     -0.076000
      3 CAB         1.9780   24.8290   -2.8020 c3        1 G8S     -0.076000
      4 CAC         5.9600   -1.2930    2.8500 c3        1 G8S     -0.070000
      5 CAE         2.7070    0.0000    0.0000 ca        1 G8S     -0.089500
      6 CAF         1.6430   -0.0000    2.1500 ca        1 G8S     -0.089500
      7 CAG         3.3650   16.0390   -1.8200 c2        1 G8S     -0.109000
      8 CAH         4.7540   16.4650   -3.7310 c2        1 G8S     -0.109000
      9 CAI         7.6490    7.8840    1.2160 ca        1 G8S     -0.063000
     10 CAJ         9.9190    7.8360    1.9960 ca        1 G8S     -0.063000
     11 CAK         2.4110   16.9170   -2.3180 c2        1 G8S     -0.056500
     12 CAL         3.8000   17.3430   -4.2290 c2        1 G8S     -0.056500
     13 CAM         7.3700    6.7440    1.9560 ca        1 G8S     -0.094500
     14 CAN         9.6400    6.6950    2.7360 ca        1 G8S     -0.094500
     15 CAO         3.9460    0.0000    0.6100 ca        1 G8S     -0.076500
     16 CAP         2.8800   -0.0010    2.7650 ca        1 G8S     -0.076500
     17 CAQ         2.2250   21.8760   -5.0980 c2        1 G8S     -0.195000
     18 CAR         1.9900   21.9550   -2.7640 c2        1 G8S     -0.195000
     19 CAS         7.2180    1.3760    3.4800 c2        1 G8S     -0.106000
     20 CAT         5.3970    2.4940    2.5080 c2        1 G8S     -0.106000
     21 CAU         2.3460   20.4940   -5.0370 c2        1 G8S     -0.044000
     22 CAV         2.1120   20.5730   -2.7070 c2        1 G8S     -0.044000
     23 CAW         7.8410    2.5950    3.7100 c2        1 G8S     -0.169000
     24 CAX         6.0240    3.7110    2.7400 c2        1 G8S     -0.169000
     25 CAY         9.5220   10.9060   -1.6560 c3        1 G8S     -0.160000
     26 CAZ         9.3020   10.4380   -0.2110 c3        1 G8S     -0.085000
     27 CBA         9.5130   12.4380   -1.7040 c2        1 G8S      0.168000
     28 CBC         1.3560   18.0760   -4.2120 c2        1 G8S      0.285000
     29 CBD         7.6540    5.0540    3.8230 c3        1 G8S     -0.111000
     30 CBE         1.5560   -0.0010    0.7690 ca        1 G8S     -0.099000
     31 CBF         4.5360   15.8140   -2.5270 c1        1 G8S     -0.120000
     32 CBG         8.9230    8.4300    1.2370 ca        1 G8S     -0.081000
     33 CBH         2.6290   17.5670   -3.5220 c2        1 G8S     -0.233000
     34 CBI         8.3660    6.1500    2.7160 ca        1 G8S     -0.084000
     35 CBJ         2.0480   22.5910   -3.9600 c2        1 G8S      0.057000
     36 CBK         4.0360   -0.0000    1.9950 ca        1 G8S     -0.141000
     37 CBL         6.0020    1.3400    2.8810 c2        1 G8S      0.036000
     38 NBM         2.1830   24.0410   -4.0060 nh        1 G8S      0.039000
     39 NBN         5.2890   -0.0250    2.6160 nh        1 G8S      0.099000
     40 NBO         2.2880   19.8620   -3.8430 n2        1 G8S      0.036000
     41 NBP         7.2360    3.7460    3.3370 na        1 G8S      0.492000
     42 HAA         3.4790   24.2880   -5.6170 h1        1 G8S      0.058833
     43 HAAA        1.7660   24.5330   -5.9860 h1        1 G8S      0.058833
     44 HAAB        2.6600   25.7610   -5.0790 h1        1 G8S      0.058833
     45 HAB         1.9610   25.8820   -3.0580 h1        1 G8S      0.058833
     46 HABA        1.0350   24.5530   -2.3470 h1        1 G8S      0.058833
     47 HABB        2.7850   24.6400   -2.1050 h1        1 G8S      0.058833
     48 HAC         5.2360   -2.0980    2.8070 h1        1 G8S      0.061667
     49 HACA        6.7170   -1.4470    2.0900 h1        1 G8S      0.061667
     50 HACB        6.4280   -1.2790    3.8270 h1        1 G8S      0.061667
     51 HAE         2.6350    0.0000   -1.0810 ha        1 G8S      0.130000
     52 HAF         0.7400   -0.0010    2.7490 ha        1 G8S      0.130000
     53 HAG         3.1950   15.5310   -0.8780 ha        1 G8S      0.116000
     54 HAH         5.6690   16.2890   -4.2840 ha        1 G8S      0.116000
     55 HAI         6.8700    8.3490    0.6230 ha        1 G8S      0.121000
     56 HAJ        10.9150    8.2620    2.0120 ha        1 G8S      0.121000
     57 HAK         1.4960   17.0920   -1.7650 ha        1 G8S      0.102000
     58 HAL         3.9710   17.8510   -5.1700 ha        1 G8S      0.102000
     59 HAM         6.3740    6.3180    1.9400 ha        1 G8S      0.107500
     60 HAN        10.4190    6.2300    3.3290 ha        1 G8S      0.107500
     61 HAO         4.8460    0.0010    0.0070 ha        1 G8S      0.115500
     62 HAP         2.9470   -0.0000    3.8470 ha        1 G8S      0.115500
     63 HAQ         2.2710   22.3830   -6.0540 ha        1 G8S      0.147000
     64 HAR         1.8490   22.5250   -1.8530 ha        1 G8S      0.147000
     65 HAS         7.7030    0.4550    3.7790 ha        1 G8S      0.160000
     66 HAT         4.4260    2.4670    2.0300 ha        1 G8S      0.160000
     67 HAU         2.4870   19.9230   -5.9460 h4        1 G8S      0.139500
     68 HAV         2.0660   20.0650   -1.7510 h4        1 G8S      0.139500
     69 HAW         8.8130    2.6240    4.1880 h4        1 G8S      0.168000
     70 HAX         5.5410    4.6340    2.4420 h4        1 G8S      0.168000
     71 HAY        10.4770   10.5400   -2.0120 hc        1 G8S      0.081000
     72 HAYA        8.7300   10.5200   -2.2850 hc        1 G8S      0.081000
     73 HAZ        10.0770   10.8510    0.4250 hc        1 G8S      0.064500
     74 HAZA        8.3330   10.7770    0.1350 hc        1 G8S      0.064500
     75 HBA         8.5920   12.8070   -1.2690 ha        1 G8S      0.066000
     76 HBAA       10.3570   12.8220   -1.1440 ha        1 G8S      0.066000
     77 HBB        10.3700    8.5750   -0.3510 hc        1 G8S      0.070000
     78 HBBA        8.6910    8.4940   -0.9030 hc        1 G8S      0.070000
     79 HBC         1.3350   17.7230   -5.2360 ha        1 G8S      0.084500
     80 HBCA        0.4860   17.7050   -3.6840 ha        1 G8S      0.084500
     81 HBD         8.3450    4.8620    4.6350 h1        1 G8S      0.093000
     82 HBDA        6.7420    5.4840    4.2190 h1        1 G8S      0.093000
     83 CBB         9.3580    8.9070   -0.1550 c3        1 G8S     -0.046000
@<TRIPOS>BOND
     1    1   30 1   
     2    2   38 1   
     3    2   42 1   
     4    2   43 1   
     5    2   44 1   
     6    3   38 1   
     7    3   45 1   
     8    3   46 1   
     9    3   47 1   
    10    4   39 1   
    11    4   48 1   
    12    4   49 1   
    13    4   50 1   
    14    5   15 1   
    15    5   30 1   
    16    5   51 1   
    17    6   16 1   
    18    6   30 1   
    19    6   52 1   
    20    7   11 1   
    21    7   31 1   
    22    7   53 1   
    23    8   12 1   
    24    8   31 1   
    25    8   54 1   
    26    9   13 1   
    27    9   32 1   
    28    9   55 1   
    29   10   14 1   
    30   10   32 1   
    31   10   56 1   
    32   11   33 1   
    33   11   57 1   
    34   12   33 1   
    35   12   58 1   
    36   13   34 1   
    37   13   59 1   
    38   14   34 1   
    39   14   60 1   
    40   15   36 1   
    41   15   61 1   
    42   16   36 1   
    43   16   62 1   
    44   17   21 1   
    45   17   35 1   
    46   17   63 1   
    47   18   22 1   
    48   18   35 1   
    49   18   64 1   
    50   19   23 1   
    51   19   37 1   
    52   19   65 1   
    53   20   24 1   
    54   20   37 1   
    55   20   66 1   
    56   21   40 1   
    57   21   67 1   
    58   22   40 1   
    59   22   68 1   
    60   23   41 1   
    61   23   69 1   
    62   24   41 1   
    63   24   70 1   
    64   25   26 1   
    65   25   27 1   
    66   25   71 1   
    67   25   72 1   
    68   26   73 1   
    69   26   74 1   
    70   26   83 1   
    71   27   75 1   
    72   27   76 1   
    73   28   33 1   
    74   28   79 1   
    75   28   80 1   
    76   29   34 1   
    77   29   41 1   
    78   29   81 1   
    79   29   82 1   
    80   32   83 1   
    81   35   38 1   
    82   36   39 1   
    83   37   39 1   
    84   77   83 1   
    85   78   83 1   
@<TRIPOS>SUBSTRUCTURE
     1 G8S         1 TEMP              0 ****  ****    0 ROOT
