@<TRIPOS>MOLECULE
G8S
   83    87     1     0     0
SMALL
bcc


@<TRIPOS>ATOM
      1 CL        -10.7200   -4.6770    0.2430 cl        1 G8S     -0.035400
      2 CAA        13.9790    1.4440   -0.6480 c3        1 G8S     -0.004900
      3 CAB        14.7760   -0.8260   -1.2800 c3        1 G8S     -0.004900
      4 CAC       -10.5380    1.9290    1.2380 c3        1 G8S      0.000600
      5 CAE       -10.9860   -2.1080   -0.4700 ca        1 G8S     -0.114500
      6 CAF        -9.4300   -2.5950    1.3270 ca        1 G8S     -0.114500
      7 CAG         5.8410   -0.7930   -1.0930 ca        1 G8S     -0.125000
      8 CAH         5.7870    0.1400    1.1360 ca        1 G8S     -0.125000
      9 CAI        -1.5280    0.9620   -1.1430 ca        1 G8S     -0.124500
     10 CAJ        -1.5800    1.8940    1.0860 ca        1 G8S     -0.124500
     11 CAK         7.0040   -1.4910   -0.7730 ca        1 G8S     -0.101500
     12 CAL         6.9510   -0.5530    1.4570 ca        1 G8S     -0.101500
     13 CAM        -2.6900    1.6580   -1.4640 ca        1 G8S     -0.101500
     14 CAN        -2.7420    2.5940    0.7660 ca        1 G8S     -0.101500
     15 CAO       -10.6890   -0.7530   -0.3660 ca        1 G8S     -0.110000
     16 CAP        -9.1270   -1.2420    1.4390 ca        1 G8S     -0.110000
     17 CAQ        11.4750    0.3180    0.1380 cc        1 G8S     -0.328600
     18 CAR        12.2550   -1.9050   -0.4820 cc        1 G8S     -0.328600
     19 CAS        -7.9820    3.0100    0.4990 cc        1 G8S     -0.326600
     20 CAT        -7.2270    0.7990   -0.1940 cc        1 G8S     -0.326600
     21 CAU        10.2760   -0.2510    0.5180 cd        1 G8S      0.121000
     22 CAV        11.0330   -2.4060   -0.0840 cd        1 G8S      0.121000
     23 CAW        -6.7570    3.5100    0.1070 cd        1 G8S      0.118500
     24 CAX        -6.0270    1.3650   -0.5660 cd        1 G8S      0.118500
     25 CAY         2.7520    0.1530    0.1660 c3        1 G8S     -0.077400
     26 CAZ         1.5060    0.9450   -0.1730 c3        1 G8S     -0.077400
     27 CBA         3.9780    0.7740   -0.4800 c3        1 G8S     -0.048100
     28 CBC         8.7700   -2.1780    0.8740 c3        1 G8S      0.244100
     29 CBD        -4.5050    3.2870   -0.8800 c3        1 G8S      0.244100
     30 CBE       -10.3570   -3.0320    0.3730 ca        1 G8S      0.038400
     31 CBF         5.2200    0.0250   -0.1410 ca        1 G8S     -0.039300
     32 CBG        -0.9610    1.0750    0.1340 ca        1 G8S     -0.040300
     33 CBH         7.5640   -1.3750    0.5040 ca        1 G8S     -0.164300
     34 CBI        -3.3010    2.4810   -0.5100 ca        1 G8S     -0.162300
     35 CBJ        12.5380   -0.4970   -0.3850 cc        1 G8S      0.431900
     36 CBK        -9.7540   -0.3080    0.5900 ca        1 G8S     -0.071200
     37 CBL        -8.2790    1.6100    0.3580 cc        1 G8S      0.440900
     38 NBM        13.7310    0.0260   -0.7630 nh        1 G8S     -0.221100
     39 NBN        -9.4790    1.0910    0.7210 nh        1 G8S     -0.155200
     40 NBO        10.0390   -1.6000    0.4170 na        1 G8S     -0.437200
     41 NBP        -5.7760    2.7100   -0.4280 na        1 G8S     -0.438200
     42 HAA        15.0160    1.6840   -1.0060 h1        1 G8S      0.073367
     43 HAAA       13.2410    2.0170   -1.2730 h1        1 G8S      0.073367
     44 HAAB       13.8860    1.7670    0.4250 h1        1 G8S      0.073367
     45 HAB        15.0640   -1.5940   -0.5120 h1        1 G8S      0.073367
     46 HABA       14.4230   -1.3470   -2.2120 h1        1 G8S      0.073367
     47 HABB       15.6820   -0.2140   -1.5330 h1        1 G8S      0.073367
     48 HAC       -10.2150    2.4010    2.2060 h1        1 G8S      0.074700
     49 HACA      -10.7910    2.7350    0.4970 h1        1 G8S      0.074700
     50 HACB      -11.4510    1.3020    1.4230 h1        1 G8S      0.074700
     51 HAE       -11.7210   -2.4500   -1.2180 ha        1 G8S      0.170000
     52 HAF        -8.9420   -3.3210    2.0000 ha        1 G8S      0.170000
     53 HAG         5.4060   -0.8920   -2.1000 ha        1 G8S      0.150500
     54 HAH         5.3030    0.7800    1.8910 ha        1 G8S      0.150500
     55 HAI        -1.0460    0.3220   -1.8980 ha        1 G8S      0.150000
     56 HAJ        -1.1450    1.9910    2.0930 ha        1 G8S      0.150000
     57 HAK         7.4740   -2.1400   -1.5270 ha        1 G8S      0.139500
     58 HAL         7.3770   -0.4640    2.4680 ha        1 G8S      0.139500
     59 HAM        -3.1160    1.5700   -2.4750 ha        1 G8S      0.139500
     60 HAN        -3.2110    3.2440    1.5210 ha        1 G8S      0.139500
     61 HAO       -11.1980   -0.0370   -1.0320 ha        1 G8S      0.153000
     62 HAP        -8.4040   -0.9130    2.2030 ha        1 G8S      0.153000
     63 HAQ        11.5970    1.4070    0.2460 ha        1 G8S      0.185500
     64 HAR        13.0080   -2.6070   -0.8750 ha        1 G8S      0.185500
     65 HAS        -8.7250    3.7060    0.9200 ha        1 G8S      0.189500
     66 HAT        -7.3760   -0.2860   -0.3280 ha        1 G8S      0.189500
     67 HAU         9.4430    0.3640    0.9200 h4        1 G8S      0.198500
     68 HAV        10.8120   -3.4910   -0.1540 h4        1 G8S      0.198500
     69 HAW        -6.5240    4.5900    0.2090 h4        1 G8S      0.197500
     70 HAX        -5.2020    0.7550   -0.9940 h4        1 G8S      0.197500
     71 HAY         2.8910    0.1210    1.2780 hc        1 G8S      0.049200
     72 HAYA        2.6350   -0.9050   -0.1870 hc        1 G8S      0.049200
     73 HAZ         1.6230    2.0030    0.1800 hc        1 G8S      0.049200
     74 HAZA        1.3680    0.9780   -1.2860 hc        1 G8S      0.049200
     75 HBA         3.8380    0.8000   -1.5940 hc        1 G8S      0.060200
     76 HBAA        4.0830    1.8380   -0.1330 hc        1 G8S      0.060200
     77 HBB         0.1750   -0.7390    0.1240 hc        1 G8S      0.059700
     78 HBBA        0.4200    0.2960    1.5860 hc        1 G8S      0.059700
     79 HBC         8.8360   -2.2800    1.9970 h1        1 G8S      0.090200
     80 HBCA        8.6800   -3.2120    0.4280 h1        1 G8S      0.090200
     81 HBD        -4.4140    4.3200   -0.4330 h1        1 G8S      0.089700
     82 HBDA       -4.5690    3.3920   -2.0040 h1        1 G8S      0.089700
     83 CBB         0.2800    0.3250    0.4720 c3        1 G8S     -0.048100
@<TRIPOS>BOND
     1    1   30 1   
     2    2   38 1   
     3    2   42 1   
     4    2   43 1   
     5    2   44 1   
     6    3   38 1   
     7    3   45 1   
     8    3   46 1   
     9    3   47 1   
    10    4   39 1   
    11    4   48 1   
    12    4   49 1   
    13    4   50 1   
    14    5   15 ar  
    15    5   30 ar  
    16    5   51 1   
    17    6   16 ar  
    18    6   30 ar  
    19    6   52 1   
    20    7   11 ar  
    21    7   31 ar  
    22    7   53 1   
    23    8   12 ar  
    24    8   31 ar  
    25    8   54 1   
    26    9   13 ar  
    27    9   32 ar  
    28    9   55 1   
    29   10   14 ar  
    30   10   32 ar  
    31   10   56 1   
    32   11   33 ar  
    33   11   57 1   
    34   12   33 ar  
    35   12   58 1   
    36   13   34 ar  
    37   13   59 1   
    38   14   34 ar  
    39   14   60 1   
    40   15   36 ar  
    41   15   61 1   
    42   16   36 ar  
    43   16   62 1   
    44   17   21 2   
    45   17   35 1   
    46   17   63 1   
    47   18   22 2   
    48   18   35 1   
    49   18   64 1   
    50   19   23 2   
    51   19   37 1   
    52   19   65 1   
    53   20   24 2   
    54   20   37 1   
    55   20   66 1   
    56   21   40 1   
    57   21   67 1   
    58   22   40 1   
    59   22   68 1   
    60   23   41 1   
    61   23   69 1   
    62   24   41 1   
    63   24   70 1   
    64   25   26 1   
    65   25   27 1   
    66   25   71 1   
    67   25   72 1   
    68   26   73 1   
    69   26   74 1   
    70   26   83 1   
    71   27   31 1   
    72   27   75 1   
    73   27   76 1   
    74   28   33 1   
    75   28   40 1   
    76   28   79 1   
    77   28   80 1   
    78   29   34 1   
    79   29   41 1   
    80   29   81 1   
    81   29   82 1   
    82   32   83 1   
    83   35   38 2   
    84   36   39 1   
    85   37   39 2   
    86   77   83 1   
    87   78   83 1   
@<TRIPOS>SUBSTRUCTURE
     1 G8S         1 TEMP              0 ****  ****    0 ROOT
