@<TRIPOS>MOLECULE
G8U
   44    46     1     0     0
SMALL
bcc


@<TRIPOS>ATOM
      1 C1         -0.9600   -0.1470   -0.7290 c3        1 G8U      0.821700
      2 F1         -0.1810   -0.3560   -1.8180 f         1 G8U     -0.215300
      3 F2         -0.2770    0.6140    0.1630 f         1 G8U     -0.215300
      4 F3         -2.0870    0.5090   -1.1000 f         1 G8U     -0.215300
      5 C4         -0.4610   -2.2960    0.2110 ca        1 G8U      0.104100
      6 C5         -0.4750   -3.5050   -0.4910 ca        1 G8U     -0.128000
      7 C6          0.3830   -4.5230   -0.0470 ca        1 G8U      0.115100
      8 C7          1.2250   -4.3390    1.0570 ca        1 G8U     -0.167000
      9 C8          1.2100   -3.1200    1.7320 ca        1 G8U     -0.094000
     10 C9          0.3700   -2.0870    1.3190 ca        1 G8U     -0.153000
     11 O10         0.4040   -5.6660   -0.8390 os        1 G8U     -0.245200
     12 C11         0.6260   -6.8780   -0.1880 ca        1 G8U      0.107100
     13 C12         0.1140   -7.1700    1.0810 ca        1 G8U     -0.158500
     14 C13         0.3020   -8.4450    1.6100 ca        1 G8U     -0.085000
     15 C14         0.9910   -9.4240    0.8800 cp        1 G8U     -0.049000
     16 C15         1.4870   -9.1160   -0.3950 ca        1 G8U     -0.085000
     17 C16         1.3170   -7.8440   -0.9340 ca        1 G8U     -0.158500
     18 C17         1.1730  -10.7640    1.4360 cp        1 G8U     -0.173300
     19 C18         0.4360  -11.8560    0.9170 ca        1 G8U      0.187100
     20 C19         0.6080  -13.1370    1.4750 ca        1 G8U     -0.206900
     21 C20         1.5260  -13.2990    2.5430 ca        1 G8U      0.477600
     22 C22         2.0690  -11.0310    2.4960 ca        1 G8U      0.421600
     23 O23        -0.4150  -11.5920   -0.1200 oh        1 G8U     -0.473100
     24 C24         2.9230   -9.9080    3.0530 c3        1 G8U      0.082100
     25 O25         2.9240   -9.8430    4.4600 oh        1 G8U     -0.588800
     26 Cl         -0.2710  -14.4620    0.8790 cl        1 G8U     -0.075400
     27 C27         1.7140  -14.6540    3.1460 c3        1 G8U     -0.156400
     28 N28         2.2410  -12.2630    3.0290 nb        1 G8U     -0.700000
     29 O29        -1.4150   -1.3430   -0.1520 os        1 G8U     -0.369900
     30 H5         -1.1340   -3.6570   -1.3580 ha        1 G8U      0.172000
     31 H9          0.3540   -1.1220    1.8460 ha        1 G8U      0.158000
     32 H7          1.8880   -5.1540    1.3830 ha        1 G8U      0.154000
     33 H8          1.8700   -2.9700    2.6000 ha        1 G8U      0.146000
     34 H12        -0.4310   -6.4020    1.6490 ha        1 G8U      0.152500
     35 H16         1.7000   -7.5940   -1.9340 ha        1 G8U      0.152500
     36 H13        -0.0990   -8.6860    2.6070 ha        1 G8U      0.145000
     37 H15         2.0100   -9.8890   -0.9770 ha        1 G8U      0.145000
     38 H23        -0.8850  -12.4110   -0.3520 ho        1 G8U      0.435000
     39 H271        0.7370  -15.0160    3.5530 hc        1 G8U      0.063700
     40 H272        2.4650  -14.6460    3.9750 hc        1 G8U      0.063700
     41 H273        2.0620  -15.3660    2.3570 hc        1 G8U      0.063700
     42 H241        2.5150   -8.9110    2.7290 h1        1 G8U      0.065200
     43 H242        3.9710  -10.0330    2.6630 h1        1 G8U      0.065200
     44 H25         3.2840  -10.6720    4.8010 ho        1 G8U      0.417000
@<TRIPOS>BOND
     1    1    2 1   
     2    1    3 1   
     3    1    4 1   
     4    1   29 1   
     5    5    6 ar  
     6    5   10 ar  
     7    5   29 1   
     8    6    7 ar  
     9    6   30 1   
    10    7    8 ar  
    11    7   11 1   
    12    8    9 ar  
    13    8   32 1   
    14    9   10 ar  
    15    9   33 1   
    16   10   31 1   
    17   11   12 1   
    18   12   13 ar  
    19   12   17 ar  
    20   13   14 ar  
    21   13   34 1   
    22   14   15 ar  
    23   14   36 1   
    24   15   16 ar  
    25   15   18 1   
    26   16   17 ar  
    27   16   37 1   
    28   17   35 1   
    29   18   19 ar  
    30   18   22 ar  
    31   19   20 ar  
    32   19   23 1   
    33   20   21 ar  
    34   20   26 1   
    35   21   27 1   
    36   21   28 ar  
    37   22   24 1   
    38   22   28 ar  
    39   23   38 1   
    40   24   25 1   
    41   24   42 1   
    42   24   43 1   
    43   25   44 1   
    44   27   39 1   
    45   27   40 1   
    46   27   41 1   
@<TRIPOS>SUBSTRUCTURE
     1 G8U         1 TEMP              0 ****  ****    0 ROOT
