@<TRIPOS>MOLECULE
G8V
   33    34     1     0     0
SMALL
bcc


@<TRIPOS>ATOM
      1 CAA        -0.2650   -0.0070   -0.1860 c3        1 G8V     -0.003400
      2 CAB         1.8330    0.3130    1.1120 c3        1 G8V     -0.003400
      3 CAG         1.7760    2.8080   -7.8610 ca        1 G8V     -0.121500
      4 CAH         2.4040    4.7560   -6.5740 ca        1 G8V     -0.121500
      5 CAK         2.4530    1.9900   -6.9580 ca        1 G8V     -0.107500
      6 CAL         3.0850    3.9430   -5.6690 ca        1 G8V     -0.107500
      7 CAQ         1.1370    0.6920   -2.5730 cc        1 G8V     -0.329600
      8 CAR         3.1900    1.0070   -1.3020 cc        1 G8V     -0.329600
      9 CAU         1.8350    1.0340   -3.7140 cd        1 G8V      0.121500
     10 CAV         3.8260    1.3400   -2.4810 cd        1 G8V      0.121500
     11 CBC         3.8880    1.6860   -4.9260 c3        1 G8V      0.243100
     12 CBF         1.7500    4.1910   -7.6690 ca        1 G8V     -0.090000
     13 CBH         3.1100    2.5570   -5.8590 ca        1 G8V     -0.164300
     14 CBJ         1.7940    0.6630   -1.2960 cc        1 G8V      0.431900
     15 NBM         1.1380    0.3320   -0.1530 nh        1 G8V     -0.226100
     16 NBO         3.1700    1.3550   -3.6880 na        1 G8V     -0.434200
     17 HAA        -0.6270   -0.2490    0.8480 h1        1 G8V      0.071700
     18 HAAA       -0.4310   -0.9030   -0.8440 h1        1 G8V      0.071700
     19 HAAB       -0.8620    0.8590   -0.5830 h1        1 G8V      0.071700
     20 HAB         2.6790   -0.4260    1.0790 h1        1 G8V      0.071700
     21 HABA        1.1280    0.0150    1.9340 h1        1 G8V      0.071700
     22 HABB        2.2420    1.3340    1.3430 h1        1 G8V      0.071700
     23 HAH         2.3890    5.8480   -6.4260 ha        1 G8V      0.154000
     24 HAK         2.4850    0.9020   -7.1220 ha        1 G8V      0.137500
     25 HAL         3.6100    4.3950   -4.8140 ha        1 G8V      0.137500
     26 HAQ         0.0680    0.4440   -2.6670 ha        1 G8V      0.185000
     27 HAR         3.7770    1.0130   -0.3690 ha        1 G8V      0.185000
     28 HAU         1.3420    1.0680   -4.7100 h4        1 G8V      0.200000
     29 HAV         4.9040    1.6050   -2.4920 h4        1 G8V      0.200000
     30 HBC         4.1470    0.7090   -5.4300 h1        1 G8V      0.090200
     31 HBCA        4.8490    2.2060   -4.6410 h1        1 G8V      0.090200
     32 HBF         1.2170    4.8350   -8.3860 ha        1 G8V      0.155000
     33 HAG         1.2680    2.3620   -8.7300 ha        1 G8V      0.154000
@<TRIPOS>BOND
     1    1   15 1   
     2    1   17 1   
     3    1   18 1   
     4    1   19 1   
     5    2   15 1   
     6    2   20 1   
     7    2   21 1   
     8    2   22 1   
     9    3    5 ar  
    10    3   12 ar  
    11    3   33 1   
    12    4    6 ar  
    13    4   12 ar  
    14    4   23 1   
    15    5   13 ar  
    16    5   24 1   
    17    6   13 ar  
    18    6   25 1   
    19    7    9 2   
    20    7   14 1   
    21    7   26 1   
    22    8   10 2   
    23    8   14 1   
    24    8   27 1   
    25    9   16 1   
    26    9   28 1   
    27   10   16 1   
    28   10   29 1   
    29   11   13 1   
    30   11   16 1   
    31   11   30 1   
    32   11   31 1   
    33   12   32 1   
    34   14   15 2   
@<TRIPOS>SUBSTRUCTURE
     1 G8V         1 TEMP              0 ****  ****    0 ROOT
