@<TRIPOS>MOLECULE
G8V
   33    28     1     0     0
SMALL
bcc


@<TRIPOS>ATOM
      1 CAA        -1.7160   -2.1470    3.8980 c3        1 G8V      0.174100
      2 CAB        -2.6630    0.1050    3.5290 c3        1 G8V      0.174100
      3 CAG         3.0920    2.1520   -2.9620 c1        1 G8V     -0.049333
      4 CAH         0.8570    2.3740   -3.8250 c1        1 G8V     -0.049333
      5 CAK         2.7000    1.0310   -2.2340 c1        1 G8V     -0.049333
      6 CAL         0.4640    1.2520   -3.0980 c1        1 G8V     -0.056500
      7 CAQ        -1.7470   -0.6050    0.6760 c1        1 G8V     -0.186500
      8 CAR         0.2560   -1.0630    1.8600 c1        1 G8V     -0.049333
      9 CAU        -1.0240   -0.5310   -0.5180 c1        1 G8V      0.427300
     10 CAV         0.9770   -0.9890    0.6660 c1        1 G8V     -0.049333
     11 CBC         1.0620   -0.8340   -1.7670 c3        1 G8V      0.233200
     12 CBF         2.1720    2.8220   -3.7560 c1        1 G8V     -0.049333
     13 CBH         1.3840    0.5820   -2.3040 c1        1 G8V     -0.130100
     14 CBJ        -1.0990   -0.8700    1.8540 c1        1 G8V      0.259800
     15 NBM        -1.8530   -0.9850    3.0840 n3        1 G8V     -0.582200
     16 NBO         0.3280   -0.7240   -0.5110 n1        1 G8V     -0.620300
     17 HAA        -2.0190   -2.9280    3.4020 h1        1 G8V      0.071700
     18 HAAA       -0.7830   -2.2620    4.1440 h1        1 G8V      0.071700
     19 HAAB       -2.2580   -2.0440    4.7090 h1        1 G8V      0.071700
     20 HAB        -2.9640   -0.0640    4.4410 h1        1 G8V      0.071700
     21 HABA       -3.4390    0.1970    2.9400 h1        1 G8V      0.071700
     22 HABB       -2.1380    0.9300    3.5070 h1        1 G8V      0.071700
     23 HAG         4.0150    2.4680   -2.9130 ha        1 G8V      0.105833
     24 HAH         0.2030    2.8500   -4.3890 ha        1 G8V      0.105833
     25 HAK         3.3460    0.5610   -1.6770 ha        1 G8V      0.105833
     26 HAL        -0.4620    0.9360   -3.1470 ha        1 G8V      0.080500
     27 HAQ        -2.7120   -0.4670    0.6700 ha        1 G8V      0.127500
     28 HAR         0.7230   -1.2540    2.7080 ha        1 G8V      0.105833
     29 HAU        -1.4790   -0.3450   -1.3450 ha        1 G8V      0.147500
     30 HAV         1.9330   -1.1260    0.6700 ha        1 G8V      0.105833
     31 HBC         1.8860   -1.3160   -1.6170 h1        1 G8V      0.090200
     32 HBCA        0.5130   -1.3180   -2.4270 h1        1 G8V      0.090200
     33 HBF         2.4490    3.6130   -4.2690 ha        1 G8V      0.105833
@<TRIPOS>BOND
     1    1   15 1   
     2    1   17 1   
     3    1   18 1   
     4    1   19 1   
     5    2   15 1   
     6    2   20 1   
     7    2   21 1   
     8    2   22 1   
     9    3    5 3   
    10    3   23 1   
    11    4   12 3   
    12    4   24 1   
    13    5   25 1   
    14    6   13 3   
    15    6   26 1   
    16    7   14 3   
    17    7   27 1   
    18    8   10 3   
    19    8   28 1   
    20    9   16 3   
    21    9   29 1   
    22   10   30 1   
    23   11   13 1   
    24   11   16 1   
    25   11   31 1   
    26   11   32 1   
    27   12   33 1   
    28   14   15 1   
@<TRIPOS>SUBSTRUCTURE
     1 G8V         1 TEMP              0 ****  ****    0 ROOT
