@<TRIPOS>MOLECULE
G8V
   33    34     1     0     0
SMALL
bcc


@<TRIPOS>ATOM
      1 CAA         0.2440   -0.5320    0.3760 c3        1 G8V     -0.003400
      2 CAB         2.3010    0.5830    1.2180 c3        1 G8V     -0.003400
      3 CAG         6.3410    2.7480   -5.8510 ca        1 G8V     -0.121500
      4 CAH         4.2070    3.7840   -6.3140 ca        1 G8V     -0.121500
      5 CAK         5.6920    1.5740   -5.4700 ca        1 G8V     -0.107500
      6 CAL         3.5530    2.6110   -5.9380 ca        1 G8V     -0.107500
      7 CAQ         1.2980   -0.4180   -2.2750 cc        1 G8V     -0.329600
      8 CAR         3.3130    0.6720   -1.4500 cc        1 G8V     -0.329600
      9 CAU         1.8270   -0.3520   -3.5480 cd        1 G8V      0.121500
     10 CAV         3.7820    0.7050   -2.7480 cd        1 G8V      0.121500
     11 CBC         3.6020    0.2260   -5.1660 c3        1 G8V      0.243100
     12 CBF         5.6000    3.8530   -6.2710 ca        1 G8V     -0.090000
     13 CBH         4.2950    1.5040   -5.5140 ca        1 G8V     -0.164300
     14 CBJ         2.0300    0.1000   -1.1510 cc        1 G8V      0.431900
     15 NBM         1.5380    0.0510    0.1140 nh        1 G8V     -0.226100
     16 NBO         3.0590    0.1990   -3.8010 na        1 G8V     -0.434200
     17 HAA         0.2330   -1.6100    0.0560 h1        1 G8V      0.071700
     18 HAAA        0.0130   -0.4820    1.4740 h1        1 G8V      0.071700
     19 HAAB       -0.5540    0.0280   -0.1840 h1        1 G8V      0.071700
     20 HAB         3.2820    0.0410    1.3060 h1        1 G8V      0.071700
     21 HABA        1.7320    0.4540    2.1770 h1        1 G8V      0.071700
     22 HABB        2.4960    1.6790    1.0600 h1        1 G8V      0.071700
     23 HAH         3.6210    4.6540   -6.6520 ha        1 G8V      0.154000
     24 HAK         6.2830    0.7000   -5.1550 ha        1 G8V      0.137500
     25 HAL         2.4550    2.5570   -5.9860 ha        1 G8V      0.137500
     26 HAQ         0.3040   -0.8750   -2.1430 ha        1 G8V      0.185000
     27 HAR         3.9460    1.0950   -0.6530 ha        1 G8V      0.185000
     28 HAU         1.2680   -0.7510   -4.4190 h4        1 G8V      0.200000
     29 HAV         4.7690    1.1500   -2.9990 h4        1 G8V      0.200000
     30 HBC         4.3200   -0.6430   -5.2540 h1        1 G8V      0.090200
     31 HBCA        2.7460    0.0550   -5.8830 h1        1 G8V      0.090200
     32 HBF         6.1150    4.7780   -6.5750 ha        1 G8V      0.155000
     33 HAG         7.4410    2.7990   -5.8250 ha        1 G8V      0.154000
@<TRIPOS>BOND
     1    1   15 1   
     2    1   17 1   
     3    1   18 1   
     4    1   19 1   
     5    2   15 1   
     6    2   20 1   
     7    2   21 1   
     8    2   22 1   
     9    3    5 ar  
    10    3   12 ar  
    11    3   33 1   
    12    4    6 ar  
    13    4   12 ar  
    14    4   23 1   
    15    5   13 ar  
    16    5   24 1   
    17    6   13 ar  
    18    6   25 1   
    19    7    9 2   
    20    7   14 1   
    21    7   26 1   
    22    8   10 2   
    23    8   14 1   
    24    8   27 1   
    25    9   16 1   
    26    9   28 1   
    27   10   16 1   
    28   10   29 1   
    29   11   13 1   
    30   11   16 1   
    31   11   30 1   
    32   11   31 1   
    33   12   32 1   
    34   14   15 2   
@<TRIPOS>SUBSTRUCTURE
     1 G8V         1 TEMP              0 ****  ****    0 ROOT
