@<TRIPOS>MOLECULE
G8V
   34    35     1     0     0
SMALL
bcc


@<TRIPOS>ATOM
      1 CAA         1.1870   -1.3090    0.5800 c3        1 G8V      0.082100
      2 CAB         1.5960    1.1040    0.8600 c3        1 G8V      0.082100
      3 CAG         7.6220   -0.7640   -4.9960 ca        1 G8V     -0.118000
      4 CAH         7.4070    1.6470   -5.0110 ca        1 G8V     -0.118000
      5 CAK         6.2350   -0.8910   -4.9850 ca        1 G8V     -0.098000
      6 CAL         6.0190    1.5270   -5.0020 ca        1 G8V     -0.098000
      7 CAQ         1.1730    0.3130   -2.5480 ca        1 G8V     -0.128000
      8 CAR         3.2400   -0.1710   -1.3790 ca        1 G8V     -0.128000
      9 CAU         1.8960    0.3320   -3.7490 ca        1 G8V      0.001700
     10 CAV         3.9070   -0.1390   -2.6170 ca        1 G8V      0.001700
     11 CBC         3.9530    0.1240   -5.0970 c3        1 G8V      0.056600
     12 CBF         8.2100    0.5040   -5.0100 ca        1 G8V     -0.059000
     13 CBH         5.4270    0.2560   -4.9880 ca        1 G8V     -0.216300
     14 CBJ         1.8550    0.0580   -1.3410 ca        1 G8V      0.069600
     15 NBM         1.1130    0.0360   -0.0690 n4        1 G8V     -0.568800
     16 NBO         3.2450    0.1100   -3.7810 na        1 G8V      0.063900
     17 HAA         2.2500   -1.5410    0.8560 hx        1 G8V      0.122367
     18 HAAA        0.5530   -1.2920    1.5110 hx        1 G8V      0.122367
     19 HAAB        0.7960   -2.0900   -0.1280 hx        1 G8V      0.122367
     20 HAB         2.6650    0.9090    1.1410 hx        1 G8V      0.122367
     21 HABA        0.9560    1.0860    1.7870 hx        1 G8V      0.122367
     22 HABB        1.5070    2.1060    0.3600 hx        1 G8V      0.122367
     23 HAK         5.7790   -1.8930   -5.0090 ha        1 G8V      0.142000
     24 HAL         5.3940    2.4330   -5.0320 ha        1 G8V      0.142000
     25 HAQ         0.0830    0.5020   -2.5960 ha        1 G8V      0.213500
     26 HAR         3.8390   -0.3780   -0.4720 ha        1 G8V      0.213500
     27 HAU         1.3830    0.5300   -4.7200 h4        1 G8V      0.248000
     28 HAV         5.0100   -0.3180   -2.6820 h4        1 G8V      0.248000
     29 HBC         3.5230    0.9900   -5.6820 h1        1 G8V      0.119700
     30 HBCA        3.6740   -0.8470   -5.6070 h1        1 G8V      0.119700
     31 HBF         9.3090    0.6010   -5.0320 ha        1 G8V      0.175000
     32 HAG         8.2570   -1.6660   -5.0110 ha        1 G8V      0.171500
     33 HBM1        0.1170    0.2290   -0.2800 hn        1 G8V      0.474800
     34 HAH         7.8720    2.6470   -5.0360 ha        1 G8V      0.171500
@<TRIPOS>BOND
     1    1   15 1   
     2    1   17 1   
     3    1   18 1   
     4    1   19 1   
     5    2   15 1   
     6    2   20 1   
     7    2   21 1   
     8    2   22 1   
     9    3    5 ar  
    10    3   12 ar  
    11    3   32 1   
    12    4    6 ar  
    13    4   12 ar  
    14    4   34 1   
    15    5   13 ar  
    16    5   23 1   
    17    6   13 ar  
    18    6   24 1   
    19    7    9 ar  
    20    7   14 ar  
    21    7   25 1   
    22    8   10 ar  
    23    8   14 ar  
    24    8   26 1   
    25    9   16 2   
    26    9   27 1   
    27   10   16 1   
    28   10   28 1   
    29   11   13 1   
    30   11   16 1   
    31   11   29 1   
    32   11   30 1   
    33   12   31 1   
    34   14   15 1   
    35   15   33 1   
@<TRIPOS>SUBSTRUCTURE
     1 G8V         1 TEMP              0 ****  ****    0 ROOT
