@<TRIPOS>MOLECULE
G8V
   33    34     1     0     0
SMALL
bcc


@<TRIPOS>ATOM
      1 CAA         4.2820    1.0940   -1.3310 c3        1 G8V     -0.003400
      2 CAB         4.8780   -1.0180   -0.1610 c3        1 G8V     -0.003400
      3 CAG        -3.9330   -0.6680   -1.3420 ca        1 G8V     -0.121500
      4 CAH        -4.0760    1.5390   -0.3630 ca        1 G8V     -0.121500
      5 CAK        -2.9100   -0.9980   -0.4550 ca        1 G8V     -0.107500
      6 CAL        -3.0510    1.2140    0.5240 ca        1 G8V     -0.107500
      7 CAQ         1.6150    0.8600   -0.3410 cc        1 G8V     -0.329600
      8 CAR         2.1980   -1.2090    0.8030 cc        1 G8V     -0.329600
      9 CAU         0.3310    0.7250    0.1490 cd        1 G8V      0.121500
     10 CAV         0.8960   -1.2820    1.2580 cd        1 G8V      0.121500
     11 CBC        -1.4100   -0.4260    1.4720 c3        1 G8V      0.243100
     12 CBF        -4.5160    0.5990   -1.2970 ca        1 G8V     -0.090000
     13 CBH        -2.4660   -0.0570    0.4800 ca        1 G8V     -0.164300
     14 CBJ         2.6220   -0.1170   -0.0300 cc        1 G8V      0.431900
     15 NBM         3.8940   -0.0160   -0.4950 nh        1 G8V     -0.226100
     16 NBO        -0.0430   -0.3290    0.9460 na        1 G8V     -0.434200
     17 HAA         3.6640    1.1050   -2.2710 h1        1 G8V      0.071700
     18 HAAA        4.1350    2.0630   -0.7810 h1        1 G8V      0.071700
     19 HAAB        5.3640    1.0030   -1.6150 h1        1 G8V      0.071700
     20 HAB         5.0160   -1.0690    0.9540 h1        1 G8V      0.071700
     21 HABA        4.5500   -2.0240   -0.5390 h1        1 G8V      0.071700
     22 HABB        5.8640   -0.7610   -0.6320 h1        1 G8V      0.071700
     23 HAH        -4.5430    2.5350   -0.3220 ha        1 G8V      0.154000
     24 HAK        -2.4620   -2.0030   -0.4850 ha        1 G8V      0.137500
     25 HAL        -2.7180    1.9530    1.2690 ha        1 G8V      0.137500
     26 HAQ         1.8460    1.7320   -0.9740 ha        1 G8V      0.185000
     27 HAR         2.9000   -2.0070    1.0940 ha        1 G8V      0.185000
     28 HAU        -0.4620    1.4670   -0.0870 h4        1 G8V      0.200000
     29 HAV         0.5640   -2.1220    1.9030 h4        1 G8V      0.200000
     30 HBC        -1.4670    0.2560    2.3730 h1        1 G8V      0.090200
     31 HBCA       -1.5750   -1.4880    1.8180 h1        1 G8V      0.090200
     32 HBF        -5.3290    0.8570   -1.9950 ha        1 G8V      0.155000
     33 HAG        -4.2850   -1.4110   -2.0740 ha        1 G8V      0.154000
@<TRIPOS>BOND
     1    1   15 1   
     2    1   17 1   
     3    1   18 1   
     4    1   19 1   
     5    2   15 1   
     6    2   20 1   
     7    2   21 1   
     8    2   22 1   
     9    3    5 ar  
    10    3   12 ar  
    11    3   33 1   
    12    4    6 ar  
    13    4   12 ar  
    14    4   23 1   
    15    5   13 ar  
    16    5   24 1   
    17    6   13 ar  
    18    6   25 1   
    19    7    9 2   
    20    7   14 1   
    21    7   26 1   
    22    8   10 2   
    23    8   14 1   
    24    8   27 1   
    25    9   16 1   
    26    9   28 1   
    27   10   16 1   
    28   10   29 1   
    29   11   13 1   
    30   11   16 1   
    31   11   30 1   
    32   11   31 1   
    33   12   32 1   
    34   14   15 2   
@<TRIPOS>SUBSTRUCTURE
     1 G8V         1 TEMP              0 ****  ****    0 ROOT
