@<TRIPOS>MOLECULE
G90
   53    55     1     0     0
SMALL
bcc


@<TRIPOS>ATOM
      1 N1         -1.2760   -0.0080   -2.2270 n1        1 G90     -0.369800
      2 C12        -0.7200    0.0000   -1.2370 cg        1 G90      0.231800
      3 C7          0.0000    0.0000    0.0000 ca        1 G90      0.003000
      4 C6          1.4020    0.0000    0.0000 ca        1 G90      0.160100
      5 C11         2.0900    0.0000    1.2040 ca        1 G90     -0.213000
      6 C10         1.3940    0.0020    2.3980 ca        1 G90     -0.028000
      7 C9          0.0100    0.0030    2.4030 ca        1 G90     -0.124000
      8 C8         -0.6900    0.0070    1.2150 ca        1 G90     -0.022000
      9 O2          2.0840   -0.0020   -1.1740 os        1 G90     -0.298900
     10 C5          3.5100   -0.0030   -1.0950 c3        1 G90      0.192400
     11 C4          4.0980   -0.0060   -2.5090 c3        1 G90      0.174100
     12 O1          3.7570    1.2150   -3.1680 oh        1 G90     -0.586800
     13 C3          5.6210   -0.1330   -2.4270 c3        1 G90     -0.064200
     14 N           6.1860   -0.1340   -3.7820 ny        1 G90      0.037000
     15 CA          7.6490   -0.2540   -3.7440 c3        1 G90     -0.080800
     16 C1          8.2370    0.9270   -2.9680 c3        1 G90     -0.024600
     17 C2          8.0350   -1.5630   -3.0490 c3        1 G90     -0.024600
     18 CB          8.2000   -0.2530   -5.1710 c3        1 G90      0.086800
     19 CG          9.7010   -0.3770   -5.1300 cc        1 G90     -0.216400
     20 CD2        10.4710   -1.6200   -5.0430 ca        1 G90     -0.094800
     21 CE3        10.1280   -2.9710   -4.9730 ca        1 G90     -0.082000
     22 CZ3        11.1100   -3.9180   -4.8970 ca        1 G90     -0.096000
     23 CH2        12.4480   -3.5460   -4.8890 ca        1 G90     -0.071000
     24 CZ2        12.8090   -2.2190   -4.9580 ca        1 G90     -0.079000
     25 CE2        11.8250   -1.2380   -5.0340 ca        1 G90     -0.226200
     26 NE1        11.8600    0.1360   -5.1120 na        1 G90      0.389600
     27 CD1        10.5870    0.6310   -5.1750 cd        1 G90     -0.233100
     28 H8         -1.7720   -0.0500    1.2240 ha        1 G90      0.123000
     29 H11         3.1730    0.0080    1.2090 ha        1 G90      0.115000
     30 H10         1.9360    0.0030    3.3360 ha        1 G90      0.110000
     31 H9         -0.5250    0.0060    3.3440 ha        1 G90      0.121000
     32 H51C        3.8430    0.8820   -0.5670 h1        1 G90      0.020700
     33 H52C        3.8420   -0.8870   -0.5640 h1        1 G90      0.020700
     34 H4          3.6950   -0.8420   -3.0660 h1        1 G90      0.025700
     35 H1          3.0760    1.0520   -3.7990 ho        1 G90      0.430000
     36 H31C        6.0240    0.7040   -1.8690 hx        1 G90      0.095700
     37 H32C        5.8800   -1.0580   -1.9260 hx        1 G90      0.095700
     38 H           5.9380    0.7190   -4.2420 hn        1 G90      0.243800
     39 H11C        7.8150    1.8510   -3.3440 hc        1 G90      0.041867
     40 H12C        8.0000    0.8220   -1.9170 hc        1 G90      0.041867
     41 H13C        9.3130    0.9430   -3.0960 hc        1 G90      0.041867
     42 H21C        7.5540   -2.3930   -3.5510 hc        1 G90      0.041867
     43 H22C        9.1100   -1.6900   -3.0900 hc        1 G90      0.041867
     44 H23C        7.7140   -1.5310   -2.0150 hc        1 G90      0.041867
     45 HB1C        7.7830   -1.0890   -5.7200 hc        1 G90      0.028700
     46 HB2C        7.9270    0.6730   -5.6620 hc        1 G90      0.028700
     47 HD1        10.3310    1.6810   -5.2520 h4        1 G90      0.144000
     48 HE3         9.0860   -3.2680   -4.9790 ha        1 G90      0.094000
     49 HZ3        10.8420   -4.9660   -4.8440 ha        1 G90      0.112000
     50 HH2        13.2150   -4.3090   -4.8290 ha        1 G90      0.115000
     51 HZ2        13.8540   -1.9450   -5.0360 ha        1 G90      0.112000
     52 HE1        12.6940    0.6900   -5.1280 hn        1 G90      0.127700
     53 HN3         5.8060   -0.9050   -4.2950 hn        1 G90      0.243800
@<TRIPOS>BOND
     1    1    2 3   
     2    2    3 1   
     3    3    4 ar  
     4    3    8 ar  
     5    4    5 ar  
     6    4    9 1   
     7    5    6 ar  
     8    5   29 1   
     9    6    7 ar  
    10    6   30 1   
    11    7    8 ar  
    12    7   31 1   
    13    8   28 1   
    14    9   10 1   
    15   10   11 1   
    16   10   32 1   
    17   10   33 1   
    18   11   12 1   
    19   11   13 1   
    20   11   34 1   
    21   12   35 1   
    22   13   14 1   
    23   13   36 1   
    24   13   37 1   
    25   14   15 1   
    26   14   38 1   
    27   14   53 1   
    28   15   16 1   
    29   15   17 1   
    30   15   18 1   
    31   16   39 1   
    32   16   40 1   
    33   16   41 1   
    34   17   42 1   
    35   17   43 1   
    36   17   44 1   
    37   18   19 1   
    38   18   45 1   
    39   18   46 1   
    40   19   20 1   
    41   19   27 2   
    42   20   21 ar  
    43   20   25 ar  
    44   21   22 ar  
    45   21   48 1   
    46   22   23 ar  
    47   22   49 1   
    48   23   24 ar  
    49   23   50 1   
    50   24   25 ar  
    51   24   51 1   
    52   25   26 1   
    53   26   27 1   
    54   26   52 1   
    55   27   47 1   
@<TRIPOS>SUBSTRUCTURE
     1 G90         1 TEMP              0 ****  ****    0 ROOT
