@<TRIPOS>MOLECULE
G90
   52    54     1     0     0
SMALL
bcc


@<TRIPOS>ATOM
      1 N1         -3.1180    2.5470    2.2570 n1        1 G90     -0.367800
      2 C12        -3.9160    2.1830    1.4930 cg        1 G90      0.249800
      3 C7         -4.8880    1.7380    0.5600 ca        1 G90     -0.050000
      4 C6         -4.6540    0.5910   -0.2370 ca        1 G90      0.169100
      5 C11        -5.6220    0.1620   -1.1560 ca        1 G90     -0.211000
      6 C10        -6.8140    0.8710   -1.2790 ca        1 G90     -0.071000
      7 C9         -7.0530    2.0010   -0.4980 ca        1 G90     -0.171000
      8 C8         -6.0950    2.4330    0.4160 ca        1 G90     -0.060000
      9 O2         -3.4410   -0.0290   -0.0370 os        1 G90     -0.319900
     10 C5         -3.2070   -1.2170   -0.8020 c3        1 G90      0.094400
     11 C4         -1.8510   -1.7600   -0.3240 c3        1 G90      0.132100
     12 O1         -1.7400   -3.1090   -0.7350 oh        1 G90     -0.588800
     13 C3         -0.7180   -0.8610   -0.8420 c3        1 G90      0.129800
     14 N           0.6020   -1.4130   -0.6300 n3        1 G90     -0.822200
     15 CA          1.6910   -0.4200   -0.5710 c3        1 G90      0.191200
     16 C1          1.6460    0.5200   -1.7830 c3        1 G90     -0.109600
     17 C2          1.6540    0.4410    0.7010 c3        1 G90     -0.109600
     18 CB          3.0370   -1.2020   -0.5920 c3        1 G90     -0.001200
     19 CG          4.2350   -0.3520   -0.6030 cc        1 G90     -0.134400
     20 CD2         5.0040    0.0770    0.5500 ca        1 G90     -0.090800
     21 CE3         4.8660   -0.0920    1.9290 ca        1 G90     -0.083000
     22 CZ3         5.8150    0.4640    2.7730 ca        1 G90     -0.158000
     23 CH2         6.9070    1.1920    2.2660 ca        1 G90     -0.113000
     24 CZ2         7.0830    1.3850    0.9050 ca        1 G90     -0.146000
     25 CE2         6.1300    0.8270    0.0380 ca        1 G90     -0.047200
     26 NE1         6.0380    0.8490   -1.3560 na        1 G90     -0.194400
     27 CD1         4.9000    0.1320   -1.7320 cd        1 G90     -0.105100
     28 H8         -6.2810    3.3250    1.0340 ha        1 G90      0.147000
     29 H11        -5.4500   -0.7260   -1.7800 ha        1 G90      0.146000
     30 H10        -7.5740    0.5320   -2.0000 ha        1 G90      0.139000
     31 H9         -7.9980    2.5540   -0.6020 ha        1 G90      0.142000
     32 H51C       -4.0090   -1.9730   -0.6000 h1        1 G90      0.051700
     33 H52C       -3.1830   -0.9640   -1.8940 h1        1 G90      0.051700
     34 H4         -1.8430   -1.8030    0.8030 h1        1 G90      0.090700
     35 H1         -1.3990   -3.1150   -1.6380 ho        1 G90      0.412000
     36 H31C       -0.8370   -0.7270   -1.9560 h1        1 G90      0.048200
     37 H32C       -0.8660    0.1520   -0.3640 h1        1 G90      0.048200
     38 H           0.6210   -1.9730    0.2020 hn        1 G90      0.364800
     39 H11C        0.7280    1.1550   -1.7590 hc        1 G90      0.041867
     40 H12C        2.5390    1.1900   -1.7580 hc        1 G90      0.041867
     41 H13C        1.6590   -0.0610   -2.7360 hc        1 G90      0.041867
     42 H21C        1.6590   -0.2010    1.6140 hc        1 G90      0.041867
     43 H22C        2.5580    1.0970    0.7320 hc        1 G90      0.041867
     44 H23C        0.7450    1.0870    0.7210 hc        1 G90      0.041867
     45 HB1C        3.0780   -1.8650    0.3160 hc        1 G90      0.052700
     46 HB2C        3.0480   -1.8630   -1.5000 hc        1 G90      0.052700
     47 HD1         4.6380    0.0150   -2.7860 h4        1 G90      0.166000
     48 HE3         4.0100   -0.6550    2.3280 ha        1 G90      0.134000
     49 HZ3         5.7190    0.3390    3.8610 ha        1 G90      0.130000
     50 HH2         7.6380    1.6170    2.9700 ha        1 G90      0.129000
     51 HZ2         7.9370    1.9550    0.5160 ha        1 G90      0.131000
     52 HE1         6.6820    1.2730   -1.9650 hn        1 G90      0.297700
@<TRIPOS>BOND
     1    1    2 3   
     2    2    3 1   
     3    3    4 ar  
     4    3    8 ar  
     5    4    5 ar  
     6    4    9 1   
     7    5    6 ar  
     8    5   29 1   
     9    6    7 ar  
    10    6   30 1   
    11    7    8 ar  
    12    7   31 1   
    13    8   28 1   
    14    9   10 1   
    15   10   11 1   
    16   10   32 1   
    17   10   33 1   
    18   11   12 1   
    19   11   13 1   
    20   11   34 1   
    21   12   35 1   
    22   13   14 1   
    23   13   36 1   
    24   13   37 1   
    25   14   15 1   
    26   14   38 1   
    27   15   16 1   
    28   15   17 1   
    29   15   18 1   
    30   16   39 1   
    31   16   40 1   
    32   16   41 1   
    33   17   42 1   
    34   17   43 1   
    35   17   44 1   
    36   18   19 1   
    37   18   45 1   
    38   18   46 1   
    39   19   20 1   
    40   19   27 2   
    41   20   21 ar  
    42   20   25 ar  
    43   21   22 ar  
    44   21   48 1   
    45   22   23 ar  
    46   22   49 1   
    47   23   24 ar  
    48   23   50 1   
    49   24   25 ar  
    50   24   51 1   
    51   25   26 1   
    52   26   27 1   
    53   26   52 1   
    54   27   47 1   
@<TRIPOS>SUBSTRUCTURE
     1 G90         1 TEMP              0 ****  ****    0 ROOT
