@<TRIPOS>MOLECULE
G90
   53    55     1     0     0
SMALL
bcc


@<TRIPOS>ATOM
      1 N1         -0.6060   -0.5030   -2.7330 n1        1 G90     -0.350800
      2 C12        -0.3160   -0.3590   -1.6160 cg        1 G90      0.237800
      3 C7          0.0580   -0.1840   -0.2590 ca        1 G90     -0.026000
      4 C6          1.3550    0.2630    0.0730 ca        1 G90      0.129100
      5 C11         1.7420    0.4260    1.4070 ca        1 G90     -0.186000
      6 C10         0.8240    0.1500    2.4200 ca        1 G90     -0.074000
      7 C9         -0.4650   -0.2800    2.1060 ca        1 G90     -0.140000
      8 C8         -0.8500   -0.4440    0.7760 ca        1 G90     -0.060000
      9 O2          2.1760    0.5950   -0.9960 os        1 G90     -0.342900
     10 C5          3.5700    0.3500   -0.7990 c3        1 G90      0.098400
     11 C4          4.1200    0.1560   -2.2180 c3        1 G90      0.119100
     12 O1          3.9530    1.3220   -3.0060 oh        1 G90     -0.631800
     13 C3          5.6360   -0.1080   -2.1420 c3        1 G90      0.099800
     14 N           6.2610   -0.1080   -3.4900 n4        1 G90     -0.764000
     15 CA          7.7860   -0.2630   -3.4880 c3        1 G90      0.152200
     16 C1          8.4300    0.9630   -2.8460 c3        1 G90     -0.126600
     17 C2          8.1810   -1.5220   -2.7230 c3        1 G90     -0.126600
     18 CB          8.2300   -0.3800   -4.9740 c3        1 G90     -0.003200
     19 CG          9.6820   -0.4970   -5.1310 cc        1 G90     -0.206400
     20 CD2        10.4470   -1.7260   -5.1780 ca        1 G90     -0.087800
     21 CE3        10.1320   -3.0810   -5.0480 ca        1 G90     -0.110000
     22 CZ3        11.1430   -4.0200   -5.1640 ca        1 G90     -0.129000
     23 CH2        12.4760   -3.6350   -5.4080 ca        1 G90     -0.104000
     24 CZ2        12.8330   -2.3040   -5.5480 ca        1 G90     -0.123000
     25 CE2        11.8160   -1.3420   -5.4360 ca        1 G90     -0.049200
     26 NE1        11.8640    0.0540   -5.5350 na        1 G90     -0.168400
     27 CD1        10.5810    0.5530   -5.3680 cd        1 G90     -0.068100
     28 H8         -1.8700   -0.7830    0.5310 ha        1 G90      0.161000
     29 H11         2.7530    0.7790    1.6540 ha        1 G90      0.142000
     30 H10         1.1200    0.2810    3.4730 ha        1 G90      0.152000
     31 H9         -1.1860   -0.4900    2.9120 ha        1 G90      0.157000
     32 H51C        4.0250    1.2530   -0.3130 h1        1 G90      0.066700
     33 H52C        3.7440   -0.5620   -0.1730 h1        1 G90      0.066700
     34 H4          3.5870   -0.7050   -2.7140 h1        1 G90      0.076700
     35 H1          3.0350    1.6170   -2.9050 ho        1 G90      0.468000
     36 H31C        5.8140   -1.1070   -1.6540 hx        1 G90      0.109700
     37 H32C        6.1280    0.7010   -1.5290 hx        1 G90      0.109700
     38 H           5.8610   -0.8710   -4.0450 hn        1 G90      0.454800
     39 H11C        9.5390    0.8850   -2.9970 hc        1 G90      0.075200
     40 H12C        8.2310    1.0050   -1.7480 hc        1 G90      0.075200
     41 H13C        8.0810    1.9110   -3.3220 hc        1 G90      0.075200
     42 H21C        8.0180   -1.4000   -1.6250 hc        1 G90      0.075200
     43 H22C        9.2750   -1.7050   -2.9000 hc        1 G90      0.075200
     44 H23C        7.6240   -2.4200   -3.0860 hc        1 G90      0.075200
     45 HB1C        7.8700    0.5280   -5.5330 hc        1 G90      0.062200
     46 HB2C        7.7470   -1.2910   -5.4260 hc        1 G90      0.062200
     47 HD1        10.3840    1.6270   -5.4320 h4        1 G90      0.172000
     48 HE3         9.0930   -3.3900   -4.8640 ha        1 G90      0.122000
     49 HZ3        10.9090   -5.0920   -5.0680 ha        1 G90      0.143000
     50 HH2        13.2490   -4.4160   -5.4940 ha        1 G90      0.148000
     51 HZ2        13.8740   -2.0100   -5.7430 ha        1 G90      0.148000
     52 HE1        12.6670    0.5820   -5.7610 hn        1 G90      0.315700
     53 HN3         6.0240    0.7820   -3.9520 hn        1 G90      0.454800
@<TRIPOS>BOND
     1    1    2 3   
     2    2    3 1   
     3    3    4 ar  
     4    3    8 ar  
     5    4    5 ar  
     6    4    9 1   
     7    5    6 ar  
     8    5   29 1   
     9    6    7 ar  
    10    6   30 1   
    11    7    8 ar  
    12    7   31 1   
    13    8   28 1   
    14    9   10 1   
    15   10   11 1   
    16   10   32 1   
    17   10   33 1   
    18   11   12 1   
    19   11   13 1   
    20   11   34 1   
    21   12   35 1   
    22   13   14 1   
    23   13   36 1   
    24   13   37 1   
    25   14   15 1   
    26   14   38 1   
    27   14   53 1   
    28   15   16 1   
    29   15   17 1   
    30   15   18 1   
    31   16   39 1   
    32   16   40 1   
    33   16   41 1   
    34   17   42 1   
    35   17   43 1   
    36   17   44 1   
    37   18   19 1   
    38   18   45 1   
    39   18   46 1   
    40   19   20 1   
    41   19   27 2   
    42   20   21 ar  
    43   20   25 ar  
    44   21   22 ar  
    45   21   48 1   
    46   22   23 ar  
    47   22   49 1   
    48   23   24 ar  
    49   23   50 1   
    50   24   25 ar  
    51   24   51 1   
    52   25   26 1   
    53   26   27 1   
    54   26   52 1   
    55   27   47 1   
@<TRIPOS>SUBSTRUCTURE
     1 G90         1 TEMP              0 ****  ****    0 ROOT
