@<TRIPOS>MOLECULE
G90
   53    55     1     0     0
SMALL
bcc


@<TRIPOS>ATOM
      1 N1         -0.5910   -0.5270   -2.7370 n1        1 G90     -0.350800
      2 C12        -0.3050   -0.3750   -1.6200 cg        1 G90      0.237800
      3 C7          0.0640   -0.1900   -0.2620 ca        1 G90     -0.026000
      4 C6          1.3560    0.2710    0.0710 ca        1 G90      0.129100
      5 C11         1.7390    0.4430    1.4050 ca        1 G90     -0.186000
      6 C10         0.8210    0.1620    2.4160 ca        1 G90     -0.074000
      7 C9         -0.4640   -0.2820    2.1020 ca        1 G90     -0.140000
      8 C8         -0.8440   -0.4550    0.7720 ca        1 G90     -0.060000
      9 O2          2.1760    0.6080   -0.9970 os        1 G90     -0.342900
     10 C5          3.5710    0.3670   -0.8000 c3        1 G90      0.098400
     11 C4          4.1210    0.1660   -2.2180 c3        1 G90      0.119100
     12 O1          3.9520    1.3280   -3.0120 oh        1 G90     -0.631800
     13 C3          5.6370   -0.0950   -2.1410 c3        1 G90      0.099800
     14 N           6.2610   -0.1010   -3.4900 n4        1 G90     -0.764000
     15 CA          7.7870   -0.2570   -3.4870 c3        1 G90      0.152200
     16 C1          8.4320    0.9710   -2.8500 c3        1 G90     -0.126600
     17 C2          8.1810   -1.5150   -2.7190 c3        1 G90     -0.126600
     18 CB          8.2300   -0.3790   -4.9740 c3        1 G90     -0.003200
     19 CG          9.6810   -0.4980   -5.1320 cc        1 G90     -0.206400
     20 CD2        10.4450   -1.7290   -5.1750 ca        1 G90     -0.087800
     21 CE3        10.1270   -3.0830   -5.0410 ca        1 G90     -0.110000
     22 CZ3        11.1380   -4.0240   -5.1540 ca        1 G90     -0.129000
     23 CH2        12.4710   -3.6420   -5.4010 ca        1 G90     -0.104000
     24 CZ2        12.8300   -2.3110   -5.5440 ca        1 G90     -0.123000
     25 CE2        11.8140   -1.3470   -5.4350 ca        1 G90     -0.049200
     26 NE1        11.8640    0.0480   -5.5370 na        1 G90     -0.168400
     27 CD1        10.5810    0.5490   -5.3710 cd        1 G90     -0.068100
     28 H8         -1.8600   -0.8040    0.5260 ha        1 G90      0.161000
     29 H11         2.7450    0.8070    1.6520 ha        1 G90      0.142000
     30 H10         1.1130    0.3000    3.4700 ha        1 G90      0.152000
     31 H9         -1.1840   -0.4960    2.9070 ha        1 G90      0.157000
     32 H51C        4.0240    1.2740   -0.3190 h1        1 G90      0.066700
     33 H52C        3.7480   -0.5410   -0.1690 h1        1 G90      0.066700
     34 H4          3.5890   -0.6980   -2.7090 h1        1 G90      0.076700
     35 H1          3.0340    1.6230   -2.9120 ho        1 G90      0.468000
     36 H31C        5.8170   -1.0910   -1.6480 hx        1 G90      0.109700
     37 H32C        6.1280    0.7170   -1.5330 hx        1 G90      0.109700
     38 H           6.0240    0.7860   -3.9560 hn        1 G90      0.454300
     39 H11C        8.0820    1.9170   -3.3280 hc        1 G90      0.075200
     40 H12C        8.2340    1.0150   -1.7520 hc        1 G90      0.075200
     41 H13C        9.5400    0.8920   -3.0010 hc        1 G90      0.075200
     42 H21C        8.0190   -1.3890   -1.6210 hc        1 G90      0.075200
     43 H22C        7.6230   -2.4130   -3.0790 hc        1 G90      0.075200
     44 H23C        9.2740   -1.6990   -2.8960 hc        1 G90      0.075200
     45 HB1C        7.8700    0.5270   -5.5350 hc        1 G90      0.062200
     46 HB2C        7.7450   -1.2900   -5.4230 hc        1 G90      0.062200
     47 HD1        10.3870    1.6230   -5.4390 h4        1 G90      0.172000
     48 HE3         9.0880   -3.3900   -4.8560 ha        1 G90      0.122000
     49 HZ3        10.9020   -5.0950   -5.0560 ha        1 G90      0.143000
     50 HH2        13.2430   -4.4230   -5.4840 ha        1 G90      0.148000
     51 HZ2        13.8710   -2.0190   -5.7410 ha        1 G90      0.148000
     52 HE1        12.6680    0.5750   -5.7660 hn        1 G90      0.315700
     53 HN3         5.8610   -0.8670   -4.0400 hn        1 G90      0.454300
@<TRIPOS>BOND
     1    1    2 3   
     2    2    3 1   
     3    3    4 ar  
     4    3    8 ar  
     5    4    5 ar  
     6    4    9 1   
     7    5    6 ar  
     8    5   29 1   
     9    6    7 ar  
    10    6   30 1   
    11    7    8 ar  
    12    7   31 1   
    13    8   28 1   
    14    9   10 1   
    15   10   11 1   
    16   10   32 1   
    17   10   33 1   
    18   11   12 1   
    19   11   13 1   
    20   11   34 1   
    21   12   35 1   
    22   13   14 1   
    23   13   36 1   
    24   13   37 1   
    25   14   15 1   
    26   14   38 1   
    27   14   53 1   
    28   15   16 1   
    29   15   17 1   
    30   15   18 1   
    31   16   39 1   
    32   16   40 1   
    33   16   41 1   
    34   17   42 1   
    35   17   43 1   
    36   17   44 1   
    37   18   19 1   
    38   18   45 1   
    39   18   46 1   
    40   19   20 1   
    41   19   27 2   
    42   20   21 ar  
    43   20   25 ar  
    44   21   22 ar  
    45   21   48 1   
    46   22   23 ar  
    47   22   49 1   
    48   23   24 ar  
    49   23   50 1   
    50   24   25 ar  
    51   24   51 1   
    52   25   26 1   
    53   26   27 1   
    54   26   52 1   
    55   27   47 1   
@<TRIPOS>SUBSTRUCTURE
     1 G90         1 TEMP              0 ****  ****    0 ROOT
