@<TRIPOS>MOLECULE
G90
   52    45     1     0     0
SMALL
bcc


@<TRIPOS>ATOM
      1 N1         -6.4610   -2.1680    1.0310 n1        1 G90     -0.042000
      2 C12        -6.2660   -1.3630    1.8080 c1        1 G90     -0.081000
      3 C7         -6.0050   -0.2810    2.8500 c1        1 G90     -0.047000
      4 C6         -5.1700    0.7740    2.5480 c2        1 G90      0.125000
      5 C11        -5.0420    1.8380    3.4360 c1        1 G90     -0.210000
      6 C10        -5.7590    1.8370    4.6320 c1        1 G90     -0.123333
      7 C9         -6.5950    0.7780    4.9310 c1        1 G90     -0.123333
      8 C8         -6.7190   -0.2850    4.0380 c1        1 G90     -0.059000
      9 O2         -4.4200    0.7790    1.2660 os        1 G90     -0.215000
     10 C5         -2.9880    0.5680    1.4180 c3        1 G90     -0.060000
     11 C4         -2.3120    0.6960    0.0650 c3        1 G90     -0.013000
     12 O1         -2.5260    1.9830   -0.4350 oh        1 G90     -0.326000
     13 C3         -0.7990    0.4430    0.2180 c3        1 G90     -0.057000
     14 N          -0.1550    0.4950   -1.1020 n3        1 G90     -0.297000
     15 CA          1.2440    0.2930   -0.9600 c3        1 G90      0.032000
     16 C1          1.8370    1.4120   -0.1600 c3        1 G90     -0.224000
     17 C2          1.4970   -1.0330   -0.2320 c3        1 G90     -0.224000
     18 CB          1.8990    0.2540   -2.3560 c3        1 G90     -0.089000
     19 CG          3.4240    0.0530   -2.2050 c2        1 G90     -0.142000
     20 CD2         4.2900   -0.9890   -2.5110 c1        1 G90     -0.079000
     21 CE3         4.0660   -2.2940   -2.9710 c1        1 G90     -0.123333
     22 CZ3         5.1430   -3.1500   -3.1960 c1        1 G90     -0.123333
     23 CH2         6.4340   -2.7130   -2.9650 c1        1 G90     -0.123333
     24 CZ2         6.6600   -1.4250   -2.5100 c1        1 G90     -0.123333
     25 CE2         5.5710   -0.5550   -2.2820 c1        1 G90     -0.002000
     26 NE1         5.5070    0.7650   -1.8300 n1        1 G90     -0.217000
     27 CD1         4.1850    1.1350   -1.7850 c1        1 G90     -0.076000
     28 H8         -7.3160   -1.0430    4.2510 ha        1 G90      0.148000
     29 H11        -4.4480    2.5860    3.2200 ha        1 G90      0.145000
     30 H10        -5.6710    2.5760    5.2510 ha        1 G90      0.134500
     31 H9         -7.1000    0.7730    5.7700 ha        1 G90      0.134500
     32 H51C       -2.6410    1.2070    1.9990 h1        1 G90      0.094500
     33 H52C       -2.8280   -0.3180    1.7780 h1        1 G90      0.094500
     34 H4         -2.6920    0.0360   -0.5550 h1        1 G90      0.098000
     35 H1         -3.0880    1.9490   -1.0820 ho        1 G90      0.218000
     36 H31C       -0.4140    1.1240    0.7920 h1        1 G90      0.095500
     37 H32C       -0.6570   -0.4320    0.6150 h1        1 G90      0.095500
     38 H          -0.5050   -0.1590   -1.6400 hn        1 G90      0.176000
     39 H11C        2.7360    1.1610    0.1340 hc        1 G90      0.078833
     40 H12C        1.8880    2.2020   -0.7000 hc        1 G90      0.078833
     41 H13C        1.2800    1.5830    0.6130 hc        1 G90      0.078833
     42 H21C        0.9250   -1.7180   -0.6010 hc        1 G90      0.078833
     43 H22C        1.2960   -0.9200    0.7430 hc        1 G90      0.078833
     44 H23C        2.4380   -1.2960   -0.3440 hc        1 G90      0.078833
     45 HB1C        1.5260   -0.4770   -2.8700 hc        1 G90      0.092500
     46 HB2C        1.7250    1.1060   -2.8240 hc        1 G90      0.092500
     47 HD1         3.8460    2.0240   -1.5670 DU        1 G90      0.208000
     48 HE3         3.1410   -2.6100   -3.1370 ha        1 G90      0.134500
     49 HZ3         4.9880   -4.0460   -3.5120 ha        1 G90      0.134500
     50 HH2         7.2170   -3.3380   -3.1270 ha        1 G90      0.134500
     51 HZ2         7.5850   -1.1140   -2.3460 ha        1 G90      0.134500
     52 HE1         6.2300    1.2980   -1.6010 DU        1 G90      0.208000
@<TRIPOS>BOND
     1    1    2 1   
     2    3    4 1   
     3    3    8 1   
     4    4    5 1   
     5    4    9 1   
     6    5   29 1   
     7    6    7 1   
     8    6   30 1   
     9    7   31 1   
    10    8   28 1   
    11    9   10 1   
    12   10   11 1   
    13   10   32 1   
    14   10   33 1   
    15   11   12 1   
    16   11   13 1   
    17   11   34 1   
    18   12   35 1   
    19   13   14 1   
    20   13   36 1   
    21   13   37 1   
    22   14   15 1   
    23   14   38 1   
    24   15   16 1   
    25   15   17 1   
    26   15   18 1   
    27   16   39 1   
    28   16   40 1   
    29   16   41 1   
    30   17   42 1   
    31   17   43 1   
    32   17   44 1   
    33   18   19 1   
    34   18   45 1   
    35   18   46 1   
    36   19   20 1   
    37   19   27 1   
    38   20   25 1   
    39   21   22 1   
    40   21   48 1   
    41   22   49 1   
    42   23   24 1   
    43   23   50 1   
    44   24   51 1   
    45   26   27 1   
@<TRIPOS>SUBSTRUCTURE
     1 G90         1 TEMP              0 ****  ****    0 ROOT
