@<TRIPOS>MOLECULE
G93
   58    56     1     0     0
SMALL
bcc


@<TRIPOS>ATOM
      1 C3          2.6760    0.0450    2.7350 c1        1 G93     -0.117000
      2 N2          0.7820    0.1870   -1.6200 n2        1 G93     -0.136000
      3 N3          2.6230    0.2740   -0.4410 n2        1 G93     -0.132000
      4 C2          1.5050    0.3430    1.8250 c1        1 G93      0.120000
      5 O2         -1.9730    0.5410   -0.3690 os        1 G93     -0.218000
      6 N1          0.2940    0.3350    2.4520 n1        1 G93     -0.101000
      7 C1          1.5720    0.2950    0.4210 c2        1 G93     -0.077000
      8 N6          4.3120   -1.7980   -2.3780 nh        1 G93     -0.312000
      9 C17         4.0990   -0.5400   -3.0000 c2        1 G93      0.049000
     10 N5          4.8330   -0.0170   -3.9950 n2        1 G93     -0.105000
     11 O3          4.3070    1.2120   -4.3090 os        1 G93     -0.016000
     12 N4          3.2320    1.4360   -3.4850 n2        1 G93      0.017000
     13 C16         3.0960    0.3700   -2.6800 c2        1 G93     -0.111000
     14 C15         2.1310    0.2070   -1.6980 c2        1 G93      0.079000
     15 C13         0.1470    0.1890   -2.8920 c2        1 G93     -0.028000
     16 C14         0.2260   -1.1950   -3.4970 c3        1 G93     -0.233000
     17 C4          3.5980   -0.1900    3.4520 c1        1 G93     -0.117000
     18 C5          4.7680   -0.4880    4.3620 c2        1 G93      0.193000
     19 C7          6.0620   -0.2300    3.6210 c3        1 G93     -0.218500
     20 C6          4.6990    0.4050    5.5810 c3        1 G93     -0.218500
     21 O1          4.7190   -1.8350    4.7630 oh        1 G93     -0.320000
     22 C12         0.4360    0.2410   -0.3060 c1        1 G93     -0.030000
     23 C9         -0.7940    0.2330    0.3330 c1        1 G93      0.059000
     24 C8         -0.8560    0.2810    1.7180 c1        1 G93     -0.139000
     25 C10        -3.1460    0.0610    0.2480 c3        1 G93     -0.020000
     26 C11        -4.2950    0.2350   -0.6720 c3        1 G93     -0.103000
     27 C18        -4.7860    1.6470   -0.5720 c3        1 G93     -0.070000
     28 N7         -6.1190    1.6990   -0.6050 n3        1 G93     -0.304000
     29 C19        -6.9320    0.9760   -1.3610 c3        1 G93     -0.077000
     30 C20        -6.4530   -0.4550   -1.4660 c3        1 G93     -0.166000
     31 C21        -5.4380   -0.8500   -0.2950 c3        1 G93     -0.148000
     32 HN6         4.9260   -2.3810   -2.7250 hn        1 G93      0.239000
     33 HN6A        3.8480   -2.0200   -1.6230 hn        1 G93      0.239000
     34 H13        -0.7920    0.4470   -2.7880 ha        1 G93      0.121500
     35 H13A        0.5980    0.8290   -3.4810 ha        1 G93      0.121500
     36 H14         1.1640   -1.4250   -3.6660 hc        1 G93      0.090333
     37 H14A       -0.1630   -1.8460   -2.8770 hc        1 G93      0.090333
     38 H14B       -0.2710   -1.2110   -4.3420 hc        1 G93      0.090333
     39 H7          6.1760    0.7350    3.4900 hc        1 G93      0.089500
     40 H7A         6.8130   -0.5810    4.1430 hc        1 G93      0.089500
     41 H7B         6.0330   -0.6770    2.7490 hc        1 G93      0.089500
     42 H6          3.7870    0.3990    5.9390 hc        1 G93      0.089500
     43 H6A         5.3200    0.0740    6.2640 hc        1 G93      0.089500
     44 H6B         4.9460    1.3200    5.3310 hc        1 G93      0.089500
     45 HO1         4.6100   -2.3540    4.0490 ho        1 G93      0.204000
     46 H8         -1.7220    0.2750    2.1680 ha        1 G93      0.170000
     47 H10        -3.0380   -0.8890    0.4600 h1        1 G93      0.094500
     48 H10A       -3.3090    0.5630    1.0730 h1        1 G93      0.094500
     49 H11        -3.9950    0.0710   -1.5860 hc        1 G93      0.102000
     50 H18        -4.4710    2.0370    0.2690 h1        1 G93      0.073500
     51 H18A       -4.4270    2.1660   -1.3210 h1        1 G93      0.073500
     52 HN7        -6.3910    2.5730   -0.6150 hn        1 G93      0.161000
     53 H19        -7.8300    0.9860   -0.9690 h1        1 G93      0.074500
     54 H19A       -6.9690    1.3680   -2.2580 h1        1 G93      0.074500
     55 H20        -7.2280   -1.0500   -1.4260 hc        1 G93      0.086000
     56 H20A       -6.0050   -0.5760   -2.3270 hc        1 G93      0.086000
     57 H21        -5.1130   -1.7680   -0.3910 hc        1 G93      0.086000
     58 H21A       -5.8200   -0.6830    0.5890 hc        1 G93      0.086000
@<TRIPOS>BOND
     1    1   17 1   
     2    2   14 1   
     3    2   22 1   
     4    3    7 1   
     5    3   14 1   
     6    4    6 1   
     7    4    7 1   
     8    5   23 1   
     9    5   25 1   
    10    7   22 1   
    11    8    9 1   
    12    8   32 1   
    13    8   33 1   
    14    9   10 1   
    15    9   13 1   
    16   10   11 1   
    17   11   12 1   
    18   12   13 1   
    19   13   14 1   
    20   15   16 1   
    21   15   34 1   
    22   15   35 1   
    23   16   36 1   
    24   16   37 1   
    25   16   38 1   
    26   18   19 1   
    27   18   20 1   
    28   18   21 1   
    29   19   39 1   
    30   19   40 1   
    31   19   41 1   
    32   20   42 1   
    33   20   43 1   
    34   20   44 1   
    35   21   45 1   
    36   23   24 1   
    37   24   46 1   
    38   25   26 1   
    39   25   47 1   
    40   25   48 1   
    41   26   27 1   
    42   26   31 1   
    43   26   49 1   
    44   27   28 1   
    45   27   50 1   
    46   27   51 1   
    47   28   29 1   
    48   28   52 1   
    49   29   30 1   
    50   29   53 1   
    51   29   54 1   
    52   30   31 1   
    53   30   55 1   
    54   30   56 1   
    55   31   57 1   
    56   31   58 1   
@<TRIPOS>SUBSTRUCTURE
     1 G93         1 TEMP              0 ****  ****    0 ROOT
