@<TRIPOS>MOLECULE
G93
   59    62     1     0     0
SMALL
bcc


@<TRIPOS>ATOM
      1 C3          1.6280   -0.3030    4.5050 cg        1 G93     -0.211000
      2 N2         -0.6830    0.5170    0.4910 na        1 G93     -0.061300
      3 N3          1.3400    0.3540    1.6040 nc        1 G93     -0.609100
      4 C2          0.3530   -0.2360    3.8990 ca        1 G93      0.568300
      5 N1         -0.7840   -0.4510    4.5720 nb        1 G93     -0.597000
      6 C1          0.3210    0.0840    2.5000 ca        1 G93     -0.004900
      7 C17         3.0000    1.0370   -0.7500 cc        1 G93      0.251900
      8 N5          3.3660    1.3700   -2.0190 nd        1 G93     -0.238300
      9 O3          2.2600    1.4640   -2.7160 os        1 G93      0.196600
     10 N4          1.1400    1.2170   -2.0210 nc        1 G93     -0.283300
     11 C16         1.5060    0.9360   -0.7570 cd        1 G93      0.298700
     12 C15         0.7210    0.6020    0.4080 cd        1 G93      0.289800
     13 C13        -1.6510    0.6680   -0.5710 c3        1 G93      0.019300
     14 C14        -1.8110   -0.5470   -1.4700 c3        1 G93     -0.118100
     15 C4          2.7460   -0.3380    4.9310 c1        1 G93     -0.101100
     16 C5          4.1250   -0.3730    5.3910 c3        1 G93      0.232900
     17 C7          4.2070   -0.0100    6.8720 c3        1 G93     -0.104600
     18 C6          4.7350   -1.7550    5.1460 c3        1 G93     -0.104600
     19 O1          4.8960    0.5410    4.5960 oh        1 G93     -0.619800
     20 C12        -0.9590    0.1740    1.8160 ca        1 G93     -0.058200
     21 C9         -2.1410   -0.0620    2.5630 ca        1 G93      0.047800
     22 C8         -1.9740   -0.3660    3.9230 ca        1 G93      0.341200
     23 C10        -4.5130   -0.0180    2.7230 c3        1 G93      0.133400
     24 C11        -5.7240    0.1870    1.8230 c3        1 G93     -0.107700
     25 C18        -5.6350    1.5380    1.0890 c3        1 G93      0.163800
     26 N7         -6.4410    1.6560   -0.1030 n3        1 G93     -0.800200
     27 C19        -6.1680    0.6250   -1.0890 c3        1 G93      0.152800
     28 C20        -5.4900   -0.6360   -0.5520 c3        1 G93     -0.104400
     29 C21        -5.9390   -0.9680    0.8550 c3        1 G93     -0.074400
     30 HN6         4.8500    0.9480    0.1380 hn        1 G93      0.494467
     31 HN6A        3.7110   -0.1420    0.7400 hn        1 G93      0.494467
     32 H13        -2.6460    0.8930   -0.0780 h1        1 G93      0.094200
     33 H13A       -1.3570    1.5650   -1.1880 h1        1 G93      0.094200
     34 H14        -0.8600   -0.8060   -1.9930 hc        1 G93      0.060700
     35 H14A       -2.1550   -1.4370   -0.8890 hc        1 G93      0.060700
     36 H14B       -2.5850   -0.3050   -2.2390 hc        1 G93      0.060700
     37 H7          3.6640   -0.7710    7.4800 hc        1 G93      0.057533
     38 H7A         5.2770    0.0150    7.1890 hc        1 G93      0.057533
     39 H7B         3.7500    0.9910    7.0570 hc        1 G93      0.057533
     40 H6          4.7220   -1.9960    4.0580 hc        1 G93      0.057533
     41 H6A         5.7930   -1.7590    5.5030 hc        1 G93      0.057533
     42 H6B         4.1510   -2.5250    5.7030 hc        1 G93      0.057533
     43 HO1         4.8160    1.4120    5.0050 ho        1 G93      0.412000
     44 H8         -2.8490   -0.5620    4.5710 h4        1 G93      0.051100
     45 H10        -4.5680   -1.0140    3.2380 h1        1 G93      0.054200
     46 H10A       -4.4400    0.8080    3.4790 h1        1 G93      0.054200
     47 H11        -6.6080    0.2220    2.5240 hc        1 G93      0.068700
     48 H18        -5.9330    2.3580    1.7990 h1        1 G93      0.054700
     49 H18A       -4.5620    1.7130    0.7890 h1        1 G93      0.054700
     50 HN7        -7.4150    1.6550    0.1410 hn        1 G93      0.361800
     51 H19        -7.1270    0.3390   -1.6050 h1        1 G93      0.049200
     52 H19A       -5.4960    1.0880   -1.8670 h1        1 G93      0.049200
     53 H20        -5.7190   -1.4950   -1.2340 hc        1 G93      0.045200
     54 H20A       -4.3760   -0.4900   -0.5530 hc        1 G93      0.045200
     55 H21        -5.3900   -1.8760    1.2150 hc        1 G93      0.051200
     56 H21A       -7.0320   -1.2270    0.8370 hc        1 G93      0.051200
     57 O2         -3.3330    0.0060    1.8920 os        1 G93     -0.323900
     58 H63         3.6000    1.4840    1.1370 hn        1 G93      0.494467
     59 N6          3.8600    0.8200    0.3870 n4        1 G93     -0.773300
@<TRIPOS>BOND
     1    1    4 1   
     2    1   15 3   
     3    2   12 1   
     4    2   13 1   
     5    2   20 1   
     6    3    6 1   
     7    3   12 2   
     8    4    5 ar  
     9    4    6 ar  
    10    5   22 ar  
    11    6   20 ar  
    12    7    8 2   
    13    7   11 1   
    14    7   59 1   
    15    8    9 1   
    16    9   10 1   
    17   10   11 2   
    18   11   12 1   
    19   13   14 1   
    20   13   32 1   
    21   13   33 1   
    22   14   34 1   
    23   14   35 1   
    24   14   36 1   
    25   15   16 1   
    26   16   17 1   
    27   16   18 1   
    28   16   19 1   
    29   17   37 1   
    30   17   38 1   
    31   17   39 1   
    32   18   40 1   
    33   18   41 1   
    34   18   42 1   
    35   19   43 1   
    36   20   21 ar  
    37   21   22 ar  
    38   21   57 1   
    39   22   44 1   
    40   23   24 1   
    41   23   45 1   
    42   23   46 1   
    43   23   57 1   
    44   24   25 1   
    45   24   29 1   
    46   24   47 1   
    47   25   26 1   
    48   25   48 1   
    49   25   49 1   
    50   26   27 1   
    51   26   50 1   
    52   27   28 1   
    53   27   51 1   
    54   27   52 1   
    55   28   29 1   
    56   28   53 1   
    57   28   54 1   
    58   29   55 1   
    59   29   56 1   
    60   30   59 1   
    61   31   59 1   
    62   58   59 1   
@<TRIPOS>SUBSTRUCTURE
     1 G93         1 TEMP              0 ****  ****    0 ROOT
