@<TRIPOS>MOLECULE
G93
   58    61     1     0     0
SMALL
bcc


@<TRIPOS>ATOM
      1 C3          1.8650    0.0720    4.4290 cg        1 G93     -0.189000
      2 N2         -0.1300   -0.4950    0.1800 na        1 G93     -0.109300
      3 N3          1.8150   -0.4860    1.4350 nc        1 G93     -0.559100
      4 C2          0.6670    0.0560    3.6770 ca        1 G93      0.556300
      5 N1         -0.5150    0.2960    4.2750 nb        1 G93     -0.627000
      6 C1          0.7360   -0.2160    2.2760 ca        1 G93     -0.000900
      7 C17         3.5630   -0.7110   -1.1090 cc        1 G93      0.504900
      8 N5          3.8880   -1.1810   -2.3520 nd        1 G93     -0.439300
      9 O3          2.7550   -1.6360   -2.9040 os        1 G93      0.129600
     10 N4          1.6930   -1.5240   -2.1270 nc        1 G93     -0.316300
     11 C16         2.0820   -0.9550   -0.9740 cd        1 G93      0.179700
     12 C15         1.2780   -0.6570    0.1960 cd        1 G93      0.377800
     13 C13        -1.0450   -0.6590   -0.9200 c3        1 G93      0.038300
     14 C14        -1.5160   -2.0850   -1.1610 c3        1 G93     -0.114100
     15 C4          2.8890    0.0850    5.0500 c1        1 G93     -0.126100
     16 C5          4.1330    0.0900    5.8000 c3        1 G93      0.237900
     17 C7          3.9310    0.7960    7.1420 c3        1 G93     -0.101100
     18 C6          4.6350   -1.3390    6.0180 c3        1 G93     -0.101100
     19 O1          5.1670    0.7470    5.0610 oh        1 G93     -0.591800
     20 C12        -0.4930   -0.2270    1.5020 ca        1 G93     -0.077200
     21 C9         -1.7160    0.0330    2.1590 ca        1 G93      0.035800
     22 C8         -1.6510    0.2810    3.5390 ca        1 G93      0.323200
     23 C10        -4.0740    0.3420    2.0900 c3        1 G93      0.129400
     24 C11        -5.1810    0.2880    1.0440 c3        1 G93     -0.070700
     25 C18        -5.0280    1.4490    0.0520 c3        1 G93      0.168800
     26 N7         -6.1120    1.5100   -0.9080 n7        1 G93     -0.820200
     27 C19        -7.4290    1.5280   -0.3020 c3        1 G93      0.161800
     28 C20        -7.6450    0.3920    0.6960 c3        1 G93     -0.076400
     29 C21        -6.5380    0.3510    1.7280 c3        1 G93     -0.075400
     30 HN6         5.3460   -0.1240   -0.3570 hn        1 G93      0.442800
     31 HN6A        4.0580   -0.0340    0.7310 hn        1 G93      0.442800
     32 H13        -1.9470   -0.0130   -0.6990 h1        1 G93      0.077700
     33 H13A       -0.5510   -0.2590   -1.8520 h1        1 G93      0.077700
     34 H14        -0.6630   -2.7740   -1.3680 hc        1 G93      0.053700
     35 H14A       -2.0830   -2.4710   -0.2800 hc        1 G93      0.053700
     36 H14B       -2.1940   -2.0810   -2.0500 hc        1 G93      0.053700
     37 H7          3.1830    0.2420    7.7560 hc        1 G93      0.050367
     38 H7A         4.9030    0.8330    7.6880 hc        1 G93      0.050367
     39 H7B         3.5670    1.8390    6.9830 hc        1 G93      0.050367
     40 H6          4.8140   -1.8350    5.0350 hc        1 G93      0.050367
     41 H6A         5.5930   -1.3100    6.5870 hc        1 G93      0.050367
     42 H6B         3.8750   -1.9170    6.5930 hc        1 G93      0.050367
     43 HO1         4.8740    1.6530    4.9070 ho        1 G93      0.405000
     44 H8         -2.5670    0.4870    4.1220 h4        1 G93      0.031100
     45 H10        -4.2550   -0.4180    2.8960 h1        1 G93      0.047200
     46 H10A       -3.9820    1.3640    2.5410 h1        1 G93      0.047200
     47 H11        -5.0960   -0.6830    0.4800 hc        1 G93      0.080700
     48 H18        -4.9290    2.4070    0.6440 h1        1 G93      0.032200
     49 H18A       -4.0690    1.3020   -0.5220 h1        1 G93      0.032200
     50 HN7        -5.9960    2.3100   -1.5010 hn        1 G93      0.365800
     51 H19        -7.6370    2.5050    0.2290 h1        1 G93      0.029700
     52 H19A       -8.1800    1.4300   -1.1370 h1        1 G93      0.029700
     53 H20        -8.6320    0.5440    1.2030 hc        1 G93      0.050700
     54 H20A       -7.6860   -0.5870    0.1500 hc        1 G93      0.050700
     55 H21        -6.6700   -0.5420    2.3920 hc        1 G93      0.043200
     56 H21A       -6.5890    1.2660    2.3760 hc        1 G93      0.043200
     57 O2         -2.8590    0.0140    1.3960 os        1 G93     -0.327900
     58 N6          4.3640   -0.0540   -0.2160 nv        1 G93     -0.913500
@<TRIPOS>BOND
     1    1    4 1   
     2    1   15 3   
     3    2   12 1   
     4    2   13 1   
     5    2   20 1   
     6    3    6 1   
     7    3   12 2   
     8    4    5 ar  
     9    4    6 ar  
    10    5   22 ar  
    11    6   20 ar  
    12    7    8 2   
    13    7   11 1   
    14    7   58 1   
    15    8    9 1   
    16    9   10 1   
    17   10   11 2   
    18   11   12 1   
    19   13   14 1   
    20   13   32 1   
    21   13   33 1   
    22   14   34 1   
    23   14   35 1   
    24   14   36 1   
    25   15   16 1   
    26   16   17 1   
    27   16   18 1   
    28   16   19 1   
    29   17   37 1   
    30   17   38 1   
    31   17   39 1   
    32   18   40 1   
    33   18   41 1   
    34   18   42 1   
    35   19   43 1   
    36   20   21 ar  
    37   21   22 ar  
    38   21   57 1   
    39   22   44 1   
    40   23   24 1   
    41   23   45 1   
    42   23   46 1   
    43   23   57 1   
    44   24   25 1   
    45   24   29 1   
    46   24   47 1   
    47   25   26 1   
    48   25   48 1   
    49   25   49 1   
    50   26   27 1   
    51   26   50 1   
    52   27   28 1   
    53   27   51 1   
    54   27   52 1   
    55   28   29 1   
    56   28   53 1   
    57   28   54 1   
    58   29   55 1   
    59   29   56 1   
    60   30   58 1   
    61   31   58 1   
@<TRIPOS>SUBSTRUCTURE
     1 G93         1 TEMP              0 ****  ****    0 ROOT
