@<TRIPOS>MOLECULE
G93
   58    61     1     0     0
SMALL
bcc


@<TRIPOS>ATOM
      1 C3         -2.8060   -2.3230    0.0520 cg        1 G93     -0.189000
      2 N2          0.2210    1.3140    0.1750 na        1 G93     -0.109300
      3 N3         -1.9860    0.6190    0.0950 nc        1 G93     -0.562100
      4 C2         -1.4550   -1.9040    0.1040 ca        1 G93      0.556300
      5 N1         -0.4650   -2.8160    0.1350 nb        1 G93     -0.623000
      6 C1         -1.1610   -0.5060    0.1250 ca        1 G93     -0.001900
      7 C17        -2.9260    3.5360   -0.4460 cc        1 G93      0.500900
      8 N5         -2.9530    4.8800   -0.2040 nd        1 G93     -0.435300
      9 O3         -1.8020    5.1880    0.4110 os        1 G93      0.129600
     10 N4         -1.0070    4.1520    0.6160 nc        1 G93     -0.313300
     11 C16        -1.6120    3.0610    0.1170 cd        1 G93      0.180700
     12 C15        -1.1450    1.6880    0.1350 cd        1 G93      0.375800
     13 C13         1.3840    2.1570    0.2800 c3        1 G93      0.039300
     14 C14         1.7860    2.5260    1.7000 c3        1 G93     -0.115100
     15 C4         -3.9510   -2.6670    0.0110 c1        1 G93     -0.126100
     16 C5         -5.3430   -3.0810   -0.0490 c3        1 G93      0.238900
     17 C7         -6.2510   -1.8510   -0.1130 c3        1 G93     -0.100600
     18 C6         -5.5830   -3.9860   -1.2580 c3        1 G93     -0.100600
     19 O1         -5.6900   -3.8700    1.0920 oh        1 G93     -0.587800
     20 C12         0.2280   -0.0840    0.1820 ca        1 G93     -0.076200
     21 C9          1.2420   -1.0660    0.2090 ca        1 G93      0.035800
     22 C8          0.8230   -2.4050    0.1850 ca        1 G93      0.324200
     23 C10         3.5460   -1.6560    0.2310 c3        1 G93      0.129400
     24 C11         4.8880   -0.9350    0.2680 c3        1 G93     -0.070700
     25 C18         5.1230   -0.1890   -1.0530 c3        1 G93      0.168800
     26 N7          6.4300    0.4340   -1.1170 n3        1 G93     -0.820200
     27 C19         7.5260   -0.4750   -0.8430 c3        1 G93      0.161800
     28 C20         7.3500   -1.2470    0.4640 c3        1 G93     -0.076400
     29 C21         6.0040   -1.9370    0.5170 c3        1 G93     -0.075400
     30 HN6        -4.7250    3.1800   -1.3000 hn        1 G93      0.440300
     31 HN6A       -3.8060    1.7990   -0.9850 hn        1 G93      0.440300
     32 H13         2.2410    1.6000   -0.2060 h1        1 G93      0.076700
     33 H13A        1.1930    3.0950   -0.3160 h1        1 G93      0.076700
     34 H14         0.9690    3.0640    2.2360 hc        1 G93      0.054033
     35 H14A        2.0600    1.6140    2.2840 hc        1 G93      0.054033
     36 H14B        2.6780    3.1960    1.6440 hc        1 G93      0.054033
     37 H7         -6.0500   -1.2760   -1.0470 hc        1 G93      0.049533
     38 H7A        -7.3170   -2.1810   -0.1050 hc        1 G93      0.049533
     39 H7B        -6.0720   -1.1880    0.7670 hc        1 G93      0.049533
     40 H6         -4.9440   -4.8970   -1.1840 hc        1 G93      0.049533
     41 H6A        -6.6540   -4.2990   -1.2780 hc        1 G93      0.049533
     42 H6B        -5.3370   -3.4330   -2.1940 hc        1 G93      0.049533
     43 HO1        -5.4960   -3.3420    1.8750 ho        1 G93      0.406000
     44 H8          1.5580   -3.2300    0.2080 h4        1 G93      0.032100
     45 H10         3.4270   -2.3140    1.1320 h1        1 G93      0.048200
     46 H10A        3.4300   -2.2640   -0.7040 h1        1 G93      0.048200
     47 H11         4.8700   -0.1850    1.1070 hc        1 G93      0.079700
     48 H18         4.9560   -0.9170   -1.9020 h1        1 G93      0.031700
     49 H18A        4.3500    0.6250   -1.1450 h1        1 G93      0.031700
     50 HN7         6.5580    0.8640   -2.0140 hn        1 G93      0.365800
     51 H19         7.6710   -1.2250   -1.6760 h1        1 G93      0.029700
     52 H19A        8.4640    0.1460   -0.7780 h1        1 G93      0.029700
     53 H20         8.1710   -2.0060    0.5430 hc        1 G93      0.050700
     54 H20A        7.4470   -0.5450    1.3330 hc        1 G93      0.050700
     55 H21         5.8640   -2.4200    1.5180 hc        1 G93      0.043200
     56 H21A        5.9620   -2.7460   -0.2590 hc        1 G93      0.043200
     57 O2          2.5430   -0.6270    0.2620 os        1 G93     -0.327900
     58 N6         -3.8260    2.7800   -1.1490 nh        1 G93     -0.913500
@<TRIPOS>BOND
     1    1    4 1   
     2    1   15 3   
     3    2   12 1   
     4    2   13 1   
     5    2   20 1   
     6    3    6 1   
     7    3   12 2   
     8    4    5 ar  
     9    4    6 ar  
    10    5   22 ar  
    11    6   20 ar  
    12    7    8 2   
    13    7   11 1   
    14    7   58 1   
    15    8    9 1   
    16    9   10 1   
    17   10   11 2   
    18   11   12 1   
    19   13   14 1   
    20   13   32 1   
    21   13   33 1   
    22   14   34 1   
    23   14   35 1   
    24   14   36 1   
    25   15   16 1   
    26   16   17 1   
    27   16   18 1   
    28   16   19 1   
    29   17   37 1   
    30   17   38 1   
    31   17   39 1   
    32   18   40 1   
    33   18   41 1   
    34   18   42 1   
    35   19   43 1   
    36   20   21 ar  
    37   21   22 ar  
    38   21   57 1   
    39   22   44 1   
    40   23   24 1   
    41   23   45 1   
    42   23   46 1   
    43   23   57 1   
    44   24   25 1   
    45   24   29 1   
    46   24   47 1   
    47   25   26 1   
    48   25   48 1   
    49   25   49 1   
    50   26   27 1   
    51   26   50 1   
    52   27   28 1   
    53   27   51 1   
    54   27   52 1   
    55   28   29 1   
    56   28   53 1   
    57   28   54 1   
    58   29   55 1   
    59   29   56 1   
    60   30   58 1   
    61   31   58 1   
@<TRIPOS>SUBSTRUCTURE
     1 G93         1 TEMP              0 ****  ****    0 ROOT
