@<TRIPOS>MOLECULE
G95
   46    49     1     0     0
SMALL
bcc


@<TRIPOS>ATOM
      1 C1          0.0910   -0.5150   -0.1950 c3        1 G95      0.090800
      2 C2          1.4430    0.2400   -0.1040 c3        1 G95      0.196800
      3 C3          1.7020    1.4540   -2.3460 c         1 G95      0.639700
      4 C4          2.2600    2.5830   -2.9640 cc        1 G95     -0.354700
      5 C5          2.5190    2.5730   -4.3680 cd        1 G95      0.023000
      6 C9          4.2420    6.5130   -5.1210 ca        1 G95     -0.171300
      7 C10         4.7790    7.8190   -5.2120 ca        1 G95      0.401200
      8 C8          3.8030    6.0160   -3.8840 ca        1 G95     -0.040000
      9 C7          3.2550    4.7010   -3.7580 cc        1 G95      0.138900
     10 C6          3.0790    3.7690   -4.8060 cd        1 G95     -0.196000
     11 S1          2.7290    4.0680   -2.3030 ss        1 G95      0.100200
     12 O1          1.3600    0.3630   -2.8190 o         1 G95     -0.591100
     13 N1          0.0110   -1.5270   -1.2820 n4        1 G95     -0.842600
     14 C12         3.9860    8.0010   -0.7880 cc        1 G95     -0.023100
     15 C13         3.6150    6.7790   -1.3710 cd        1 G95     -0.246200
     16 C14         3.9230    6.8660   -2.7670 ca        1 G95     -0.164100
     17 C15         1.7590    0.4730    1.3450 ca        1 G95     -0.228300
     18 N2          1.4590    1.5620   -0.8320 n4        1 G95     -0.693800
     19 C16         2.9950    0.0580    1.8530 ca        1 G95     -0.107500
     20 C17         3.2890    0.2550    3.2030 ca        1 G95     -0.104500
     21 C18         2.3580    0.8700    4.0410 ca        1 G95     -0.058000
     22 N3          4.9170    8.6700   -4.1870 nb        1 G95     -0.584000
     23 C19         1.1250    1.2900    3.5300 ca        1 G95     -0.104500
     24 C20         0.8240    1.0930    2.1860 ca        1 G95     -0.107500
     25 C11         4.4940    8.1970   -2.9840 ca        1 G95      0.416800
     26 N4          4.5130    8.8560   -1.7410 na        1 G95     -0.253100
     27 H1         -0.0480   -1.0650    0.7890 hx        1 G95      0.136200
     28 H1A        -0.7780    0.1950   -0.3180 hx        1 G95      0.136200
     29 H2          2.2690   -0.3800   -0.5760 hx        1 G95      0.125700
     30 H5          2.2970    1.7130   -5.0130 ha        1 G95      0.191000
     31 H6          3.3530    3.9660   -5.8500 ha        1 G95      0.202000
     32 HN1         0.8060   -2.1760   -1.2300 hn        1 G95      0.480467
     33 HN1A        0.0280   -1.0760   -2.2120 hn        1 G95      0.480467
     34 H12         3.9050    8.3150    0.2590 h4        1 G95      0.192000
     35 H13         3.1770    5.9390   -0.8410 ha        1 G95      0.141000
     36 HN2         0.5770    2.0590   -0.6720 hn        1 G95      0.464300
     37 H16         3.7390   -0.4290    1.2020 ha        1 G95      0.138000
     38 H17         4.2610   -0.0780    3.6060 ha        1 G95      0.177000
     39 H18         2.5920    1.0230    5.1100 ha        1 G95      0.181000
     40 H19         0.3900    1.7750    4.1960 ha        1 G95      0.177000
     41 H20        -0.1510    1.4190    1.7940 ha        1 G95      0.138000
     42 HN4         4.8490    9.7770   -1.5920 hn        1 G95      0.339700
     43 H9          4.1780    5.9040   -6.0340 ha        1 G95      0.158000
     44 H131       -0.8610   -2.0630   -1.1870 hn        1 G95      0.480467
     45 H22         2.2150    2.1270   -0.4180 hn        1 G95      0.464300
     46 H10         5.1250    8.2070   -6.1920 h4        1 G95      0.059100
@<TRIPOS>BOND
     1    1    2 1   
     2    1   13 1   
     3    1   27 1   
     4    1   28 1   
     5    2   17 1   
     6    2   18 1   
     7    2   29 1   
     8    3    4 1   
     9    3   12 2   
    10    3   18 1   
    11    4    5 2   
    12    4   11 1   
    13    5   10 1   
    14    5   30 1   
    15    6    7 ar  
    16    6    8 ar  
    17    6   43 1   
    18    7   22 ar  
    19    7   46 1   
    20    8    9 1   
    21    8   16 ar  
    22    9   10 2   
    23    9   11 1   
    24   10   31 1   
    25   13   32 1   
    26   13   33 1   
    27   13   44 1   
    28   14   15 2   
    29   14   26 1   
    30   14   34 1   
    31   15   16 1   
    32   15   35 1   
    33   16   25 ar  
    34   17   19 ar  
    35   17   24 ar  
    36   18   36 1   
    37   18   45 1   
    38   19   20 ar  
    39   19   37 1   
    40   20   21 ar  
    41   20   38 1   
    42   21   23 ar  
    43   21   39 1   
    44   22   25 ar  
    45   23   24 ar  
    46   23   40 1   
    47   24   41 1   
    48   25   26 1   
    49   26   42 1   
@<TRIPOS>SUBSTRUCTURE
     1 G95         1 TEMP              0 ****  ****    0 ROOT
