@<TRIPOS>MOLECULE
G95
   46    49     1     0     0
SMALL
bcc


@<TRIPOS>ATOM
      1 C1          0.0500   -0.4880   -0.1970 c3        1 G95      0.090800
      2 C2          1.4070    0.2550   -0.1000 c3        1 G95      0.196800
      3 C3          1.6960    1.4560   -2.3450 c         1 G95      0.639700
      4 C4          2.2710    2.5760   -2.9640 cc        1 G95     -0.354700
      5 C5          2.5410    2.5570   -4.3660 cd        1 G95      0.023000
      6 C9          4.3110    6.4750   -5.1220 ca        1 G95     -0.171300
      7 C10         4.8620    7.7760   -5.2150 ca        1 G95      0.401200
      8 C8          3.8550    5.9890   -3.8870 ca        1 G95     -0.040000
      9 C7          3.2930    4.6800   -3.7590 cc        1 G95      0.138900
     10 C6          3.1160    3.7450   -4.8040 cd        1 G95     -0.196000
     11 S1          2.7480    4.0600   -2.3060 ss        1 G95      0.100200
     12 O1          1.3460    0.3660   -2.8160 o         1 G95     -0.591100
     13 N1         -0.0330   -1.5020   -1.2820 nz        1 G95     -0.842600
     14 C12         4.0300    7.9880   -0.7990 cc        1 G95     -0.023100
     15 C13         3.6520    6.7670   -1.3800 cd        1 G95     -0.246200
     16 C14         3.9740    6.8430   -2.7730 ca        1 G95     -0.164100
     17 C15         1.7150    0.4920    1.3500 ca        1 G95     -0.228300
     18 N2          1.4410    1.5730   -0.8340 ny        1 G95     -0.693800
     19 C16         2.9430    0.0670    1.8690 ca        1 G95     -0.107500
     20 C17         3.2290    0.2690    3.2200 ca        1 G95     -0.104500
     21 C18         2.2980    0.8960    4.0490 ca        1 G95     -0.058000
     22 N3          4.9990    8.6300   -4.1930 nb        1 G95     -0.584000
     23 C19         1.0730    1.3250    3.5270 ca        1 G95     -0.104500
     24 C20         0.7800    1.1250    2.1820 ca        1 G95     -0.107500
     25 C11         4.5600    8.1680   -2.9910 ca        1 G95      0.416800
     26 N4          4.5740    8.8320   -1.7510 na        1 G95     -0.253100
     27 H1         -0.1010   -1.0340    0.7880 hx        1 G95      0.136200
     28 H1A        -0.8120    0.2300   -0.3270 hx        1 G95      0.136200
     29 H2          2.2310   -0.3750   -0.5630 hx        1 G95      0.125700
     30 H5          2.3160    1.6960   -5.0080 ha        1 G95      0.191000
     31 H6          3.4020    3.9340   -5.8460 ha        1 G95      0.202000
     32 HN1         0.7560   -2.1580   -1.2230 hn        1 G95      0.480467
     33 HN1A       -0.9100   -2.0310   -1.1900 hn        1 G95      0.480467
     34 H12         3.9420    8.3080    0.2450 h4        1 G95      0.192000
     35 H13         3.2000    5.9340   -0.8490 ha        1 G95      0.141000
     36 HN2         0.5620    2.0790   -0.6840 hn        1 G95      0.464300
     37 H16         3.6870   -0.4300    1.2260 ha        1 G95      0.138000
     38 H17         4.1950   -0.0720    3.6320 ha        1 G95      0.177000
     39 H18         2.5260    1.0520    5.1190 ha        1 G95      0.181000
     40 H19         0.3370    1.8210    4.1850 ha        1 G95      0.177000
     41 H20        -0.1900    1.4580    1.7810 ha        1 G95      0.138000
     42 HN4         4.9170    9.7510   -1.6040 hn        1 G95      0.339700
     43 H9          4.2490    5.8620   -6.0320 ha        1 G95      0.158000
     44 H131       -0.0070   -1.0550   -2.2130 hn        1 G95      0.480467
     45 H22         2.1990    2.1340   -0.4160 hn        1 G95      0.464300
     46 H10         5.2210    8.1550   -6.1930 h4        1 G95      0.059100
@<TRIPOS>BOND
     1    1    2 1   
     2    1   13 1   
     3    1   27 1   
     4    1   28 1   
     5    2   17 1   
     6    2   18 1   
     7    2   29 1   
     8    3    4 1   
     9    3   12 2   
    10    3   18 1   
    11    4    5 2   
    12    4   11 1   
    13    5   10 1   
    14    5   30 1   
    15    6    7 ar  
    16    6    8 ar  
    17    6   43 1   
    18    7   22 ar  
    19    7   46 1   
    20    8    9 1   
    21    8   16 ar  
    22    9   10 2   
    23    9   11 1   
    24   10   31 1   
    25   13   32 1   
    26   13   33 1   
    27   13   44 1   
    28   14   15 2   
    29   14   26 1   
    30   14   34 1   
    31   15   16 1   
    32   15   35 1   
    33   16   25 ar  
    34   17   19 ar  
    35   17   24 ar  
    36   18   36 1   
    37   18   45 1   
    38   19   20 ar  
    39   19   37 1   
    40   20   21 ar  
    41   20   38 1   
    42   21   23 ar  
    43   21   39 1   
    44   22   25 ar  
    45   23   24 ar  
    46   23   40 1   
    47   24   41 1   
    48   25   26 1   
    49   26   42 1   
@<TRIPOS>SUBSTRUCTURE
     1 G95         1 TEMP              0 ****  ****    0 ROOT
