@<TRIPOS>MOLECULE
G95
   44    34     1     0     0
SMALL
bcc


@<TRIPOS>ATOM
      1 C1         -2.7300   -1.8590    3.2090 c3        1 G95     -0.085000
      2 C2         -1.5250   -2.1690    2.3340 c3        1 G95      0.020000
      3 C3         -0.8750   -1.0680    0.2340 c1        1 G95      0.377000
      4 C4         -0.4650    0.2030   -0.5210 c1        1 G95     -0.405500
      5 C5         -0.3930    1.5450    0.0400 c1        1 G95     -0.139000
      6 C9         -0.7670    2.5190   -4.2670 c1        1 G95     -0.127000
      7 C10        -0.8330    3.3700   -5.3650 c1        1 G95     -0.127000
      8 C8          0.4220    2.3320   -3.6190 c1        1 G95      0.070000
      9 C7          0.1180    1.8070   -2.3670 c1        1 G95     -0.405500
     10 C6         -0.0220    2.5630   -1.1370 c1        1 G95     -0.139000
     11 S1         -0.1510    0.3030   -2.0410 ss        1 G95      0.714000
     12 O1         -0.8980   -2.1350   -0.3420 o         1 G95     -0.389000
     13 N1         -3.8190   -2.7530    2.8680 n3        1 G95     -0.330000
     14 C12         3.6040    3.7980   -4.4310 c1        1 G95     -0.072000
     15 C13         2.8720    2.9720   -3.6180 c1        1 G95     -0.192000
     16 C14         1.5630    2.9910   -4.0590 c1        1 G95     -0.103000
     17 C15        -0.3640   -2.6510    3.2130 c2        1 G95     -0.093000
     18 N2         -1.1380   -1.0080    1.6410 n3        1 G95     -0.369000
     19 C16         0.2770   -3.8200    2.8180 c2        1 G95     -0.114000
     20 C17         1.3340   -4.3250    3.5750 c1        1 G95     -0.128000
     21 C18         1.7470   -3.6610    4.7230 c1        1 G95     -0.127000
     22 N3          0.2870    4.0170   -5.7960 n1        1 G95     -0.140000
     23 C19         1.1060   -2.4930    5.1180 c1        1 G95     -0.127000
     24 C20         0.0480   -1.9870    4.3610 c1        1 G95     -0.126000
     25 C11         1.4950    3.8280   -5.1390 c1        1 G95      0.031000
     26 N4          2.7590    4.3280   -5.3710 n1        1 G95     -0.202000
     27 H1         -3.0110   -0.9320    3.0610 h1        1 G95      0.095000
     28 H1A        -2.4900   -1.9810    4.1480 h1        1 G95      0.095000
     29 H2         -1.7600   -2.8690    1.6910 h1        1 G95      0.115000
     30 H5         -0.5460    1.7830    0.9760 DU        1 G95      0.182200
     31 H9         -1.5700    2.0550   -3.9570 ha        1 G95      0.144000
     32 H10        -1.6800    3.5040   -5.8270 ha        1 G95      0.144000
     33 H6          0.0910    3.5300   -1.0430 DU        1 G95      0.182200
     34 HN1        -3.5330   -3.6270    2.9380 hn        1 G95      0.151500
     35 HN1A       -4.0920   -2.5890    2.0060 hn        1 G95      0.151500
     36 H12         4.5640    3.9630   -4.3640 DU        1 G95      0.182200
     37 H13         3.2160    2.4580   -2.8590 DU        1 G95      0.182200
     38 HN2        -1.0960   -0.2080    2.0790 hn        1 G95      0.231000
     39 H16        -0.0140   -4.2880    2.0090 ha        1 G95      0.138000
     40 H17         1.7870   -5.1510    3.2960 ha        1 G95      0.135000
     41 H18         2.4930   -4.0180    5.2570 ha        1 G95      0.144000
     42 H19         1.3980   -2.0230    5.9300 ha        1 G95      0.144000
     43 H20        -0.4010   -1.1670    4.6380 ha        1 G95      0.132000
     44 HN4         2.9930    4.9130   -6.0390 DU        1 G95      0.182200
@<TRIPOS>BOND
     1    1    2 1   
     2    1   13 1   
     3    1   27 1   
     4    1   28 1   
     5    2   17 1   
     6    2   18 1   
     7    2   29 1   
     8    3   12 1   
     9    3   18 1   
    10    4    5 1   
    11    4   11 1   
    12    5   10 1   
    13    6    7 1   
    14    6   31 1   
    15    7   32 1   
    16    8   16 1   
    17    9   10 1   
    18    9   11 1   
    19   13   34 1   
    20   13   35 1   
    21   14   15 1   
    22   14   26 1   
    23   15   16 1   
    24   17   19 1   
    25   17   24 1   
    26   18   38 1   
    27   19   20 1   
    28   19   39 1   
    29   20   40 1   
    30   21   23 1   
    31   21   41 1   
    32   22   25 1   
    33   23   42 1   
    34   24   43 1   
@<TRIPOS>SUBSTRUCTURE
     1 G95         1 TEMP              0 ****  ****    0 ROOT
