@<TRIPOS>MOLECULE
G95
   46    49     1     0     0
SMALL
bcc


@<TRIPOS>ATOM
      1 C1          0.0680   -0.4950   -0.1720 c3        1 G95      0.090800
      2 C2          1.4230    0.2530   -0.0890 c3        1 G95      0.196800
      3 C3          1.6900    1.4520   -2.3380 c         1 G95      0.639700
      4 C4          2.2570    2.5720   -2.9620 cc        1 G95     -0.354700
      5 C5          2.5180    2.5520   -4.3660 cd        1 G95      0.023000
      6 C9          4.2730    6.4730   -5.1390 ca        1 G95     -0.171300
      7 C10         4.8200    7.7750   -5.2380 ca        1 G95      0.401200
      8 C8          3.8260    5.9880   -3.9010 ca        1 G95     -0.040000
      9 C7          3.2680    4.6780   -3.7670 cc        1 G95      0.138900
     10 C6          3.0870    3.7410   -4.8100 cd        1 G95     -0.196000
     11 S1          2.7350    4.0590   -2.3100 ss        1 G95      0.100200
     12 O1          1.3400    0.3600   -2.8050 o         1 G95     -0.591100
     13 N1         -0.0230   -1.5080   -1.2570 n4        1 G95     -0.842600
     14 C12         4.0120    7.9940   -0.8190 cc        1 G95     -0.023100
     15 C13         3.6350    6.7710   -1.3940 cd        1 G95     -0.246200
     16 C14         3.9480    6.8460   -2.7890 ca        1 G95     -0.164100
     17 C15         1.7420    0.4940    1.3580 ca        1 G95     -0.228300
     18 N2          1.4450    1.5710   -0.8250 n4        1 G95     -0.693800
     19 C16         2.9770    0.0750    1.8670 ca        1 G95     -0.107500
     20 C17         3.2740    0.2790    3.2150 ca        1 G95     -0.104500
     21 C18         2.3480    0.9040    4.0510 ca        1 G95     -0.058000
     22 N3          4.9600    8.6320   -4.2190 nb        1 G95     -0.584000
     23 C19         1.1160    1.3280    3.5400 ca        1 G95     -0.104500
     24 C20         0.8120    1.1250    2.1970 ca        1 G95     -0.107500
     25 C11         4.5290    8.1710   -3.0140 ca        1 G95      0.416800
     26 N4          4.5480    8.8380   -1.7750 na        1 G95     -0.253100
     27 H1         -0.0700   -1.0430    0.8140 hx        1 G95      0.136200
     28 H1A        -0.7980    0.2190   -0.2910 hx        1 G95      0.136200
     29 H2          2.2450   -0.3740   -0.5580 hx        1 G95      0.125700
     30 H5          2.2910    1.6890   -5.0050 ha        1 G95      0.191000
     31 H6          3.3650    3.9290   -5.8540 ha        1 G95      0.202000
     32 HN1        -0.8970   -2.0410   -1.1560 hn        1 G95      0.480467
     33 HN1A        0.7690   -2.1610   -1.2080 hn        1 G95      0.480467
     34 H12         3.9300    8.3160    0.2260 h4        1 G95      0.192000
     35 H13         3.1880    5.9370   -0.8590 ha        1 G95      0.141000
     36 HN2         2.2030    2.1360   -0.4130 hn        1 G95      0.464300
     37 H16         3.7170   -0.4210    1.2180 ha        1 G95      0.138500
     38 H17         4.2450   -0.0570    3.6190 ha        1 G95      0.177000
     39 H18         2.5840    1.0630    5.1190 ha        1 G95      0.181000
     40 H19         0.3850    1.8220    4.2030 ha        1 G95      0.177000
     41 H20        -0.1620    1.4540    1.8050 ha        1 G95      0.138500
     42 HN4         4.8900    9.7580   -1.6320 hn        1 G95      0.339700
     43 H9          4.2080    5.8580   -6.0480 ha        1 G95      0.158000
     44 H131       -0.0090   -1.0600   -2.1880 hn        1 G95      0.480467
     45 H22         0.5650    2.0720   -0.6700 hn        1 G95      0.464300
     46 H10         5.1720    8.1540   -6.2190 h4        1 G95      0.059100
@<TRIPOS>BOND
     1    1    2 1   
     2    1   13 1   
     3    1   27 1   
     4    1   28 1   
     5    2   17 1   
     6    2   18 1   
     7    2   29 1   
     8    3    4 1   
     9    3   12 2   
    10    3   18 1   
    11    4    5 2   
    12    4   11 1   
    13    5   10 1   
    14    5   30 1   
    15    6    7 ar  
    16    6    8 ar  
    17    6   43 1   
    18    7   22 ar  
    19    7   46 1   
    20    8    9 1   
    21    8   16 ar  
    22    9   10 2   
    23    9   11 1   
    24   10   31 1   
    25   13   32 1   
    26   13   33 1   
    27   13   44 1   
    28   14   15 2   
    29   14   26 1   
    30   14   34 1   
    31   15   16 1   
    32   15   35 1   
    33   16   25 ar  
    34   17   19 ar  
    35   17   24 ar  
    36   18   36 1   
    37   18   45 1   
    38   19   20 ar  
    39   19   37 1   
    40   20   21 ar  
    41   20   38 1   
    42   21   23 ar  
    43   21   39 1   
    44   22   25 ar  
    45   23   24 ar  
    46   23   40 1   
    47   24   41 1   
    48   25   26 1   
    49   26   42 1   
@<TRIPOS>SUBSTRUCTURE
     1 G95         1 TEMP              0 ****  ****    0 ROOT
