@<TRIPOS>MOLECULE
G95
   44    47     1     0     0
SMALL
bcc


@<TRIPOS>ATOM
      1 C1         -4.2020    1.0310    1.8260 c3        1 G95      0.153800
      2 C2         -3.6760    0.6790    0.3980 c3        1 G95      0.104000
      3 C3         -1.5380    1.8640    0.0510 c         1 G95      0.705700
      4 C4         -0.0880    1.7600   -0.1740 cc        1 G95     -0.203700
      5 C5          0.6790    2.8450   -0.5760 cd        1 G95     -0.081000
      6 C9          4.5990    0.9960   -1.2690 ca        1 G95     -0.254300
      7 C10         5.8430    0.3180   -1.3240 ca        1 G95      0.413200
      8 C8          3.5520    0.4840   -0.5000 ca        1 G95      0.068000
      9 C7          2.2770    1.1550   -0.4340 cc        1 G95     -0.042100
     10 C6          2.0470    2.4940   -0.7290 cd        1 G95     -0.158000
     11 S1          0.8510    0.3870    0.0150 ss        1 G95      0.068200
     12 O1         -2.1290    2.9650    0.0340 o         1 G95     -0.614100
     13 N1         -3.8030    2.3040    2.3530 n3        1 G95     -0.897800
     14 C12         3.8640   -2.6210    1.4460 cc        1 G95     -0.091100
     15 C13         3.0360   -1.5630    1.0770 cd        1 G95     -0.192200
     16 C14         3.7960   -0.7130    0.1970 ca        1 G95     -0.196100
     17 C15        -4.2470   -0.6530   -0.0130 ca        1 G95     -0.101300
     18 N2         -2.2290    0.6950    0.3170 n         1 G95     -0.570900
     19 C16        -5.1580   -0.7180   -1.0730 ca        1 G95     -0.119500
     20 C17        -5.7070   -1.9430   -1.4490 ca        1 G95     -0.128500
     21 C18        -5.3450   -3.1100   -0.7760 ca        1 G95     -0.123000
     22 N3          6.1350   -0.8190   -0.6860 nb        1 G95     -0.664000
     23 C19        -4.4340   -3.0490    0.2780 ca        1 G95     -0.128500
     24 C20        -3.8860   -1.8250    0.6600 ca        1 G95     -0.119500
     25 C11         5.1140   -1.3250    0.0680 ca        1 G95      0.424800
     26 N4          5.1160   -2.4950    0.8450 na        1 G95     -0.286100
     27 H1         -5.3260    1.0110    1.7640 h1        1 G95      0.055200
     28 H1A        -3.8770    0.2260    2.5420 h1        1 G95      0.055200
     29 H2         -4.0630    1.4820   -0.3060 h1        1 G95      0.074700
     30 H5          0.2750    3.8480   -0.7500 ha        1 G95      0.178000
     31 H10         6.6640    0.7350   -1.9370 h4        1 G95      0.025100
     32 H6          2.8180    3.2060   -1.0340 ha        1 G95      0.162000
     33 HN1        -2.8140    2.3340    2.5140 hn        1 G95      0.356300
     34 HN1A       -4.0320    3.0430    1.7130 hn        1 G95      0.356300
     35 H12         3.6520   -3.4690    2.1020 h4        1 G95      0.171000
     36 H13         2.0110   -1.3990    1.4000 ha        1 G95      0.160000
     37 HN2        -1.7680   -0.1790    0.2390 hn        1 G95      0.310500
     38 H16        -5.4440    0.1990   -1.6100 ha        1 G95      0.135500
     39 H17        -6.4260   -1.9880   -2.2810 ha        1 G95      0.134500
     40 H18        -5.7780   -4.0750   -1.0750 ha        1 G95      0.134000
     41 H19        -4.1490   -3.9670    0.8120 ha        1 G95      0.134500
     42 H20        -3.1770   -1.7820    1.5000 ha        1 G95      0.135500
     43 HN4         5.8820   -3.1070    0.9490 hn        1 G95      0.312700
     44 H9          4.4700    1.9230   -1.8440 ha        1 G95      0.146000
@<TRIPOS>BOND
     1    1    2 1   
     2    1   13 1   
     3    1   27 1   
     4    1   28 1   
     5    2   17 1   
     6    2   18 1   
     7    2   29 1   
     8    3    4 1   
     9    3   12 2   
    10    3   18 1   
    11    4    5 2   
    12    4   11 1   
    13    5   10 1   
    14    5   30 1   
    15    6    7 ar  
    16    6    8 ar  
    17    6   44 1   
    18    7   22 ar  
    19    7   31 1   
    20    8    9 1   
    21    8   16 ar  
    22    9   10 2   
    23    9   11 1   
    24   10   32 1   
    25   13   33 1   
    26   13   34 1   
    27   14   15 2   
    28   14   26 1   
    29   14   35 1   
    30   15   16 1   
    31   15   36 1   
    32   16   25 ar  
    33   17   19 ar  
    34   17   24 ar  
    35   18   37 1   
    36   19   20 ar  
    37   19   38 1   
    38   20   21 ar  
    39   20   39 1   
    40   21   23 ar  
    41   21   40 1   
    42   22   25 ar  
    43   23   24 ar  
    44   23   41 1   
    45   24   42 1   
    46   25   26 1   
    47   26   43 1   
@<TRIPOS>SUBSTRUCTURE
     1 G95         1 TEMP              0 ****  ****    0 ROOT
