@<TRIPOS>MOLECULE
G96
   63    65     1     0     0
SMALL
bcc


@<TRIPOS>ATOM
      1 N1          0.0410    0.9150   -0.0810 nc        1 G96     -0.269300
      2 N3          3.2730    0.8140    1.6210 n4        1 G96     -0.774300
      3 C4          7.1040    0.0660  -13.1580 ca        1 G96     -0.096000
      4 C5          6.9330    1.1310  -12.2730 ca        1 G96     -0.112500
      5 C6          7.0480    0.9250  -10.8980 ca        1 G96     -0.135500
      6 C7          5.8890   -0.3980   -7.0430 c2        1 G96      0.125100
      7 C8          1.8950    0.9100    1.2090 cd        1 G96      0.255900
      8 C10         4.4680   -0.3940   -5.1280 ca        1 G96      0.622600
      9 C15         2.8960    0.0560   -3.4230 ca        1 G96     -0.014200
     10 C17         7.2300   -0.0970   -1.1890 c1        1 G96     -0.019100
     11 C20         9.5320    0.4800   -0.5670 c3        1 G96     -0.109100
     12 C22        -0.4010   -0.9080   -3.0070 c3        1 G96     -0.122100
     13 C24         7.5020   -0.5700   -8.9370 c3        1 G96      0.011100
     14 O3          7.6260    0.7750    0.9420 oh        1 G96     -0.614800
     15 C18         8.1840   -0.0520   -0.0870 c3        1 G96      0.222900
     16 C19         8.3460   -1.4470    0.5220 c3        1 G96     -0.109100
     17 C12         5.3410   -0.1600   -2.9850 ca        1 G96      0.679300
     18 N4          5.5520   -0.3900   -4.2910 nb        1 G96     -0.699000
     19 C14         4.0150    0.0670   -2.4910 ca        1 G96     -0.044900
     20 N6          3.5480    0.3210   -1.2080 nc        1 G96     -0.583100
     21 C16         2.1970    0.4630   -1.3370 cd        1 G96      0.323800
     22 N5          1.7510    0.3230   -2.6710 na        1 G96     -0.085300
     23 C9          1.3720    0.7450   -0.1810 cd        1 G96      0.275700
     24 O2         -0.2360    1.1570    1.2050 os        1 G96      0.211600
     25 N2          0.8100    1.1630    1.9950 nc        1 G96     -0.220300
     26 C11         3.1260   -0.1750   -4.7910 ca        1 G96     -0.221300
     27 C23         6.2100   -0.9230   -8.2540 c2        1 G96     -0.144200
     28 N7          5.3410   -1.8550   -8.9660 n4        1 G96     -0.699400
     29 C1          7.3340   -0.3510  -10.4000 ca        1 G96     -0.160300
     30 C3          7.3950   -1.2080  -12.6660 ca        1 G96     -0.112500
     31 C2          7.5100   -1.4170  -11.2930 ca        1 G96     -0.135500
     32 HN3         3.8290    1.5200    1.1080 hn        1 G96      0.496133
     33 HN3A        3.3710    0.9690    2.6360 hn        1 G96      0.496133
     34 H4          7.0240    0.2330  -14.2450 ha        1 G96      0.163000
     35 H5          6.7200    2.1410  -12.6600 ha        1 G96      0.158500
     36 H6          6.9330    1.7750  -10.2070 ha        1 G96      0.135500
     37 H7          8.6920    2.0930   -6.8080 ha        1 G96      0.001500
     38 H7A         6.5650    0.2970   -6.5100 h4        1 G96      0.218000
     39 H20         9.4180    1.4930   -1.0230 hc        1 G96      0.062700
     40 H20A       10.2320    0.5490    0.3010 hc        1 G96      0.062700
     41 H20B        9.9670   -0.2110   -1.3270 hc        1 G96      0.062700
     42 H21         0.4780    0.6120   -4.2840 h1        1 G96      0.086700
     43 H21A       -0.1370    1.2300   -2.6830 h1        1 G96      0.086700
     44 H22        -1.4170   -0.7420   -3.4460 hc        1 G96      0.066033
     45 H22A        0.0790   -1.7660   -3.5360 hc        1 G96      0.066033
     46 H22B       -0.5240   -1.1770   -1.9310 hc        1 G96      0.066033
     47 H24         7.9170    0.3600   -8.4550 hc        1 G96      0.092200
     48 H24A        8.2440   -1.3970   -8.7530 hc        1 G96      0.092200
     49 HO3         8.0270    1.6510    0.8650 ho        1 G96      0.420000
     50 H19         8.7230   -2.1550   -0.2520 hc        1 G96      0.062700
     51 H19A        9.0770   -1.3940    1.3650 hc        1 G96      0.062700
     52 H19B        7.3710   -1.8130    0.9180 hc        1 G96      0.062700
     53 H11         2.3260   -0.1930   -5.5420 ha        1 G96      0.182000
     54 H23         8.0910    1.7840   -6.7630 ha        1 G96      0.001500
     55 HN7         5.6270   -2.8170   -8.7520 hn        1 G96      0.466467
     56 HN7A        4.3640   -1.7220   -8.6880 hn        1 G96      0.466467
     57 H3          7.5510   -2.0450  -13.3660 ha        1 G96      0.158500
     58 H2          7.7900   -2.4130  -10.9170 ha        1 G96      0.135500
     59 C13         6.3960   -0.1330   -2.0490 cg        1 G96     -0.275000
     60 C21         0.3990    0.3720   -3.1820 c3        1 G96      0.026300
     61 H33         3.6330   -0.1250    1.3790 hn        1 G96      0.496133
     62 H73         5.4410   -1.6930   -9.9830 hn        1 G96      0.466467
     63 O1          4.6730   -0.7250   -6.4800 os        1 G96     -0.396400
@<TRIPOS>BOND
     1    1   23 2   
     2    1   24 1   
     3    2    7 1   
     4    2   32 1   
     5    2   33 1   
     6    2   61 1   
     7    3    4 ar  
     8    3   30 ar  
     9    3   34 1   
    10    4    5 ar  
    11    4   35 1   
    12    5   29 ar  
    13    5   36 1   
    14    6   27 2   
    15    6   38 1   
    16    6   63 1   
    17    7   23 1   
    18    7   25 2   
    19    8   18 ar  
    20    8   26 ar  
    21    8   63 1   
    22    9   19 ar  
    23    9   22 1   
    24    9   26 ar  
    25   10   15 1   
    26   10   59 3   
    27   11   15 1   
    28   11   39 1   
    29   11   40 1   
    30   11   41 1   
    31   12   44 1   
    32   12   45 1   
    33   12   46 1   
    34   12   60 1   
    35   13   27 1   
    36   13   29 1   
    37   13   47 1   
    38   13   48 1   
    39   14   15 1   
    40   14   49 1   
    41   15   16 1   
    42   16   50 1   
    43   16   51 1   
    44   16   52 1   
    45   17   18 ar  
    46   17   19 ar  
    47   17   59 1   
    48   19   20 1   
    49   20   21 2   
    50   21   22 1   
    51   21   23 1   
    52   22   60 1   
    53   24   25 1   
    54   26   53 1   
    55   27   28 1   
    56   28   55 1   
    57   28   56 1   
    58   28   62 1   
    59   29   31 ar  
    60   30   31 ar  
    61   30   57 1   
    62   31   58 1   
    63   37   54 1   
    64   42   60 1   
    65   43   60 1   
@<TRIPOS>SUBSTRUCTURE
     1 G96         1 TEMP              0 ****  ****    0 ROOT
