@<TRIPOS>MOLECULE
G96
   62    65     1     0     0
SMALL
bcc


@<TRIPOS>ATOM
      1 N1         -0.0090   -0.4580   -0.0160 nc        1 G96     -0.307300
      2 N3          2.6610    1.2660    1.6710 nv        1 G96     -0.912500
      3 C4          7.4050    0.2030  -13.2660 ca        1 G96     -0.100000
      4 C5          7.0190    1.3940  -12.6510 ca        1 G96     -0.112500
      5 C6          6.9950    1.4880  -11.2590 ca        1 G96     -0.136000
      6 C7          6.0600    0.1440   -6.8670 c3        1 G96      0.119400
      7 C8          1.5370    0.5800    1.2980 cd        1 G96      0.504900
      8 C10         4.5080   -0.1050   -5.0460 ca        1 G96      0.610600
      9 C15         2.9030   -0.0520   -3.3150 ca        1 G96     -0.023200
     10 C17         7.3560   -0.0700   -1.2110 c1        1 G96     -0.061100
     11 C20         8.0690   -0.7030    1.0420 c3        1 G96     -0.103100
     12 C22        -0.2170   -1.3740   -3.3040 c3        1 G96     -0.119100
     13 C24         7.3570    0.4900   -8.9910 c3        1 G96     -0.056100
     14 O3          9.5950   -0.7410   -0.8460 oh        1 G96     -0.582800
     15 C18         8.4770   -0.0540   -0.2810 c3        1 G96      0.226900
     16 C19         8.9530    1.3820   -0.0510 c3        1 G96     -0.103100
     17 C12         5.3420   -0.0770   -2.8710 ca        1 G96      0.653300
     18 N4          5.5760   -0.1060   -4.2020 nb        1 G96     -0.731000
     19 C14         4.0120   -0.0510   -2.3680 ca        1 G96     -0.041900
     20 N6          3.5100   -0.0200   -1.0630 nc        1 G96     -0.542100
     21 C16         2.1600   -0.0020   -1.1940 cd        1 G96      0.403800
     22 N5          1.7360   -0.0080   -2.5530 na        1 G96     -0.130300
     23 C9          1.2450    0.0270   -0.0700 cd        1 G96      0.158700
     24 O2         -0.4720   -0.2490    1.2000 os        1 G96      0.146600
     25 N2          0.3990    0.3500    2.0220 nc        1 G96     -0.419300
     26 C11         3.1480   -0.0730   -4.6940 ca        1 G96     -0.244300
     27 C23         5.9850    0.1410   -8.4040 c3        1 G96      0.115500
     28 N7          5.4960   -1.1880   -8.9130 nz        1 G96     -0.837600
     29 C1          7.3550    0.3870  -10.4750 ca        1 G96     -0.156300
     30 C3          7.7720   -0.8960  -12.4870 ca        1 G96     -0.112500
     31 C2          7.7480   -0.8060  -11.0970 ca        1 G96     -0.136000
     32 HN3         3.4960    1.0550    1.1730 hn        1 G96      0.441300
     33 HN3A        2.7670    1.4590    2.6420 hn        1 G96      0.441300
     34 H4          7.4330    0.1320  -14.3650 ha        1 G96      0.159000
     35 H5          6.7430    2.2670  -13.2640 ha        1 G96      0.156000
     36 H6          6.7080    2.4370  -10.7800 ha        1 G96      0.135000
     37 H7          6.3550    1.1690   -6.5190 h1        1 G96      0.094700
     38 H7A         6.7960   -0.6130   -6.4870 h1        1 G96      0.094700
     39 H20         7.7020   -1.7430    0.8730 hc        1 G96      0.055533
     40 H20A        8.9540   -0.7380    1.7200 hc        1 G96      0.055533
     41 H20B        7.2600   -0.1080    1.5260 hc        1 G96      0.055533
     42 H21         0.4360    0.5470   -4.0710 h1        1 G96      0.073200
     43 H21A       -0.2560    0.5980   -2.3850 h1        1 G96      0.073200
     44 H22        -1.2510   -1.2320   -3.7050 hc        1 G96      0.057367
     45 H22A        0.3750   -1.9690   -4.0390 hc        1 G96      0.057367
     46 H22B       -0.2860   -1.9510   -2.3510 hc        1 G96      0.057367
     47 H24         7.5950    1.5430   -8.6730 hc        1 G96      0.094700
     48 H24A        8.1470   -0.1760   -8.5500 hc        1 G96      0.094700
     49 HO3         9.3710   -1.6790   -0.8760 ho        1 G96      0.407000
     50 H19         8.1180    1.9920    0.3640 hc        1 G96      0.055533
     51 H19A        9.8050    1.3740    0.6700 hc        1 G96      0.055533
     52 H19B        9.3020    1.8290   -1.0120 hc        1 G96      0.055533
     53 H11         2.3530   -0.0690   -5.4460 ha        1 G96      0.163000
     54 H23         5.2200    0.9030   -8.7420 hx        1 G96      0.119700
     55 HN7         6.1070   -1.9350   -8.5740 hn        1 G96      0.463133
     56 HN7A        4.5460   -1.3500   -8.5630 hn        1 G96      0.463133
     57 H3          8.0970   -1.8310  -12.9720 ha        1 G96      0.156000
     58 H2          8.0860   -1.6600  -10.4900 ha        1 G96      0.135000
     59 C13         6.4350   -0.0740   -1.9760 cg        1 G96     -0.242000
     60 C21         0.3970   -0.0010   -3.0830 c3        1 G96      0.040300
     61 H73         5.5100   -1.1850   -9.9410 hn        1 G96      0.463133
     62 O1          4.7380   -0.1790   -6.4250 os        1 G96     -0.505100
@<TRIPOS>BOND
     1    1   23 2   
     2    1   24 1   
     3    2    7 1   
     4    2   32 1   
     5    2   33 1   
     6    3    4 ar  
     7    3   30 ar  
     8    3   34 1   
     9    4    5 ar  
    10    4   35 1   
    11    5   29 ar  
    12    5   36 1   
    13    6   27 1   
    14    6   37 1   
    15    6   38 1   
    16    6   62 1   
    17    7   23 1   
    18    7   25 2   
    19    8   18 ar  
    20    8   26 ar  
    21    8   62 1   
    22    9   19 ar  
    23    9   22 1   
    24    9   26 ar  
    25   10   15 1   
    26   10   59 3   
    27   11   15 1   
    28   11   39 1   
    29   11   40 1   
    30   11   41 1   
    31   12   44 1   
    32   12   45 1   
    33   12   46 1   
    34   12   60 1   
    35   13   27 1   
    36   13   29 1   
    37   13   47 1   
    38   13   48 1   
    39   14   15 1   
    40   14   49 1   
    41   15   16 1   
    42   16   50 1   
    43   16   51 1   
    44   16   52 1   
    45   17   18 ar  
    46   17   19 ar  
    47   17   59 1   
    48   19   20 1   
    49   20   21 2   
    50   21   22 1   
    51   21   23 1   
    52   22   60 1   
    53   24   25 1   
    54   26   53 1   
    55   27   28 1   
    56   27   54 1   
    57   28   55 1   
    58   28   56 1   
    59   28   61 1   
    60   29   31 ar  
    61   30   31 ar  
    62   30   57 1   
    63   31   58 1   
    64   42   60 1   
    65   43   60 1   
@<TRIPOS>SUBSTRUCTURE
     1 G96         1 TEMP              0 ****  ****    0 ROOT
