@<TRIPOS>MOLECULE
G96
   61    64     1     0     0
SMALL
bcc


@<TRIPOS>ATOM
      1 N1          5.5130    2.6830   -1.0390 nc        1 G96     -0.319300
      2 N3          6.1560   -0.6680    0.1010 nh        1 G96     -0.914500
      3 C4         -9.4880    1.2360   -0.4390 ca        1 G96     -0.130000
      4 C5         -8.7260    0.6990   -1.4760 ca        1 G96     -0.132000
      5 C6         -7.4630    0.1690   -1.2140 ca        1 G96     -0.116500
      6 C7         -3.1600   -0.0670    0.2970 c3        1 G96      0.092400
      7 C8          6.1870    0.5980   -0.4180 cd        1 G96      0.500900
      8 C10        -0.8510    0.5910    0.0750 ca        1 G96      0.648600
      9 C15         1.3850    1.3410   -0.1880 ca        1 G96     -0.010200
     10 C17         1.4820   -3.5760   -0.2160 c1        1 G96     -0.107100
     11 C20         2.3480   -5.4310    1.1140 c3        1 G96     -0.100600
     12 C22         3.1360    4.0680    1.0680 c3        1 G96     -0.118100
     13 C24        -5.6120   -0.4120    0.3680 c3        1 G96     -0.030100
     14 O3          0.8030   -5.7950   -0.7130 oh        1 G96     -0.586800
     15 C18         1.8840   -4.9710   -0.2700 c3        1 G96      0.234900
     16 C19         2.9960   -5.1710   -1.3020 c3        1 G96     -0.100600
     17 C12         0.7890   -1.0580   -0.1210 ca        1 G96      0.636300
     18 N4         -0.5110   -0.7320    0.0340 nb        1 G96     -0.724000
     19 C14         1.7910   -0.0570   -0.2350 ca        1 G96     -0.064900
     20 N6          3.1780   -0.1350   -0.4010 nc        1 G96     -0.548100
     21 C16         3.6110    1.1480   -0.4530 cd        1 G96      0.375800
     22 N5          2.5510    2.0940   -0.3500 na        1 G96     -0.138300
     23 C9          5.0050    1.5080   -0.6300 cd        1 G96      0.183700
     24 O2          6.8280    2.5640   -1.0900 os        1 G96      0.130600
     25 N2          7.2800    1.3530   -0.7420 nc        1 G96     -0.435300
     26 C11         0.0410    1.6820   -0.0310 ca        1 G96     -0.270300
     27 C23        -4.5160    0.6680    0.4380 c3        1 G96      0.165500
     28 N7         -4.6340    1.5070    1.6110 n3        1 G96     -0.895800
     29 C1         -6.9520    0.1710    0.0900 ca        1 G96     -0.076300
     30 C3         -8.9830    1.2430    0.8620 ca        1 G96     -0.132000
     31 C2         -7.7210    0.7120    1.1260 ca        1 G96     -0.116500
     32 HN3         5.2990   -1.1660    0.0140 hn        1 G96      0.440800
     33 HN3A        6.9880   -1.2080    0.0150 hn        1 G96      0.440800
     34 H4        -10.4830    1.6550   -0.6460 ha        1 G96      0.129000
     35 H5         -9.1200    0.6930   -2.5020 ha        1 G96      0.129500
     36 H6         -6.8670   -0.2540   -2.0360 ha        1 G96      0.132500
     37 H7         -3.1340   -0.6650   -0.6480 h1        1 G96      0.057200
     38 H7A        -2.9610   -0.7310    1.1770 h1        1 G96      0.057200
     39 H20         1.5360   -5.2870    1.8650 hc        1 G96      0.050867
     40 H20A        2.6110   -6.5150    1.0710 hc        1 G96      0.050867
     41 H20B        3.2440   -4.8470    1.4310 hc        1 G96      0.050867
     42 H21         1.5790    3.9210   -0.4330 h1        1 G96      0.073700
     43 H21A        3.2730    3.9080   -1.0990 h1        1 G96      0.073700
     44 H22         3.1490    5.1830    1.0090 hc        1 G96      0.052700
     45 H22A        2.4750    3.7610    1.9130 hc        1 G96      0.052700
     46 H22B        4.1720    3.7110    1.2800 hc        1 G96      0.052700
     47 H24        -5.3400   -1.1340   -0.4480 hc        1 G96      0.050700
     48 H24A       -5.6410   -0.9890    1.3300 hc        1 G96      0.050700
     49 HO3         0.0740   -5.6680   -0.0940 ho        1 G96      0.407000
     50 H19         3.8820   -4.5570   -1.0190 hc        1 G96      0.050867
     51 H19A        3.2810   -6.2500   -1.3310 hc        1 G96      0.050867
     52 H19B        2.6380   -4.8670   -2.3130 hc        1 G96      0.050867
     53 H11        -0.3260    2.7130    0.0080 ha        1 G96      0.167000
     54 H23        -4.6270    1.3490   -0.4590 h1        1 G96      0.078700
     55 HN7        -4.5450    0.9640    2.4480 hn        1 G96      0.352300
     56 HN7A       -3.9190    2.2090    1.5990 hn        1 G96      0.352300
     57 H3         -9.5800    1.6700    1.6810 ha        1 G96      0.129500
     58 H2         -7.3200    0.7300    2.1510 ha        1 G96      0.132500
     59 O1         -2.1680    0.9720    0.2390 os        1 G96     -0.457100
     60 C13         1.1600   -2.4230   -0.1730 cg        1 G96     -0.203000
     61 C21         2.6240    3.5270   -0.2590 c3        1 G96      0.039300
@<TRIPOS>BOND
     1    1   23 2   
     2    1   24 1   
     3    2    7 1   
     4    2   32 1   
     5    2   33 1   
     6    3    4 ar  
     7    3   30 ar  
     8    3   34 1   
     9    4    5 ar  
    10    4   35 1   
    11    5   29 ar  
    12    5   36 1   
    13    6   27 1   
    14    6   37 1   
    15    6   38 1   
    16    6   59 1   
    17    7   23 1   
    18    7   25 2   
    19    8   18 ar  
    20    8   26 ar  
    21    8   59 1   
    22    9   19 ar  
    23    9   22 1   
    24    9   26 ar  
    25   10   15 1   
    26   10   60 3   
    27   11   15 1   
    28   11   39 1   
    29   11   40 1   
    30   11   41 1   
    31   12   44 1   
    32   12   45 1   
    33   12   46 1   
    34   12   61 1   
    35   13   27 1   
    36   13   29 1   
    37   13   47 1   
    38   13   48 1   
    39   14   15 1   
    40   14   49 1   
    41   15   16 1   
    42   16   50 1   
    43   16   51 1   
    44   16   52 1   
    45   17   18 ar  
    46   17   19 ar  
    47   17   60 1   
    48   19   20 1   
    49   20   21 2   
    50   21   22 1   
    51   21   23 1   
    52   22   61 1   
    53   24   25 1   
    54   26   53 1   
    55   27   28 1   
    56   27   54 1   
    57   28   55 1   
    58   28   56 1   
    59   29   31 ar  
    60   30   31 ar  
    61   30   57 1   
    62   31   58 1   
    63   42   61 1   
    64   43   61 1   
@<TRIPOS>SUBSTRUCTURE
     1 G96         1 TEMP              0 ****  ****    0 ROOT
