@<TRIPOS>MOLECULE
G96
   61    56     1     0     0
SMALL
bcc


@<TRIPOS>ATOM
      1 N1         -4.3150    1.8410    2.7280 n2        1 G96      0.016000
      2 N3         -7.3740    1.7870    0.8690 nh        1 G96     -0.311000
      3 C4          7.6180   -0.7620   -3.1520 c1        1 G96     -0.129500
      4 C5          6.9900    0.3900   -3.6220 c1        1 G96     -0.129500
      5 C6          6.2280    1.1690   -2.7540 c1        1 G96     -0.132000
      6 C7          2.8500    1.2730   -0.4870 c3        1 G96     -0.058000
      7 C8         -6.0340    1.6630    1.3450 c2        1 G96      0.049000
      8 C10         0.5390    0.4520   -0.4140 c1        1 G96      0.143000
      9 C13        -1.6250   -2.2450    0.9890 c1        1 G96     -0.093000
     10 C15        -1.7040    1.3210   -0.3300 c1        1 G96      0.035000
     11 C17        -1.9650   -3.3570    1.2900 c1        1 G96     -0.093000
     12 C20        -3.2700   -4.7350    2.9200 c3        1 G96     -0.239500
     13 C21        -2.7730    3.5690   -0.8060 c3        1 G96     -0.015000
     14 C22        -3.6600    3.6190   -2.0740 c3        1 G96     -0.236000
     15 C24         5.3080    1.7120   -0.4130 c3        1 G96     -0.124000
     16 O3         -1.2590   -5.5710    1.9390 oh        1 G96     -0.317000
     17 C18        -2.4000   -4.7890    1.6760 c2        1 G96      0.191000
     18 C19        -3.1740   -5.4010    0.5410 c3        1 G96     -0.239500
     19 C12        -1.1880   -0.8190    0.6030 c1        1 G96      0.204000
     20 N4          0.1230   -0.6800    0.2370 n2        1 G96     -0.216000
     21 C14        -2.1140    0.2040    0.3120 c1        1 G96     -0.138000
     22 N6         -3.3800    0.4090    0.7320 n1        1 G96     -0.113000
     23 C16        -3.7590    1.6750    0.3420 c2        1 G96      0.079000
     24 N5         -2.7350    2.2300   -0.3050 n2        1 G96     -0.166000
     25 C9         -4.6520    1.7340    1.4250 c2        1 G96     -0.111000
     26 O2         -5.4800    1.8370    3.4720 os        1 G96     -0.016000
     27 N2         -6.5320    1.7270    2.6060 n2        1 G96     -0.105000
     28 C11        -0.3650    1.4580   -0.7020 c1        1 G96     -0.203000
     29 O1          1.9550    0.1090   -0.4370 os        1 G96     -0.205000
     30 C23         4.1910    0.9270    0.2160 c3        1 G96     -0.048000
     31 N7          4.0980    1.2540    1.5940 n3        1 G96     -0.333000
     32 C1          6.0950    0.7940   -1.4120 c2        1 G96     -0.077000
     33 C3          7.4840   -1.1360   -1.8120 c1        1 G96     -0.127000
     34 C2          6.7260   -0.3600   -0.9470 c2        1 G96     -0.125000
     35 HN3        -8.0250    1.2480    1.2040 hn        1 G96      0.239000
     36 HN3A       -7.5560    2.3330    0.1620 hn        1 G96      0.239000
     37 H4          8.1570   -1.3130   -3.7650 ha        1 G96      0.131000
     38 H5          7.0850    0.6550   -4.5730 ha        1 G96      0.131000
     39 H6          5.7740    2.0000   -3.0900 ha        1 G96      0.130000
     40 H7          2.4220    2.0400   -0.0220 h1        1 G96      0.111500
     41 H7A         3.0240    1.5150   -1.4290 h1        1 G96      0.111500
     42 H20        -4.0300   -5.3760    2.8250 hc        1 G96      0.090667
     43 H20A       -2.7220   -4.9830    3.7160 hc        1 G96      0.090667
     44 H20B       -3.6240   -3.8210    3.0360 hc        1 G96      0.090667
     45 H21        -1.8650    3.8590   -1.0310 h1        1 G96      0.109000
     46 H21A       -3.1540    4.1760   -0.1090 h1        1 G96      0.109000
     47 H22        -4.5700    3.5280   -1.8260 hc        1 G96      0.093333
     48 H22A       -3.5330    4.4570   -2.5200 hc        1 G96      0.093333
     49 H22B       -3.4100    2.8870   -2.6770 hc        1 G96      0.093333
     50 H24         4.9500    2.4510   -0.8790 hc        1 G96      0.099500
     51 H24A        5.9270    2.0370    0.2980 hc        1 G96      0.099500
     52 HO3        -1.5040   -6.3300    2.3510 ho        1 G96      0.203000
     53 H19        -3.3350   -6.3390    0.7280 hc        1 G96      0.090667
     54 H19A       -4.0550   -4.9220    0.4370 hc        1 G96      0.090667
     55 H19B       -2.6510   -5.3170   -0.2930 hc        1 G96      0.090667
     56 H11        -0.0720    2.2500   -1.1580 ha        1 G96      0.168000
     57 H23         4.3700   -0.0210    0.1210 h1        1 G96      0.110000
     58 HN7         3.3390    1.7550    1.7390 hn        1 G96      0.151000
     59 HN7A        4.0540    0.4820    2.0900 hn        1 G96      0.151000
     60 H3          7.9210   -1.9350   -1.4870 ha        1 G96      0.132000
     61 H2          6.6350   -0.6200   -0.0210 ha        1 G96      0.137000
@<TRIPOS>BOND
     1    1   25 1   
     2    1   26 1   
     3    2    7 1   
     4    2   35 1   
     5    2   36 1   
     6    3    4 1   
     7    3   37 1   
     8    4   38 1   
     9    5   32 1   
    10    5   39 1   
    11    6   29 1   
    12    6   30 1   
    13    6   40 1   
    14    6   41 1   
    15    7   25 1   
    16    7   27 1   
    17    8   20 1   
    18    8   29 1   
    19    9   11 1   
    20   10   28 1   
    21   12   17 1   
    22   12   42 1   
    23   12   43 1   
    24   12   44 1   
    25   13   14 1   
    26   13   24 1   
    27   13   45 1   
    28   13   46 1   
    29   14   47 1   
    30   14   48 1   
    31   14   49 1   
    32   15   30 1   
    33   15   32 1   
    34   15   50 1   
    35   15   51 1   
    36   16   17 1   
    37   16   52 1   
    38   17   18 1   
    39   18   53 1   
    40   18   54 1   
    41   18   55 1   
    42   19   20 1   
    43   19   21 1   
    44   22   23 1   
    45   23   24 1   
    46   23   25 1   
    47   26   27 1   
    48   28   56 1   
    49   30   31 1   
    50   30   57 1   
    51   31   58 1   
    52   31   59 1   
    53   32   34 1   
    54   33   34 1   
    55   33   60 1   
    56   34   61 1   
@<TRIPOS>SUBSTRUCTURE
     1 G96         1 TEMP              0 ****  ****    0 ROOT
