@<TRIPOS>MOLECULE
G97
   43    46     1     0     0
SMALL
bcc


@<TRIPOS>ATOM
      1 CAH         3.6620   -1.9140   -0.8840 ca        1 G97     -0.088000
      2 CAE         4.6990   -2.8440   -0.9400 ca        1 G97     -0.144000
      3 CAD         4.6130   -4.0370   -0.2240 ca        1 G97     -0.117000
      4 CAF         3.4850   -4.3030    0.5510 ca        1 G97     -0.144000
      5 CAI         2.4410   -3.3810    0.6110 ca        1 G97     -0.088000
      6 CAW         2.5290   -2.1820   -0.1070 cp        1 G97     -0.137500
      7 C2          1.4130   -1.1970   -0.0440 cp        1 G97      0.742500
      8 N1          1.7910    0.1370    0.0500 nb        1 G97     -0.761000
      9 N3          0.1560   -1.6670   -0.0910 nb        1 G97     -0.720000
     10 C4         -0.8630   -0.7350   -0.0260 ca        1 G97      0.467600
     11 CAM        -2.2130   -1.1840   -0.0780 ca        1 G97     -0.259300
     12 CAU        -3.2760   -0.2800   -0.0040 ca        1 G97      0.109600
     13 NAQ        -4.5820   -0.7830   -0.0590 n         1 G97     -0.469100
     14 CAT        -5.7780   -0.0700   -0.0620 c         1 G97      0.670300
     15 OAB        -5.8210    1.1740   -0.0060 o         1 G97     -0.590100
     16 CAC        -7.0210   -0.8880   -0.1370 ce        1 G97     -0.247200
     17 CAA        -8.2190   -0.3030   -0.1650 c2        1 G97     -0.121000
     18 CAK        -2.9900    1.1130    0.1320 ca        1 G97     -0.162000
     19 CAL        -1.6900    1.5560    0.1780 ca        1 G97     -0.069000
     20 C5         -0.6000    0.6640    0.0930 ca        1 G97     -0.311600
     21 C6          0.8090    1.0560    0.1250 ca        1 G97      0.701200
     22 NAR         1.1140    2.4160    0.3100 nh        1 G97     -0.790600
     23 CAV         2.4350    2.8860    0.2100 cc        1 G97      0.504200
     24 CAJ         3.5820    2.3850    0.9570 cc        1 G97     -0.250300
     25 CAG         4.6370    3.2260    0.5860 cd        1 G97     -0.150300
     26 NAS         4.1140    4.1530   -0.3190 na        1 G97     -0.014600
     27 NAN         2.8210    3.9690   -0.5630 nd        1 G97     -0.553800
     28 HAH         3.7390   -0.9730   -1.4500 ha        1 G97      0.148000
     29 HAE         5.5880   -2.6320   -1.5520 ha        1 G97      0.132000
     30 HAD         5.4340   -4.7680   -0.2700 ha        1 G97      0.130000
     31 HAF         3.4150   -5.2440    1.1170 ha        1 G97      0.132000
     32 HAI         1.5510   -3.6000    1.2210 ha        1 G97      0.148000
     33 HAM        -2.3920   -2.2670   -0.1770 ha        1 G97      0.151000
     34 HNAQ       -4.6510   -1.7760   -0.1250 hn        1 G97      0.319500
     35 HAC        -6.9120   -1.9840   -0.1680 ha        1 G97      0.134000
     36 HAA        -8.3380    0.7910   -0.1340 ha        1 G97      0.133000
     37 HAAA       -9.1490   -0.8850   -0.2190 ha        1 G97      0.133000
     38 HAK        -3.8140    1.8430    0.2020 ha        1 G97      0.180000
     39 HAL        -1.5230    2.6390    0.2980 ha        1 G97      0.136000
     40 HNAR        0.4260    3.0380   -0.0680 hn        1 G97      0.434800
     41 HAJ         3.5980    1.5350    1.6290 ha        1 G97      0.184000
     42 HAG         5.6830    3.2360    0.8860 h4        1 G97      0.177000
     43 HNAS        4.5940    4.9010   -0.7590 hn        1 G97      0.322700
@<TRIPOS>BOND
     1    1    2 ar  
     2    1    6 ar  
     3    1   28 1   
     4    2    3 ar  
     5    2   29 1   
     6    3    4 ar  
     7    3   30 1   
     8    4    5 ar  
     9    4   31 1   
    10    5    6 ar  
    11    5   32 1   
    12    6    7 1   
    13    7    8 ar  
    14    7    9 ar  
    15    8   21 ar  
    16    9   10 ar  
    17   10   11 ar  
    18   10   20 ar  
    19   11   12 ar  
    20   11   33 1   
    21   12   13 1   
    22   12   18 ar  
    23   13   14 1   
    24   13   34 1   
    25   14   15 2   
    26   14   16 1   
    27   16   17 2   
    28   16   35 1   
    29   17   36 1   
    30   17   37 1   
    31   18   19 ar  
    32   18   38 1   
    33   19   20 ar  
    34   19   39 1   
    35   20   21 ar  
    36   21   22 1   
    37   22   23 1   
    38   22   40 1   
    39   23   24 1   
    40   23   27 2   
    41   24   25 2   
    42   24   41 1   
    43   25   26 1   
    44   25   42 1   
    45   26   27 1   
    46   26   43 1   
@<TRIPOS>SUBSTRUCTURE
     1 G97         1 TEMP              0 ****  ****    0 ROOT
