@<TRIPOS>MOLECULE
G97
   43    33     1     0     0
SMALL
bcc


@<TRIPOS>ATOM
      1 CAH         3.5090   -1.6130   -0.2770 c1        1 G97     -0.086000
      2 CAE         4.8920   -1.6970   -0.2350 c1        1 G97     -0.121000
      3 CAD         5.5580   -1.5660    0.9730 c1        1 G97     -0.121000
      4 CAF         4.8410   -1.3500    2.1400 c1        1 G97     -0.121000
      5 CAI         3.4590   -1.2650    2.0980 c1        1 G97     -0.121000
      6 CAW         2.7920   -1.3970    0.8900 c1        1 G97     -0.030000
      7 C2          1.4150   -1.2500    0.8390 c1        1 G97      0.097000
      8 N1          0.2560   -1.9470    1.0560 n1        1 G97     -0.228000
      9 N3          1.3640    0.0620    0.4610 n1        1 G97     -0.165000
     10 C4          0.1600    0.6800    0.2990 c1        1 G97      0.060000
     11 CAM         0.1060    2.0330   -0.1040 c2        1 G97     -0.157000
     12 CAU        -1.1190    2.6550   -0.2800 c1        1 G97      0.100000
     13 NAQ        -1.5400    3.9880   -0.5260 n         1 G97     -0.325000
     14 CAT        -0.8310    4.7970   -1.4520 c2        1 G97      0.337000
     15 OAB         0.1360    4.3480   -2.0340 o         1 G97     -0.329000
     16 CAC        -1.2820    6.2170   -1.7170 c2        1 G97     -0.197000
     17 CAA        -2.1880    6.4670   -2.6830 c1        1 G97     -0.175000
     18 CAK        -2.2910    1.9510   -0.0600 c1        1 G97     -0.121000
     19 CAL        -2.2390    0.6240    0.3350 c1        1 G97     -0.121000
     20 C5         -0.9900   -0.0110    0.5140 c1        1 G97     -0.143000
     21 C6         -0.9350   -1.3420    0.8970 c1        1 G97      0.155000
     22 NAR        -1.9490   -2.2720    1.2480 n3        1 G97     -0.186000
     23 CAV        -2.1830   -3.4080    0.4300 c2        1 G97     -0.036000
     24 CAJ        -2.6030   -4.6340    0.8610 c1        1 G97     -0.236000
     25 CAG        -2.7690   -5.4310   -0.2340 c1        1 G97     -0.110000
     26 NAS        -2.4550   -4.7060   -1.3290 n2        1 G97     -0.163000
     27 NAN        -2.0910   -3.4490   -0.9160 n2        1 G97     -0.100000
     28 HAH         3.0400   -1.7060   -1.1270 ha        1 G97      0.150000
     29 HAE         5.3970   -1.8500   -1.0560 ha        1 G97      0.136833
     30 HAD         6.5320   -1.6250    1.0030 ha        1 G97      0.136833
     31 HAF         5.3100   -1.2570    2.9910 ha        1 G97      0.136833
     32 HAI         2.9540   -1.1130    2.9200 ha        1 G97      0.136833
     33 HAM         0.9320    2.5300   -0.2560 ha        1 G97      0.193000
     34 HNAQ       -2.2520    4.3330   -0.0720 hn        1 G97      0.231000
     35 HAC        -0.9160    6.9520   -1.1890 ha        1 G97      0.161000
     36 HAA        -2.5550    5.7310   -3.2120 DU        1 G97      0.186250
     37 HAAA       -2.4790    7.3850   -2.8540 ha        1 G97      0.127000
     38 HAK        -3.1540    2.3900   -0.1840 ha        1 G97      0.136833
     39 HAL        -3.0650    0.1280    0.4890 ha        1 G97      0.136833
     40 HNAR       -2.4680   -2.1250    1.9840 hn        1 G97      0.214000
     41 HAJ        -2.7570   -4.8940    1.7890 DU        1 G97      0.186250
     42 HAG        -3.0630   -6.3620   -0.2280 DU        1 G97      0.186250
     43 HNAS       -2.4810   -5.0000   -2.1920 DU        1 G97      0.186250
@<TRIPOS>BOND
     1    1    6 1   
     2    1   28 1   
     3    2    3 1   
     4    2   29 1   
     5    3   30 1   
     6    4    5 1   
     7    4   31 1   
     8    5   32 1   
     9    7    8 1   
    10    9   10 1   
    11   10   11 1   
    12   11   12 1   
    13   11   33 1   
    14   12   13 1   
    15   13   14 1   
    16   13   34 1   
    17   14   15 1   
    18   14   16 1   
    19   16   17 1   
    20   16   35 1   
    21   17   37 1   
    22   18   19 1   
    23   18   38 1   
    24   19   39 1   
    25   20   21 1   
    26   21   22 1   
    27   22   23 1   
    28   22   40 1   
    29   23   24 1   
    30   23   27 1   
    31   24   25 1   
    32   25   26 1   
    33   26   27 1   
@<TRIPOS>SUBSTRUCTURE
     1 G97         1 TEMP              0 ****  ****    0 ROOT
