@<TRIPOS>MOLECULE
G97
   43    46     1     0     0
SMALL
bcc


@<TRIPOS>ATOM
      1 CAH        -0.0020   -0.9000    0.2690 ca        1 G97     -0.088000
      2 CAE         1.3820   -1.0690    0.3010 ca        1 G97     -0.144000
      3 CAD         2.1350   -0.5070    1.3320 ca        1 G97     -0.117000
      4 CAF         1.5030    0.2260    2.3360 ca        1 G97     -0.144000
      5 CAI         0.1190    0.3980    2.3140 ca        1 G97     -0.088000
      6 CAW        -0.6360   -0.1650    1.2780 cp        1 G97     -0.137500
      7 C2         -2.1150    0.0170    1.2560 cp        1 G97      0.742500
      8 N1         -2.6710    0.2770    0.0090 nb        1 G97     -0.761000
      9 N3         -2.7790   -0.0910    2.4170 nb        1 G97     -0.720000
     10 C4         -4.1490    0.0870    2.3730 ca        1 G97      0.467600
     11 CAM        -4.8990   -0.0230    3.5780 ca        1 G97     -0.259300
     12 CAU        -6.2840    0.1600    3.5830 ca        1 G97      0.109600
     13 NAQ        -6.9660    0.0390    4.8020 n         1 G97     -0.469100
     14 CAT        -8.3360    0.1300    5.0320 c         1 G97      0.670300
     15 OAB        -9.1590    0.3500    4.1230 o         1 G97     -0.590100
     16 CAC        -8.7690   -0.0510    6.4460 ce        1 G97     -0.247200
     17 CAA       -10.0600    0.0080    6.7740 c2        1 G97     -0.121000
     18 CAK        -6.9450    0.4690    2.3550 ca        1 G97     -0.162000
     19 CAL        -6.2310    0.5740    1.1870 ca        1 G97     -0.069000
     20 C5         -4.8340    0.3800    1.1530 ca        1 G97     -0.311600
     21 C6         -4.0030    0.4640   -0.0480 ca        1 G97      0.701200
     22 NAR        -4.6250    0.8180   -1.2590 nh        1 G97     -0.790600
     23 CAV        -3.9230    0.7800   -2.4760 cc        1 G97      0.504200
     24 CAJ        -2.6670    1.4620   -2.7630 cc        1 G97     -0.250300
     25 CAG        -2.4270    1.2010   -4.1160 cd        1 G97     -0.150300
     26 NAS        -3.4900    0.4180   -4.5700 na        1 G97     -0.014600
     27 NAN        -4.3810    0.1490   -3.6210 nd        1 G97     -0.553800
     28 HAH        -0.5890   -1.3440   -0.5490 ha        1 G97      0.148000
     29 HAE         1.8790   -1.6480   -0.4910 ha        1 G97      0.132000
     30 HAD         3.2270   -0.6420    1.3530 ha        1 G97      0.130000
     31 HAF         2.0950    0.6690    3.1490 ha        1 G97      0.132000
     32 HAI        -0.3740    0.9740    3.1120 ha        1 G97      0.148000
     33 HAM        -4.3510   -0.2570    4.5060 ha        1 G97      0.151000
     34 HNAQ       -6.3890   -0.1540    5.5920 hn        1 G97      0.319500
     35 HAC        -7.9890   -0.2330    7.2020 ha        1 G97      0.134000
     36 HAA       -10.8470    0.1900    6.0260 ha        1 G97      0.133000
     37 HAAA      -10.4040   -0.1220    7.8100 ha        1 G97      0.133000
     38 HAK        -8.0370    0.6280    2.3400 ha        1 G97      0.180000
     39 HAL        -6.7860    0.8270    0.2700 ha        1 G97      0.136000
     40 HNAR       -5.5790    0.5180   -1.3240 hn        1 G97      0.434800
     41 HAJ        -2.0590    2.0230   -2.0630 ha        1 G97      0.184000
     42 HAG        -1.6090    1.5030   -4.7680 h4        1 G97      0.177000
     43 HNAS       -3.6350    0.0750   -5.4900 hn        1 G97      0.322700
@<TRIPOS>BOND
     1    1    2 ar  
     2    1    6 ar  
     3    1   28 1   
     4    2    3 ar  
     5    2   29 1   
     6    3    4 ar  
     7    3   30 1   
     8    4    5 ar  
     9    4   31 1   
    10    5    6 ar  
    11    5   32 1   
    12    6    7 1   
    13    7    8 ar  
    14    7    9 ar  
    15    8   21 ar  
    16    9   10 ar  
    17   10   11 ar  
    18   10   20 ar  
    19   11   12 ar  
    20   11   33 1   
    21   12   13 1   
    22   12   18 ar  
    23   13   14 1   
    24   13   34 1   
    25   14   15 2   
    26   14   16 1   
    27   16   17 2   
    28   16   35 1   
    29   17   36 1   
    30   17   37 1   
    31   18   19 ar  
    32   18   38 1   
    33   19   20 ar  
    34   19   39 1   
    35   20   21 ar  
    36   21   22 1   
    37   22   23 1   
    38   22   40 1   
    39   23   24 1   
    40   23   27 2   
    41   24   25 2   
    42   24   41 1   
    43   25   26 1   
    44   25   42 1   
    45   26   27 1   
    46   26   43 1   
@<TRIPOS>SUBSTRUCTURE
     1 G97         1 TEMP              0 ****  ****    0 ROOT
