@<TRIPOS>MOLECULE
G97
   43    46     1     0     0
SMALL
bcc


@<TRIPOS>ATOM
      1 CAH        -0.0020   -0.9010    0.2700 ca        1 G97     -0.088000
      2 CAE         1.3810   -1.0710    0.3010 ca        1 G97     -0.144000
      3 CAD         2.1350   -0.5090    1.3320 ca        1 G97     -0.117000
      4 CAF         1.5030    0.2250    2.3360 ca        1 G97     -0.144000
      5 CAI         0.1200    0.3970    2.3140 ca        1 G97     -0.088000
      6 CAW        -0.6360   -0.1660    1.2780 cp        1 G97     -0.137500
      7 C2         -2.1140    0.0170    1.2560 cp        1 G97      0.742500
      8 N1         -2.6700    0.2780    0.0090 nb        1 G97     -0.761000
      9 N3         -2.7790   -0.0900    2.4180 nb        1 G97     -0.720000
     10 C4         -4.1490    0.0890    2.3730 ca        1 G97      0.467600
     11 CAM        -4.8980   -0.0210    3.5780 ca        1 G97     -0.259300
     12 CAU        -6.2840    0.1630    3.5840 ca        1 G97      0.109600
     13 NAQ        -6.9650    0.0430    4.8030 ns        1 G97     -0.469100
     14 CAT        -8.3360    0.1300    5.0320 c         1 G97      0.670300
     15 OAB        -9.1600    0.3440    4.1220 o         1 G97     -0.590100
     16 CAC        -8.7690   -0.0490    6.4460 ce        1 G97     -0.247200
     17 CAA       -10.0610    0.0010    6.7730 c2        1 G97     -0.121000
     18 CAK        -6.9450    0.4720    2.3560 ca        1 G97     -0.162000
     19 CAL        -6.2300    0.5760    1.1870 ca        1 G97     -0.069000
     20 C5         -4.8330    0.3820    1.1530 ca        1 G97     -0.311600
     21 C6         -4.0030    0.4650   -0.0480 ca        1 G97      0.701200
     22 NAR        -4.6250    0.8190   -1.2580 nu        1 G97     -0.790600
     23 CAV        -3.9230    0.7800   -2.4760 cc        1 G97      0.504200
     24 CAJ        -2.6670    1.4610   -2.7630 cc        1 G97     -0.250300
     25 CAG        -2.4270    1.2000   -4.1170 cd        1 G97     -0.150300
     26 NAS        -3.4910    0.4170   -4.5700 na        1 G97     -0.014600
     27 NAN        -4.3820    0.1490   -3.6210 nd        1 G97     -0.553800
     28 HAH        -0.5900   -1.3450   -0.5490 ha        1 G97      0.148000
     29 HAE         1.8780   -1.6500   -0.4900 ha        1 G97      0.132000
     30 HAD         3.2260   -0.6440    1.3530 ha        1 G97      0.130000
     31 HAF         2.0960    0.6680    3.1490 ha        1 G97      0.132000
     32 HAI        -0.3730    0.9740    3.1120 ha        1 G97      0.148000
     33 HAM        -4.3510   -0.2540    4.5060 ha        1 G97      0.151000
     34 HNAQ       -6.3880   -0.1470    5.5930 hn        1 G97      0.319500
     35 HAC        -7.9890   -0.2210    7.2030 ha        1 G97      0.134000
     36 HAA       -10.8490    0.1730    6.0230 ha        1 G97      0.133000
     37 HAAA      -10.4050   -0.1280    7.8080 ha        1 G97      0.133000
     38 HAK        -8.0360    0.6320    2.3400 ha        1 G97      0.180000
     39 HAL        -6.7850    0.8300    0.2700 ha        1 G97      0.136000
     40 HNAR       -5.5790    0.5200   -1.3240 hn        1 G97      0.434800
     41 HAJ        -2.0580    2.0220   -2.0630 ha        1 G97      0.184000
     42 HAG        -1.6090    1.5010   -4.7690 h4        1 G97      0.177000
     43 HNAS       -3.6370    0.0740   -5.4900 hn        1 G97      0.322700
@<TRIPOS>BOND
     1    1    2 ar  
     2    1    6 ar  
     3    1   28 1   
     4    2    3 ar  
     5    2   29 1   
     6    3    4 ar  
     7    3   30 1   
     8    4    5 ar  
     9    4   31 1   
    10    5    6 ar  
    11    5   32 1   
    12    6    7 1   
    13    7    8 ar  
    14    7    9 ar  
    15    8   21 ar  
    16    9   10 ar  
    17   10   11 ar  
    18   10   20 ar  
    19   11   12 ar  
    20   11   33 1   
    21   12   13 1   
    22   12   18 ar  
    23   13   14 1   
    24   13   34 1   
    25   14   15 2   
    26   14   16 1   
    27   16   17 2   
    28   16   35 1   
    29   17   36 1   
    30   17   37 1   
    31   18   19 ar  
    32   18   38 1   
    33   19   20 ar  
    34   19   39 1   
    35   20   21 ar  
    36   21   22 1   
    37   22   23 1   
    38   22   40 1   
    39   23   24 1   
    40   23   27 2   
    41   24   25 2   
    42   24   41 1   
    43   25   26 1   
    44   25   42 1   
    45   26   27 1   
    46   26   43 1   
@<TRIPOS>SUBSTRUCTURE
     1 G97         1 TEMP              0 ****  ****    0 ROOT
