@<TRIPOS>MOLECULE
G97
   45    48     1     0     0
SMALL
bcc


@<TRIPOS>ATOM
      1 CAH         0.3670    0.2980    0.6010 ca        1 G97     -0.066500
      2 CAE         1.7410    0.2570    0.8180 ca        1 G97     -0.133000
      3 CAD         2.2500    0.2500    2.1190 ca        1 G97     -0.059000
      4 CAF         1.3770    0.2800    3.2080 ca        1 G97     -0.133000
      5 CAI        -0.0000    0.3160    3.0050 ca        1 G97     -0.066500
      6 CAW        -0.5130    0.3280    1.6960 cp        1 G97     -0.206500
      7 C2         -1.9720    0.3630    1.4840 cp        1 G97      0.803500
      8 N1         -2.4280    1.0020    0.3170 nb        1 G97     -0.655000
      9 N3         -2.7960   -0.1970    2.3960 nb        1 G97     -0.655000
     10 C4         -4.1480   -0.1430    2.1710 ca        1 G97      0.456600
     11 CAM        -5.0300   -0.7430    3.1340 ca        1 G97     -0.126300
     12 CAU        -6.3940   -0.7150    2.9200 ca        1 G97      0.002600
     13 NAQ        -7.3050   -1.3470    3.8790 n4        1 G97     -0.563200
     14 CAT        -8.2100   -0.3170    4.5830 c         1 G97      0.573300
     15 OAB        -9.1670    0.0420    3.9130 o         1 G97     -0.420100
     16 CAC        -7.8090    0.0450    5.9330 ce        1 G97     -0.309200
     17 CAA        -8.6110    0.8020    6.7000 c2        1 G97      0.007000
     18 CAK        -6.9500   -0.0990    1.7580 ca        1 G97     -0.113000
     19 CAL        -6.1190    0.4780    0.8290 ca        1 G97     -0.065000
     20 C5         -4.7160    0.4760    1.0080 ca        1 G97     -0.253600
     21 C6         -3.7370    1.0500    0.1120 ca        1 G97      0.561200
     22 NAR        -4.1880    1.7670   -1.1180 n4        1 G97     -0.696400
     23 CAV        -4.3000    0.8810   -2.2600 cc        1 G97      0.298200
     24 CAJ        -3.3730    0.8250   -3.3710 cc        1 G97     -0.225300
     25 CAG        -3.9240   -0.1520   -4.2160 cd        1 G97     -0.088300
     26 NAS        -5.0900   -0.6130   -3.5930 na        1 G97      0.048400
     27 NAN        -5.3350   -0.0260   -2.4410 nd        1 G97     -0.472800
     28 HAH        -0.0130    0.2950   -0.4320 ha        1 G97      0.146000
     29 HAE         2.4300    0.2290   -0.0420 ha        1 G97      0.161500
     30 HAD         3.3400    0.2200    2.2840 ha        1 G97      0.165000
     31 HAF         1.7780    0.2750    4.2340 ha        1 G97      0.161500
     32 HAI        -0.6730    0.3420    3.8760 ha        1 G97      0.146000
     33 HAM        -4.5740   -1.2210    4.0230 ha        1 G97      0.191000
     34 HNAQ       -7.9070   -2.0050    3.3610 hn        1 G97      0.470800
     35 HAC        -6.8340   -0.3140    6.3040 ha        1 G97      0.170000
     36 HAA        -9.5920    1.1780    6.3610 ha        1 G97      0.172000
     37 HAAA       -8.3180    1.0840    7.7280 ha        1 G97      0.172000
     38 HAK        -8.0460   -0.0810    1.6090 ha        1 G97      0.189000
     39 HAL        -6.5770    0.9240   -0.0710 ha        1 G97      0.166000
     40 HNAR       -3.5000    2.5000   -1.3710 hn        1 G97      0.485800
     41 HAJ        -2.4640    1.4040   -3.5190 ha        1 G97      0.207000
     42 HAG        -3.5820   -0.5380   -5.1830 h4        1 G97      0.230000
     43 HNAS       -5.7270   -1.3040   -3.9440 hn        1 G97      0.366700
     44 HAQ2       -6.7680   -1.8690    4.5800 hn        1 G97      0.470800
     45 HAR2       -5.0970    2.2100   -0.9210 hn        1 G97      0.485800
@<TRIPOS>BOND
     1    1    2 ar  
     2    1    6 ar  
     3    1   28 1   
     4    2    3 ar  
     5    2   29 1   
     6    3    4 ar  
     7    3   30 1   
     8    4    5 ar  
     9    4   31 1   
    10    5    6 ar  
    11    5   32 1   
    12    6    7 1   
    13    7    8 ar  
    14    7    9 ar  
    15    8   21 ar  
    16    9   10 ar  
    17   10   11 ar  
    18   10   20 ar  
    19   11   12 ar  
    20   11   33 1   
    21   12   13 1   
    22   12   18 ar  
    23   13   14 1   
    24   13   34 1   
    25   13   44 1   
    26   14   15 2   
    27   14   16 1   
    28   16   17 2   
    29   16   35 1   
    30   17   36 1   
    31   17   37 1   
    32   18   19 ar  
    33   18   38 1   
    34   19   20 ar  
    35   19   39 1   
    36   20   21 ar  
    37   21   22 1   
    38   22   23 1   
    39   22   40 1   
    40   22   45 1   
    41   23   24 1   
    42   23   27 2   
    43   24   25 2   
    44   24   41 1   
    45   25   26 1   
    46   25   42 1   
    47   26   27 1   
    48   26   43 1   
@<TRIPOS>SUBSTRUCTURE
     1 G97         1 TEMP              0 ****  ****    0 ROOT
