@<TRIPOS>MOLECULE
G98
   67    69     1     0     0
SMALL
bcc


@<TRIPOS>ATOM
      1 N1          0.5580   -1.0850   -0.6650 n2        1 G98     -0.152000
      2 N3          3.7300   -0.8800    1.3150 na        1 G98     -0.230000
      3 C4          3.7250   -0.4020    2.6560 c2        1 G98      0.229000
      4 C5          2.4060   -0.8100    0.8530 c2        1 G98      0.044000
      5 C6          1.5600   -0.3650    1.8840 c2        1 G98     -0.186000
      6 C10         6.1660   -0.8430    3.3980 c2        1 G98      0.270000
      7 C13        -0.0040    3.6320   -1.2700 c3        1 G98      0.028000
      8 C15         1.1030    4.5670   -0.8250 c3        1 G98     -0.248500
      9 C17        -3.6120   -1.8240   -0.5050 c3        1 G98     -0.196000
     10 C20        -3.8400    1.0450   -1.8180 c3        1 G98     -0.131000
     11 C21        -5.2460    1.4540   -1.3890 c2        1 G98     -0.174000
     12 C22        -5.3270    1.3100   -0.0730 cu        1 G98     -0.164000
     13 C24        -4.0500    0.7930    0.5310 cu        1 G98     -0.224000
     14 O2         -0.3480    2.7250   -0.2210 oh        1 G98     -0.388000
     15 C14        -1.2260    4.4030   -1.7310 c3        1 G98     -0.248500
     16 C3          1.8350   -1.1920   -0.4500 c2        1 G98      0.113000
     17 C1         -0.3030   -0.4600    0.3350 c3        1 G98     -0.016000
     18 O3         -1.5560   -1.1350    0.3910 os        1 G98     -0.230000
     19 C16        -2.4850   -0.7960   -0.6530 c3        1 G98      0.050000
     20 C19        -3.0440    0.6190   -0.5160 c3        1 G98     -0.041000
     21 C23        -5.0780    1.0770    1.3220 cu        1 G98      0.039000
     22 N7         -4.1720   -4.2540   -0.7160 n4        1 G98     -0.066000
     23 C2          0.1560   -0.2170    1.7410 c1        1 G98      0.059000
     24 N2          2.3640   -0.1120    3.0540 na        1 G98     -0.057000
     25 C9          4.8100   -0.2780    3.4920 c2        1 G98     -0.230000
     26 N5          6.8780   -0.3290    4.5040 na        1 G98     -0.104000
     27 O1          5.9980    0.3050    5.3290 os        1 G98     -0.076000
     28 N4          4.8020    0.5780    4.6720 na        1 G98     -0.015000
     29 H7          0.9810    0.4420    4.4930 ha        1 G98      0.134000
     30 H7A         0.7430    2.8730    4.4290 hc        1 G98      0.069500
     31 H8          2.0350    4.0830    4.0170 hc        1 G98      0.069500
     32 H8A         2.4790    2.5340    4.8600 hc        1 G98      0.069500
     33 H8B         1.5550    3.8200    5.7470 hc        1 G98      0.069500
     34 H15         0.7490    5.2310    0.0010 hc        1 G98      0.090667
     35 H15A        1.4260    5.2070   -1.6810 hc        1 G98      0.090667
     36 H15B        1.9800    3.9820   -0.4590 hc        1 G98      0.090667
     37 H17        -4.4660   -1.4970   -1.1570 hc        1 G98      0.134500
     38 H17A       -3.9570   -1.8130    0.5650 hc        1 G98      0.134500
     39 H20        -3.8820    0.2050   -2.5520 hc        1 G98      0.093000
     40 H21        -3.3230    1.9100   -2.3000 hc        1 G98      0.093000
     41 H22        -5.9780    1.8110   -2.1110 ha        1 G98      0.176000
     42 H24        -2.1990    1.3500   -0.3580 hc        1 G98      0.147000
     43 HO2        -0.6850    3.2510    0.5140 ho        1 G98      0.216000
     44 H14        -2.0500    3.6980   -1.9950 hc        1 G98      0.090667
     45 H14A       -0.9710    5.0160   -2.6290 hc        1 G98      0.090667
     46 H14B       -1.5880    5.0860   -0.9250 hc        1 G98      0.090667
     47 H12         0.3630    2.9540   -2.0920 h1        1 G98      0.103000
     48 H11         2.4130   -1.6650   -2.5140 ha        1 G98      0.243000
     49 H16        -1.9810   -0.8980   -1.6540 h1        1 G98      0.111000
     50 H23        -5.5090    1.1400    2.3050 ha        1 G98      0.218000
     51 H18        -2.2320   -3.4890   -0.2560 hx        1 G98      0.156500
     52 H18A       -2.8060   -3.2230   -1.9810 hx        1 G98      0.156500
     53 HN7        -4.9930   -4.0320   -1.2900 hn        1 G98      0.259333
     54 HN7A       -4.4650   -4.2900    0.2670 hn        1 G98      0.259333
     55 H2         -0.4410    0.6310   -0.0360 h2        1 G98      0.227000
     56 HN6         4.5050   -0.7280    0.7060 hn        1 G98      0.275000
     57 HN6A        6.1700   -1.8480    1.6250 hn        1 G98      0.281500
     58 HN5         7.5300   -0.8890    5.0400 hn        1 G98      0.289000
     59 HN4         4.0350    0.3310    5.3140 hn        1 G98      0.240000
     60 C7          2.0550    0.2760    4.2770 c1        1 G98     -0.069000
     61 C11         2.7680   -1.6990   -1.4530 c2        1 G98     -0.458000
     62 N6          6.6820   -1.6290    2.4490 nh        1 G98     -0.278000
     63 H73        -3.8090   -5.1710   -0.9920 hn        1 G98      0.259333
     64 H63         7.6160   -1.9850    2.5150 hn        1 G98      0.281500
     65 C18        -3.1200   -3.2080   -0.8970 c3        1 G98     -0.134000
     66 C8          1.7020    3.3270    4.7610 c3        1 G98     -0.274000
     67 C12         3.9700   -2.1970   -1.2540 c1        1 G98      0.243000
@<TRIPOS>BOND
     1    1   16 1   
     2    1   17 1   
     3    2    3 1   
     4    2    4 1   
     5    2   56 1   
     6    3   24 1   
     7    3   25 1   
     8    4    5 1   
     9    4   16 1   
    10    5   23 1   
    11    5   24 1   
    12    6   25 1   
    13    6   26 1   
    14    6   62 1   
    15    7    8 1   
    16    7   14 1   
    17    7   15 1   
    18    7   47 1   
    19    8   34 1   
    20    8   35 1   
    21    8   36 1   
    22    9   19 1   
    23    9   37 1   
    24    9   38 1   
    25    9   65 1   
    26   10   11 1   
    27   10   20 1   
    28   10   39 1   
    29   10   40 1   
    30   11   12 1   
    31   11   41 1   
    32   12   13 1   
    33   12   21 1   
    34   13   20 1   
    35   13   21 1   
    36   14   43 1   
    37   15   44 1   
    38   15   45 1   
    39   15   46 1   
    40   16   61 1   
    41   17   18 1   
    42   17   23 1   
    43   17   55 1   
    44   18   19 1   
    45   19   20 1   
    46   19   49 1   
    47   20   42 1   
    48   21   50 1   
    49   22   53 1   
    50   22   54 1   
    51   22   63 1   
    52   22   65 1   
    53   24   60 1   
    54   25   28 1   
    55   26   27 1   
    56   26   58 1   
    57   27   28 1   
    58   28   59 1   
    59   29   60 1   
    60   30   66 1   
    61   31   66 1   
    62   32   66 1   
    63   33   66 1   
    64   48   61 1   
    65   51   65 1   
    66   52   65 1   
    67   57   62 1   
    68   61   67 1   
    69   62   64 1   
@<TRIPOS>SUBSTRUCTURE
     1 G98         1 TEMP              0 ****  ****    0 ROOT
