@<TRIPOS>MOLECULE
G98
   65    68     1     0     0
SMALL
bcc


@<TRIPOS>ATOM
      1 N1          0.0070   -0.2570   -0.5020 nb        1 G98     -0.706000
      2 N3          3.1340    0.6560    1.3420 nc        1 G98     -0.561100
      3 C4          3.0580    1.5990    2.3270 cd        1 G98      0.400400
      4 C5          1.8480    0.5340    0.8400 ca        1 G98     -0.064900
      5 C6          0.9580    1.4390    1.5530 ca        1 G98      0.003800
      6 C10         5.4970    1.3780    2.9490 cc        1 G98     -0.184700
      7 C13         4.0700   -2.7120   -1.9380 c3        1 G98      0.226900
      8 C15         3.7120   -4.1890   -1.7740 c3        1 G98     -0.123100
      9 C17        -4.1830    0.0190   -1.0970 c3        1 G98     -0.117400
     10 C20        -3.3750   -1.3640    1.5510 ca        1 G98     -0.105500
     11 C21        -3.4800   -2.4220    2.4510 ca        1 G98     -0.124500
     12 C22        -3.0780   -3.7040    2.0710 ca        1 G98     -0.095000
     13 C24        -2.4550   -2.8660   -0.1100 ca        1 G98     -0.105500
     14 O2          5.2780   -2.4220   -1.2110 oh        1 G98     -0.624800
     15 C14         4.2630   -2.3700   -3.4160 c3        1 G98     -0.123100
     16 C12         3.0400   -1.8710   -1.3530 c1        1 G98     -0.008100
     17 C3          1.3110   -0.3020   -0.1910 ca        1 G98      0.675300
     18 C1         -0.8020    0.6060    0.1960 ca        1 G98      0.664600
     19 O3         -2.1400    0.7100   -0.1540 os        1 G98     -0.477100
     20 C16        -2.7750   -0.4610   -0.7200 c3        1 G98      0.220400
     21 C19        -2.8660   -1.5820    0.2650 ca        1 G98     -0.161300
     22 C23        -2.5650   -3.9240    0.7920 ca        1 G98     -0.124500
     23 N7         -5.4380    1.5350   -2.6520 nz        1 G98     -0.838600
     24 C2         -0.4060    1.4760    1.2290 ca        1 G98     -0.261300
     25 N2          1.7430    2.1020    2.4990 na        1 G98     -0.103300
     26 C9          4.2420    1.9620    3.0740 cd        1 G98     -0.009200
     27 N5          6.4440    2.0640    3.8470 na        1 G98      0.016300
     28 O1          5.6560    3.0110    4.4800 os        1 G98     -0.236400
     29 N4          4.3100    2.9290    4.1320 na        1 G98     -0.034700
     30 H7          1.7710    2.9130    4.4320 h1        1 G98      0.088200
     31 H7A         0.1580    2.8690    3.5950 h1        1 G98      0.088200
     32 H8          1.0700    5.1850    3.8390 hc        1 G98      0.060700
     33 H8A         0.8000    4.7460    2.0990 hc        1 G98      0.060700
     34 H8B         2.4780    4.7850    2.7680 hc        1 G98      0.060700
     35 H15         2.7350   -4.4040   -2.2680 hc        1 G98      0.060367
     36 H15A        3.6430   -4.4520   -0.6920 hc        1 G98      0.060367
     37 H15B        4.5020   -4.8200   -2.2470 hc        1 G98      0.060367
     38 H17        -4.6600    0.4860   -0.1940 hc        1 G98      0.088200
     39 H17A       -4.7830   -0.8830   -1.3900 hc        1 G98      0.088200
     40 H20        -3.6830   -0.3510    1.8510 ha        1 G98      0.135500
     41 H21        -3.8820   -2.2480    3.4610 ha        1 G98      0.151000
     42 H22        -3.1670   -4.5420    2.7810 ha        1 G98      0.155000
     43 H24        -2.0390   -3.0440   -1.1130 ha        1 G98      0.135500
     44 HO2         5.9630   -2.9780   -1.6030 ho        1 G98      0.423000
     45 H14         5.0410   -3.0390   -3.8560 hc        1 G98      0.060367
     46 H14A        4.5960   -1.3110   -3.5270 hc        1 G98      0.060367
     47 H14B        3.3070   -2.5150   -3.9710 hc        1 G98      0.060367
     48 H16        -2.2160   -0.7780   -1.6450 h1        1 G98      0.085700
     49 H23        -2.2460   -4.9340    0.4930 ha        1 G98      0.151000
     50 H18        -3.4640    1.8990   -1.9290 hx        1 G98      0.119700
     51 H18A       -3.6270    0.5350   -3.1480 hx        1 G98      0.119700
     52 HN7        -5.3360    2.2030   -3.4240 hn        1 G98      0.463800
     53 HN7A       -6.0390    0.7610   -2.9570 hn        1 G98      0.463800
     54 H2         -1.1280    2.1270    1.7330 ha        1 G98      0.175000
     55 HN6         5.3290   -0.5150    2.2120 hn        1 G98      0.482133
     56 HN6A        5.7460    0.6410    1.0750 hn        1 G98      0.482133
     57 HN5         6.7550    1.4110    4.5730 hn        1 G98      0.230700
     58 HN4         4.0240    3.8620    3.8350 hn        1 G98      0.276700
     59 C7          1.2590    3.0800    3.4410 c3        1 G98      0.020300
     60 C11         2.2110   -1.1670   -0.8510 cg        1 G98     -0.255000
     61 N6          5.9010    0.3280    2.0480 nz        1 G98     -0.655000
     62 H73        -5.8920    2.0060   -1.8610 hn        1 G98      0.463800
     63 H63         6.8960    0.1010    2.1720 hn        1 G98      0.482133
     64 C18        -4.0980    1.0180   -2.2420 c3        1 G98      0.098800
     65 C8          1.4180    4.5270    3.0040 c3        1 G98     -0.122100
@<TRIPOS>BOND
     1    1   17 ar  
     2    1   18 ar  
     3    2    3 2   
     4    2    4 1   
     5    3   25 1   
     6    3   26 1   
     7    4    5 ar  
     8    4   17 ar  
     9    5   24 ar  
    10    5   25 1   
    11    6   26 2   
    12    6   27 1   
    13    6   61 1   
    14    7    8 1   
    15    7   14 1   
    16    7   15 1   
    17    7   16 1   
    18    8   35 1   
    19    8   36 1   
    20    8   37 1   
    21    9   20 1   
    22    9   38 1   
    23    9   39 1   
    24    9   64 1   
    25   10   11 ar  
    26   10   21 ar  
    27   10   40 1   
    28   11   12 ar  
    29   11   41 1   
    30   12   22 ar  
    31   12   42 1   
    32   13   21 ar  
    33   13   22 ar  
    34   13   43 1   
    35   14   44 1   
    36   15   45 1   
    37   15   46 1   
    38   15   47 1   
    39   16   60 3   
    40   17   60 1   
    41   18   19 1   
    42   18   24 ar  
    43   19   20 1   
    44   20   21 1   
    45   20   48 1   
    46   22   49 1   
    47   23   52 1   
    48   23   53 1   
    49   23   62 1   
    50   23   64 1   
    51   24   54 1   
    52   25   59 1   
    53   26   29 1   
    54   27   28 1   
    55   27   57 1   
    56   28   29 1   
    57   29   58 1   
    58   30   59 1   
    59   31   59 1   
    60   32   65 1   
    61   33   65 1   
    62   34   65 1   
    63   50   64 1   
    64   51   64 1   
    65   55   61 1   
    66   56   61 1   
    67   59   65 1   
    68   61   63 1   
@<TRIPOS>SUBSTRUCTURE
     1 G98         1 TEMP              0 ****  ****    0 ROOT
