@<TRIPOS>MOLECULE
G98
   65    66     1     0     0
SMALL
bcc


@<TRIPOS>ATOM
      1 N1         -0.0640   -0.0850   -0.1380 nb        1 G98     -0.826000
      2 N3          3.3560    0.0160    1.4550 nc        1 G98     -0.518100
      3 C4          3.4530    0.4290    2.7220 cd        1 G98      0.480400
      4 C5          1.9780    0.0730    1.1370 ca        1 G98     -0.059900
      5 C6          1.2240    0.5410    2.2930 ca        1 G98     -0.034200
      6 C10         5.9290   -0.0130    3.1080 cc        1 G98     -0.219700
      7 C13         3.6880   -1.5730   -3.0440 c3        1 G98      0.220900
      8 C15         3.7550   -0.5980   -4.2200 c3        1 G98     -0.126100
      9 C17        -3.0040    0.8150   -1.2860 c2        1 G98     -0.247200
     10 C20        -4.9980    0.7930    0.9990 ca        1 G98     -0.100500
     11 C21        -6.2530    0.5780    1.5700 ca        1 G98     -0.121500
     12 C22        -6.7570   -0.7180    1.6810 ca        1 G98     -0.088000
     13 C24        -4.7470   -1.5940    0.6610 ca        1 G98     -0.100500
     14 O2          4.9670   -1.6390   -2.3950 oh        1 G98     -0.605800
     15 C14         3.2800   -2.9660   -3.5230 c3        1 G98     -0.126100
     16 C12         2.7610   -1.0890   -2.0310 c1        1 G98     -0.009100
     17 C3          1.2900   -0.2300   -0.0540 ca        1 G98      0.648300
     18 C1         -0.7370    0.3400    0.9630 ca        1 G98      0.695600
     19 O3         -2.0920    0.5240    0.9600 os        1 G98     -0.413100
     20 C16        -2.8990   -0.0750   -0.0880 c3        1 G98      0.240600
     21 C19        -4.2470   -0.2920    0.5380 ca        1 G98     -0.140300
     22 C23        -6.0040   -1.8020    1.2260 ca        1 G98     -0.121500
     23 N7         -0.7960   -0.2970   -2.9540 n4        1 G98     -0.915200
     24 C2         -0.1440    0.6770    2.2270 ca        1 G98     -0.215300
     25 N2          2.1740    0.7610    3.3440 na        1 G98     -0.082600
     26 C9          4.7020    0.5520    3.4510 cd        1 G98     -0.000200
     27 N5          6.9300    0.3790    4.1170 na        1 G98      0.026300
     28 O1          6.2100    1.1830    4.9850 os        1 G98     -0.219400
     29 N4          4.8930    1.3670    4.5870 na        1 G98     -0.018700
     30 H7          1.0710    1.3250    5.0180 ha        1 G98      0.061500
     31 H7A         1.3980    3.6110    4.1090 hc        1 G98      0.031700
     32 H8          1.0840    3.8340    5.8860 hc        1 G98      0.031700
     33 H8A         2.7260    3.2950    5.3170 hc        1 G98      0.031700
     34 H8B         2.1670    4.9910    5.0010 hc        1 G98      0.031700
     35 H15         4.4700   -0.9870   -4.9870 hc        1 G98      0.061200
     36 H15A        2.7520   -0.4900   -4.6920 hc        1 G98      0.061200
     37 H15B        4.1140    0.4010   -3.8760 hc        1 G98      0.061200
     38 H17        -1.0370    0.6620   -2.6560 hn        1 G98      0.471300
     39 H17A       -3.6880    0.4120   -2.0560 ha        1 G98      0.148000
     40 H20        -4.5950    1.8140    0.9150 ha        1 G98      0.133000
     41 H21        -6.8440    1.4340    1.9320 ha        1 G98      0.155000
     42 H22        -7.7500   -0.8870    2.1280 ha        1 G98      0.158000
     43 H24        -4.1570   -2.4540    0.3150 ha        1 G98      0.133000
     44 HO2         5.5900   -1.9610   -3.0610 ho        1 G98      0.432000
     45 H14         3.2920   -3.6880   -2.6720 hc        1 G98      0.061200
     46 H14A        2.2600   -2.9400   -3.9710 hc        1 G98      0.061200
     47 H14B        4.0010   -3.3200   -4.3000 hc        1 G98      0.061200
     48 H16        -2.4520   -1.0680   -0.3810 h1        1 G98      0.050700
     49 H23        -6.4010   -2.8250    1.3170 ha        1 G98      0.155000
     50 H18        -1.8440    2.4790   -0.6140 ha        1 G98      0.139000
     51 H18A       -2.6390    2.6660   -2.2820 ha        1 G98      0.139000
     52 HN7        -0.9770   -0.4120   -3.9530 hn        1 G98      0.471300
     53 HN7A        0.1930   -0.4810   -2.7480 hn        1 G98      0.471300
     54 H2         -0.7820    1.0160    3.0560 ha        1 G98      0.203000
     55 HN6         6.1700    0.0260    1.0930 hn        1 G98      0.477800
     56 HN6A        5.6620   -1.4510    1.7020 hn        1 G98      0.477800
     57 HN5         7.2170   -0.4550    4.6370 hn        1 G98      0.223700
     58 HN4         4.2410    1.2490    5.3650 hn        1 G98      0.330700
     59 C7          2.0770    1.1070    4.6110 c1        1 G98     -0.008500
     60 C11         2.0290   -0.6900   -1.1680 cg        1 G98     -0.298000
     61 N6          6.2840   -0.6480    1.8660 n4        1 G98     -0.651000
     62 H73        -1.3790   -0.9470   -2.4140 hn        1 G98      0.471300
     63 H63         7.2620   -0.9680    1.8900 hn        1 G98      0.477800
     64 C18        -2.4590    2.0250   -1.4060 c2        1 G98     -0.205000
     65 C8          1.8420    3.9300    5.0780 c3        1 G98     -0.117800
@<TRIPOS>BOND
     1    1   17 ar  
     2    1   18 ar  
     3    2    3 2   
     4    2    4 1   
     5    3   25 1   
     6    3   26 1   
     7    4    5 ar  
     8    4   17 ar  
     9    5   24 ar  
    10    5   25 1   
    11    6   26 2   
    12    6   27 1   
    13    6   61 1   
    14    7    8 1   
    15    7   14 1   
    16    7   15 1   
    17    7   16 1   
    18    8   35 1   
    19    8   36 1   
    20    8   37 1   
    21    9   20 1   
    22    9   39 1   
    23    9   64 2   
    24   10   11 ar  
    25   10   21 ar  
    26   10   40 1   
    27   11   12 ar  
    28   11   41 1   
    29   12   22 ar  
    30   12   42 1   
    31   13   21 ar  
    32   13   22 ar  
    33   13   43 1   
    34   14   44 1   
    35   15   45 1   
    36   15   46 1   
    37   15   47 1   
    38   16   60 3   
    39   17   60 1   
    40   18   19 1   
    41   18   24 ar  
    42   19   20 1   
    43   20   21 1   
    44   20   48 1   
    45   22   49 1   
    46   23   38 1   
    47   23   52 1   
    48   23   53 1   
    49   23   62 1   
    50   24   54 1   
    51   25   59 3   
    52   26   29 1   
    53   27   28 1   
    54   27   57 1   
    55   28   29 1   
    56   29   58 1   
    57   30   59 1   
    58   31   65 1   
    59   32   65 1   
    60   33   65 1   
    61   34   65 1   
    62   50   64 1   
    63   51   64 1   
    64   55   61 1   
    65   56   61 1   
    66   61   63 1   
@<TRIPOS>SUBSTRUCTURE
     1 G98         1 TEMP              0 ****  ****    0 ROOT
