@<TRIPOS>MOLECULE
G98
   65    68     1     0     0
SMALL
bcc


@<TRIPOS>ATOM
      1 N1          0.7910   -0.7010   -1.1180 nb        1 G98     -0.709000
      2 N3         -2.7650   -0.7950    0.0970 nc        1 G98     -0.594100
      3 C4         -3.3660    0.3850    0.3980 cd        1 G98      0.523400
      4 C5         -1.4710   -0.4630   -0.3230 ca        1 G98     -0.068900
      5 C6         -1.2980    0.9800   -0.2680 ca        1 G98     -0.025200
      6 C8         -2.3840    3.5030    1.6710 c3        1 G98     -0.114100
      7 C10        -5.7640   -0.4190    0.6520 cc        1 G98      0.153300
      8 C13         1.2660   -3.5530    0.7040 c3        1 G98      0.186000
      9 C15         1.1680   -4.6780    1.7370 c3        1 G98     -0.103100
     10 C17         4.2710    1.1330   -2.3550 c3        1 G98     -0.083400
     11 C20         3.6680   -0.0730    1.1130 ca        1 G98     -0.107000
     12 C21         4.1280    0.1870    2.4040 ca        1 G98     -0.138500
     13 C22         4.7300    1.4080    2.7020 ca        1 G98     -0.123000
     14 C24         4.4100    2.1200    0.4150 ca        1 G98     -0.107000
     15 O2          1.2900   -2.3060    1.3970 oh        1 G98     -0.595800
     16 C14         2.5970   -3.6360   -0.0410 c3        1 G98     -0.103100
     17 C12         0.1260   -3.6760   -0.2640 c2        1 G98     -0.170200
     18 C3         -0.3770   -1.2590   -0.7560 ca        1 G98      0.537100
     19 C1          0.9160    0.6590   -1.0560 ca        1 G98      0.637600
     20 O3          2.0730    1.2680   -1.5140 os        1 G98     -0.457100
     21 C16         3.3300    0.5890   -1.2800 c3        1 G98      0.195400
     22 C19         3.8140    0.8910    0.1080 ca        1 G98     -0.123300
     23 C23         4.8680    2.3760    1.7070 ca        1 G98     -0.138500
     24 N7          4.8540    0.9130   -4.7560 n3        1 G98     -0.914800
     25 C2         -0.0830    1.5620   -0.6340 ca        1 G98     -0.258300
     26 N2         -2.5150    1.5040    0.1810 na        1 G98     -0.149300
     27 C9         -4.7250    0.4820    0.8760 cd        1 G98     -0.337200
     28 N5         -6.9240    0.0280    1.4460 na        1 G98     -0.047700
     29 O1         -6.5270    1.2260    2.0080 os        1 G98     -0.291400
     30 N4         -5.2080    1.5670    1.7220 na        1 G98     -0.003700
     31 H7         -3.8970    3.0720    0.1640 h1        1 G98      0.071700
     32 H7A        -2.2350    3.4460   -0.4860 h1        1 G98      0.071700
     33 H8         -2.6510    4.5880    1.6670 hc        1 G98      0.048033
     34 H8A        -2.9140    3.0110    2.5210 hc        1 G98      0.048033
     35 H8B        -1.2840    3.4040    1.8350 hc        1 G98      0.048033
     36 H15         0.1770   -4.6480    2.2480 hc        1 G98      0.045867
     37 H15A        1.2940   -5.6690    1.2420 hc        1 G98      0.045867
     38 H15B        1.9690   -4.5480    2.5030 hc        1 G98      0.045867
     39 H17         4.1050    2.2360   -2.4710 hc        1 G98      0.062200
     40 H17A        5.3280    0.9730   -2.0200 hc        1 G98      0.062200
     41 H20         3.1710   -1.0350    0.8900 ha        1 G98      0.147500
     42 H21         4.0080   -0.5760    3.1870 ha        1 G98      0.131500
     43 H22         5.0940    1.6100    3.7200 ha        1 G98      0.128000
     44 H24         4.5130    2.8870   -0.3660 ha        1 G98      0.147500
     45 HO2         0.3850   -2.1150    1.6700 ho        1 G98      0.406000
     46 H14         2.6520   -4.5980   -0.6020 hc        1 G98      0.045867
     47 H14A        2.6880   -2.7830   -0.7550 hc        1 G98      0.045867
     48 H14B        3.4380   -3.5830    0.6900 hc        1 G98      0.045867
     49 H12        -0.1440   -4.7280   -0.4720 ha        1 G98      0.127000
     50 H11        -1.4120   -2.9740   -1.5330 ha        1 G98      0.140000
     51 H16         3.2130   -0.5230   -1.4100 h1        1 G98      0.083700
     52 H23         5.3370    3.3420    1.9400 ha        1 G98      0.131500
     53 H18         4.2480   -0.6750   -3.5590 h1        1 G98      0.033200
     54 H18A        2.9160    0.5080   -3.9140 h1        1 G98      0.033200
     55 HN7         4.5860    0.4880   -5.6220 hn        1 G98      0.347300
     56 HN7A        4.7790    1.9070   -4.8430 hn        1 G98      0.347300
     57 H2          0.1040    2.6410   -0.6100 ha        1 G98      0.162000
     58 HN6        -4.9240   -1.8640   -0.4750 hn        1 G98      0.435300
     59 HN6A       -6.5010   -2.1930    0.0110 hn        1 G98      0.435300
     60 HN5        -7.7010    0.2460    0.8210 hn        1 G98      0.225700
     61 HN4        -4.7040    1.5150    2.6110 hn        1 G98      0.199700
     62 C7         -2.7950    2.9040    0.3330 c3        1 G98      0.042300
     63 C11        -0.5690   -2.7110   -0.8670 ce        1 G98     -0.211800
     64 C18         4.0200    0.4220   -3.6830 c3        1 G98      0.154800
     65 N6         -5.8080   -1.5050   -0.1860 nh        1 G98     -0.802200
@<TRIPOS>BOND
     1    1   18 ar  
     2    1   19 ar  
     3    2    3 2   
     4    2    4 1   
     5    3   26 1   
     6    3   27 1   
     7    4    5 ar  
     8    4   18 ar  
     9    5   25 ar  
    10    5   26 1   
    11    6   33 1   
    12    6   34 1   
    13    6   35 1   
    14    6   62 1   
    15    7   27 2   
    16    7   28 1   
    17    7   65 1   
    18    8    9 1   
    19    8   15 1   
    20    8   16 1   
    21    8   17 1   
    22    9   36 1   
    23    9   37 1   
    24    9   38 1   
    25   10   21 1   
    26   10   39 1   
    27   10   40 1   
    28   10   64 1   
    29   11   12 ar  
    30   11   22 ar  
    31   11   41 1   
    32   12   13 ar  
    33   12   42 1   
    34   13   23 ar  
    35   13   43 1   
    36   14   22 ar  
    37   14   23 ar  
    38   14   44 1   
    39   15   45 1   
    40   16   46 1   
    41   16   47 1   
    42   16   48 1   
    43   17   49 1   
    44   17   63 2   
    45   18   63 1   
    46   19   20 1   
    47   19   25 ar  
    48   20   21 1   
    49   21   22 1   
    50   21   51 1   
    51   23   52 1   
    52   24   55 1   
    53   24   56 1   
    54   24   64 1   
    55   25   57 1   
    56   26   62 1   
    57   27   30 1   
    58   28   29 1   
    59   28   60 1   
    60   29   30 1   
    61   30   61 1   
    62   31   62 1   
    63   32   62 1   
    64   50   63 1   
    65   53   64 1   
    66   54   64 1   
    67   58   65 1   
    68   59   65 1   
@<TRIPOS>SUBSTRUCTURE
     1 G98         1 TEMP              0 ****  ****    0 ROOT
