@<TRIPOS>MOLECULE
G9A
   13    12     1     0     0
SMALL
bcc


@<TRIPOS>ATOM
      1 O2          0.8630    0.4920    0.8130 o         1 G9A     -0.883300
      2 C4          1.6700   -0.1100    0.0400 c         1 G9A      0.900600
      3 O1          2.6220   -0.8180    0.5000 o         1 G9A     -0.883300
      4 C1          1.5310   -0.0150   -1.4840 c3        1 G9A     -0.145200
      5 C2          0.4380    0.8670   -1.9460 c2        1 G9A     -0.153200
      6 C3          0.0930    1.1470   -3.2040 ce        1 G9A     -0.245200
      7 C5          0.6860    0.6720   -4.5000 c         1 G9A      0.904800
      8 O4          0.2430   -0.3930   -5.0320 o         1 G9A     -0.874800
      9 O3          1.5500    1.3980   -5.0830 o         1 G9A     -0.874800
     10 H2          2.5100    0.3440   -1.8970 hc        1 G9A      0.040200
     11 H3          1.3730   -1.0540   -1.8780 hc        1 G9A      0.040200
     12 H4         -0.1300    1.3240   -1.1120 ha        1 G9A      0.108000
     13 H5         -0.7550    1.8330   -3.3800 ha        1 G9A      0.066000
@<TRIPOS>BOND
     1    1    2 1   
     2    2    3 1   
     3    2    4 1   
     4    4    5 1   
     5    4   10 1   
     6    4   11 1   
     7    5    6 2   
     8    5   12 1   
     9    6    7 1   
    10    6   13 1   
    11    7    8 1   
    12    7    9 1   
@<TRIPOS>SUBSTRUCTURE
     1 G9A         1 TEMP              0 ****  ****    0 ROOT
