@<TRIPOS>MOLECULE
G9D
   37    40     1     0     0
SMALL
bcc


@<TRIPOS>ATOM
      1 N11        -0.0500   -0.1170    0.1440 n3        1 G9D     -0.719600
      2 N12        -2.8140    0.5210    0.0070 nc        1 G9D     -0.431300
      3 N13        -4.0760    0.8240    0.2300 n         1 G9D     -0.309900
      4 N14        -3.0200    0.2090   -4.7360 na        1 G9D     -0.183400
      5 OAA        -6.2410    1.3890    0.1220 o         1 G9D     -0.630500
      6 CAB        -6.5850    1.1190   -4.0560 ca        1 G9D     -0.127000
      7 CAC        -5.4980    0.7940   -4.8540 ca        1 G9D     -0.114000
      8 CAD        -6.4770    1.2040   -2.6590 ca        1 G9D     -0.089000
      9 CAE        -2.1240    0.0760   -3.6790 cc        1 G9D     -0.078100
     10 CAF         2.0790    0.0980    1.4080 c3        1 G9D      0.126900
     11 CAG         0.4850   -1.4730    2.1560 c3        1 G9D      0.126900
     12 CAH         1.3650    0.2220    0.0560 c3        1 G9D      0.137300
     13 CAI        -0.2650   -1.3890    0.8220 c3        1 G9D      0.137300
     14 CAJ        -0.7160   -0.0350   -1.1420 c3        1 G9D      0.158500
     15 OAN         1.8690   -1.1790    1.9990 os        1 G9D     -0.417600
     16 CAO        -2.2080    0.2920   -1.1290 cd        1 G9D      0.409600
     17 CAP        -5.2270    1.0730   -0.5350 c         1 G9D      0.699100
     18 CAQ        -4.2730    0.5490   -4.2160 ca        1 G9D     -0.060200
     19 CAR        -2.7730    0.3250   -2.4630 cd        1 G9D     -0.226800
     20 CAS        -5.2660    0.9630   -2.0080 ca        1 G9D     -0.099600
     21 CAT        -4.1500    0.6320   -2.7780 ca        1 G9D     -0.044800
     22 HN13       -4.2210    0.9570    1.2230 hn        1 G9D      0.350500
     23 HAB        -7.5610    1.3170   -4.5260 ha        1 G9D      0.140000
     24 HAC        -5.5920    0.7310   -5.9470 ha        1 G9D      0.138000
     25 HAD        -7.3630    1.4660   -2.0570 ha        1 G9D      0.163000
     26 HAE        -1.0800   -0.1880   -3.8640 h4        1 G9D      0.171000
     27 HAF         1.7320    0.8990    2.1120 h1        1 G9D      0.055200
     28 HAFA        3.1890    0.1620    1.2640 h1        1 G9D      0.055200
     29 HAG         0.4660   -2.5250    2.5430 h1        1 G9D      0.055200
     30 HAGA        0.0360   -0.7740    2.9090 h1        1 G9D      0.055200
     31 HAH         1.9050   -0.4290   -0.6920 h1        1 G9D      0.040700
     32 HAHA        1.4450    1.2900   -0.2890 h1        1 G9D      0.040700
     33 HAI        -1.3660   -1.4980    1.0240 h1        1 G9D      0.040700
     34 HAIA        0.0590   -2.2590    0.1770 h1        1 G9D      0.040700
     35 HAJ        -0.6120   -1.0020   -1.7230 h1        1 G9D      0.041700
     36 HAJA       -0.2330    0.7890   -1.7450 h1        1 G9D      0.041700
     37 HN14       -2.8130    0.0840   -5.6900 hn        1 G9D      0.304700
@<TRIPOS>BOND
     1    1   12 1   
     2    1   13 1   
     3    1   14 1   
     4    2    3 1   
     5    2   16 2   
     6    3   17 1   
     7    3   22 1   
     8    4    9 1   
     9    4   18 1   
    10    4   37 1   
    11    5   17 2   
    12    6    7 ar  
    13    6    8 ar  
    14    6   23 1   
    15    7   18 ar  
    16    7   24 1   
    17    8   20 ar  
    18    8   25 1   
    19    9   19 2   
    20    9   26 1   
    21   10   12 1   
    22   10   15 1   
    23   10   27 1   
    24   10   28 1   
    25   11   13 1   
    26   11   15 1   
    27   11   29 1   
    28   11   30 1   
    29   12   31 1   
    30   12   32 1   
    31   13   33 1   
    32   13   34 1   
    33   14   16 1   
    34   14   35 1   
    35   14   36 1   
    36   16   19 1   
    37   17   20 1   
    38   18   21 ar  
    39   19   21 1   
    40   20   21 ar  
@<TRIPOS>SUBSTRUCTURE
     1 G9D         1 TEMP              0 ****  ****    0 ROOT
