@<TRIPOS>MOLECULE
G9D
   37    40     1     0     0
SMALL
bcc


@<TRIPOS>ATOM
      1 N11        -0.0490   -0.1170    0.1430 n3        1 G9D     -0.719600
      2 N12        -2.8130    0.5210    0.0080 nc        1 G9D     -0.431300
      3 N13        -4.0760    0.8230    0.2310 ns        1 G9D     -0.309900
      4 N14        -3.0220    0.2100   -4.7350 na        1 G9D     -0.183400
      5 OAA        -6.2400    1.3880    0.1250 o         1 G9D     -0.630500
      6 CAB        -6.5870    1.1180   -4.0540 ca        1 G9D     -0.127000
      7 CAC        -5.5000    0.7940   -4.8520 ca        1 G9D     -0.114000
      8 CAD        -6.4780    1.2020   -2.6560 ca        1 G9D     -0.089000
      9 CAE        -2.1250    0.0770   -3.6790 cc        1 G9D     -0.078100
     10 CAF         2.0800    0.0980    1.4070 c3        1 G9D      0.126900
     11 CAG         0.4870   -1.4750    2.1530 c3        1 G9D      0.126900
     12 CAH         1.3660    0.2240    0.0550 c3        1 G9D      0.137300
     13 CAI        -0.2630   -1.3890    0.8200 c3        1 G9D      0.137300
     14 CAJ        -0.7160   -0.0340   -1.1430 c3        1 G9D      0.158500
     15 OAN         1.8710   -1.1790    1.9960 os        1 G9D     -0.417600
     16 CAO        -2.2080    0.2930   -1.1290 cd        1 G9D      0.409600
     17 CAP        -5.2260    1.0720   -0.5330 c         1 G9D      0.699100
     18 CAQ        -4.2750    0.5500   -4.2150 ca        1 G9D     -0.060200
     19 CAR        -2.7740    0.3260   -2.4620 cd        1 G9D     -0.226800
     20 CAS        -5.2660    0.9620   -2.0060 ca        1 G9D     -0.099600
     21 CAT        -4.1510    0.6320   -2.7760 ca        1 G9D     -0.044800
     22 HN13       -4.2190    0.9560    1.2250 hn        1 G9D      0.350500
     23 HAB        -7.5630    1.3160   -4.5220 ha        1 G9D      0.140000
     24 HAC        -5.5950    0.7310   -5.9440 ha        1 G9D      0.138000
     25 HAD        -7.3640    1.4640   -2.0540 ha        1 G9D      0.163000
     26 HAE        -1.0810   -0.1850   -3.8650 h4        1 G9D      0.171000
     27 HAF         1.7330    0.8990    2.1120 h1        1 G9D      0.055200
     28 HAFA        3.1900    0.1630    1.2620 h1        1 G9D      0.055200
     29 HAG         0.4680   -2.5270    2.5400 h1        1 G9D      0.055200
     30 HAGA        0.0380   -0.7760    2.9070 h1        1 G9D      0.055200
     31 HAH         1.4450    1.2920   -0.2890 h1        1 G9D      0.040700
     32 HAHA        1.9050   -0.4270   -0.6940 h1        1 G9D      0.040700
     33 HAI        -1.3640   -1.4980    1.0220 h1        1 G9D      0.040700
     34 HAIA        0.0610   -2.2590    0.1740 h1        1 G9D      0.040700
     35 HAJ        -0.2330    0.7910   -1.7450 h1        1 G9D      0.041700
     36 HAJA       -0.6110   -0.9990   -1.7250 h1        1 G9D      0.041700
     37 HN14       -2.8160    0.0850   -5.6900 hn        1 G9D      0.304700
@<TRIPOS>BOND
     1    1   12 1   
     2    1   13 1   
     3    1   14 1   
     4    2    3 1   
     5    2   16 2   
     6    3   17 1   
     7    3   22 1   
     8    4    9 1   
     9    4   18 1   
    10    4   37 1   
    11    5   17 2   
    12    6    7 ar  
    13    6    8 ar  
    14    6   23 1   
    15    7   18 ar  
    16    7   24 1   
    17    8   20 ar  
    18    8   25 1   
    19    9   19 2   
    20    9   26 1   
    21   10   12 1   
    22   10   15 1   
    23   10   27 1   
    24   10   28 1   
    25   11   13 1   
    26   11   15 1   
    27   11   29 1   
    28   11   30 1   
    29   12   31 1   
    30   12   32 1   
    31   13   33 1   
    32   13   34 1   
    33   14   16 1   
    34   14   35 1   
    35   14   36 1   
    36   16   19 1   
    37   17   20 1   
    38   18   21 ar  
    39   19   21 1   
    40   20   21 ar  
@<TRIPOS>SUBSTRUCTURE
     1 G9D         1 TEMP              0 ****  ****    0 ROOT
