@<TRIPOS>MOLECULE
G9D
   37    40     1     0     0
SMALL
bcc


@<TRIPOS>ATOM
      1 N11         2.8380    0.3290    0.1630 n3        1 G9D     -0.719600
      2 N12         0.4290   -1.1700    0.3040 nc        1 G9D     -0.431300
      3 N13        -0.5100   -2.0890    0.3990 n         1 G9D     -0.309900
      4 N14        -2.3850    2.6100   -0.3440 na        1 G9D     -0.183400
      5 OAA        -2.4080   -3.2650    0.5750 o         1 G9D     -0.630500
      6 CAB        -5.0190   -0.0270   -0.0200 ca        1 G9D     -0.127000
      7 CAC        -4.5440    1.2630   -0.2030 ca        1 G9D     -0.114000
      8 CAD        -4.1500   -1.1140    0.1720 ca        1 G9D     -0.089000
      9 CAE        -1.0400    2.2640   -0.2520 cc        1 G9D     -0.078100
     10 CAF         5.2270    0.5020    0.8240 c3        1 G9D      0.126900
     11 CAG         4.6560   -0.9490   -0.9470 c3        1 G9D      0.126900
     12 CAH         3.8610    1.1950    0.7350 c3        1 G9D      0.137300
     13 CAI         3.2790   -0.2900   -1.0800 c3        1 G9D      0.137300
     14 CAJ         1.5550    0.9970    0.0450 c3        1 G9D      0.158500
     15 OAN         5.6240   -0.0430   -0.4290 os        1 G9D     -0.417600
     16 CAO         0.3080    0.1170    0.1110 cd        1 G9D      0.409600
     17 CAP        -1.9130   -2.1320    0.3960 c         1 G9D      0.699100
     18 CAQ        -3.1550    1.4520   -0.1920 ca        1 G9D     -0.060200
     19 CAR        -0.9120    0.8850   -0.0400 cd        1 G9D     -0.226800
     20 CAS        -2.7650   -0.9430    0.1860 ca        1 G9D     -0.099600
     21 CAT        -2.2500    0.3410    0.0030 ca        1 G9D     -0.044800
     22 HN13       -0.0830   -2.9910    0.5690 hn        1 G9D      0.350500
     23 HAB        -6.1040   -0.2110   -0.0230 ha        1 G9D      0.140000
     24 HAC        -5.2310    2.1070   -0.3520 ha        1 G9D      0.138000
     25 HAD        -4.5640   -2.1260    0.3170 ha        1 G9D      0.163000
     26 HAE        -0.2620    3.0250   -0.3430 h4        1 G9D      0.171000
     27 HAF         6.0230    1.2520    1.0690 h1        1 G9D      0.055200
     28 HAFA        5.2070   -0.3100    1.5980 h1        1 G9D      0.055200
     29 HAG         4.6000   -1.8560   -0.2880 h1        1 G9D      0.055200
     30 HAGA        5.0490   -1.2290   -1.9590 h1        1 G9D      0.055200
     31 HAH         3.9830    2.1460    0.1400 h1        1 G9D      0.040700
     32 HAHA        3.5380    1.4740    1.7770 h1        1 G9D      0.040700
     33 HAI         2.5310   -1.0800   -1.3640 h1        1 G9D      0.040700
     34 HAIA        3.3260    0.4640   -1.9210 h1        1 G9D      0.040700
     35 HAJ         1.4520    1.7300    0.8990 h1        1 G9D      0.041700
     36 HAJA        1.4800    1.5770   -0.9240 h1        1 G9D      0.041700
     37 HN14       -2.7420    3.5160   -0.4930 hn        1 G9D      0.304700
@<TRIPOS>BOND
     1    1   12 1   
     2    1   13 1   
     3    1   14 1   
     4    2    3 1   
     5    2   16 2   
     6    3   17 1   
     7    3   22 1   
     8    4    9 1   
     9    4   18 1   
    10    4   37 1   
    11    5   17 2   
    12    6    7 ar  
    13    6    8 ar  
    14    6   23 1   
    15    7   18 ar  
    16    7   24 1   
    17    8   20 ar  
    18    8   25 1   
    19    9   19 2   
    20    9   26 1   
    21   10   12 1   
    22   10   15 1   
    23   10   27 1   
    24   10   28 1   
    25   11   13 1   
    26   11   15 1   
    27   11   29 1   
    28   11   30 1   
    29   12   31 1   
    30   12   32 1   
    31   13   33 1   
    32   13   34 1   
    33   14   16 1   
    34   14   35 1   
    35   14   36 1   
    36   16   19 1   
    37   17   20 1   
    38   18   21 ar  
    39   19   21 1   
    40   20   21 ar  
@<TRIPOS>SUBSTRUCTURE
     1 G9D         1 TEMP              0 ****  ****    0 ROOT
