@<TRIPOS>MOLECULE
G9D
   37    40     1     0     0
SMALL
bcc


@<TRIPOS>ATOM
      1 N11        -0.0490   -0.1140    0.1450 n3        1 G9D     -0.719600
      2 N12        -2.8150    0.5180    0.0080 nc        1 G9D     -0.431300
      3 N13        -4.0790    0.8160    0.2310 n         1 G9D     -0.309900
      4 N14        -3.0190    0.2150   -4.7360 na        1 G9D     -0.183400
      5 OAA        -6.2450    1.3740    0.1240 o         1 G9D     -0.630500
      6 CAB        -6.5870    1.1110   -4.0560 ca        1 G9D     -0.127000
      7 CAC        -5.4990    0.7920   -4.8540 ca        1 G9D     -0.114000
      8 CAD        -6.4790    1.1930   -2.6570 ca        1 G9D     -0.089000
      9 CAE        -2.1220    0.0830   -3.6790 cc        1 G9D     -0.078100
     10 CAF         2.0780    0.1030    1.4100 c3        1 G9D      0.126900
     11 CAG         0.4880   -1.4750    2.1520 c3        1 G9D      0.126900
     12 CAH         1.3650    0.2300    0.0580 c3        1 G9D      0.137300
     13 CAI        -0.2610   -1.3880    0.8180 c3        1 G9D      0.137300
     14 CAJ        -0.7150   -0.0290   -1.1420 c3        1 G9D      0.158500
     15 OAN         1.8720   -1.1760    1.9970 os        1 G9D     -0.417600
     16 CAO        -2.2080    0.2930   -1.1290 cd        1 G9D      0.409600
     17 CAP        -5.2290    1.0630   -0.5340 c         1 G9D      0.699100
     18 CAQ        -4.2730    0.5500   -4.2160 ca        1 G9D     -0.060200
     19 CAR        -2.7730    0.3280   -2.4630 cd        1 G9D     -0.226800
     20 CAS        -5.2680    0.9550   -2.0070 ca        1 G9D     -0.099600
     21 CAT        -4.1510    0.6300   -2.7770 ca        1 G9D     -0.044800
     22 HN13       -4.2230    0.9470    1.2240 hn        1 G9D      0.350500
     23 HAB        -7.5640    1.3060   -4.5240 ha        1 G9D      0.140000
     24 HAC        -5.5930    0.7300   -5.9460 ha        1 G9D      0.138000
     25 HAD        -7.3670    1.4510   -2.0550 ha        1 G9D      0.163000
     26 HAE        -1.0770   -0.1760   -3.8650 h4        1 G9D      0.171000
     27 HAF         1.7290    0.9010    2.1170 h1        1 G9D      0.055200
     28 HAFA        3.1880    0.1710    1.2670 h1        1 G9D      0.055200
     29 HAG         0.0360   -0.7790    2.9070 h1        1 G9D      0.055200
     30 HAGA        0.4710   -2.5280    2.5360 h1        1 G9D      0.055200
     31 HAH         1.4420    1.3000   -0.2830 h1        1 G9D      0.040700
     32 HAHA        1.9060   -0.4170   -0.6920 h1        1 G9D      0.040700
     33 HAI         0.0650   -2.2550    0.1710 h1        1 G9D      0.040700
     34 HAIA       -1.3620   -1.5000    1.0190 h1        1 G9D      0.040700
     35 HAJ        -0.6080   -0.9930   -1.7260 h1        1 G9D      0.041700
     36 HAJA       -0.2340    0.7980   -1.7420 h1        1 G9D      0.041700
     37 HN14       -2.8120    0.0930   -5.6910 hn        1 G9D      0.304700
@<TRIPOS>BOND
     1    1   12 1   
     2    1   13 1   
     3    1   14 1   
     4    2    3 1   
     5    2   16 2   
     6    3   17 1   
     7    3   22 1   
     8    4    9 1   
     9    4   18 1   
    10    4   37 1   
    11    5   17 2   
    12    6    7 ar  
    13    6    8 ar  
    14    6   23 1   
    15    7   18 ar  
    16    7   24 1   
    17    8   20 ar  
    18    8   25 1   
    19    9   19 2   
    20    9   26 1   
    21   10   12 1   
    22   10   15 1   
    23   10   27 1   
    24   10   28 1   
    25   11   13 1   
    26   11   15 1   
    27   11   29 1   
    28   11   30 1   
    29   12   31 1   
    30   12   32 1   
    31   13   33 1   
    32   13   34 1   
    33   14   16 1   
    34   14   35 1   
    35   14   36 1   
    36   16   19 1   
    37   17   20 1   
    38   18   21 ar  
    39   19   21 1   
    40   20   21 ar  
@<TRIPOS>SUBSTRUCTURE
     1 G9D         1 TEMP              0 ****  ****    0 ROOT
