@<TRIPOS>MOLECULE
G9D
   37    34     1     0     0
SMALL
bcc


@<TRIPOS>ATOM
      1 N11         1.3230   -0.9220    1.6980 n3        1 G9D     -0.719600
      2 N12        -1.1050    0.1950    0.7860 n1        1 G9D     -0.011000
      3 N13        -1.4640    1.5030    0.7870 n2        1 G9D     -0.533400
      4 N14        -0.0640    0.5620   -3.8590 ne        1 G9D     -0.478400
      5 OAA        -3.5470    2.3740    0.2040 o         1 G9D     -0.620300
      6 CAB        -3.3190    1.8290   -3.4840 c1        1 G9D     -0.050500
      7 CAC        -2.0080    1.9050   -4.0280 c1        1 G9D     -0.056500
      8 CAD        -3.5090    1.3620   -2.1720 c1        1 G9D     -0.050500
      9 CAE         0.2870   -0.3860   -2.9120 c1        1 G9D      0.232500
     10 CAF         3.1620   -0.4130    3.2310 c3        1 G9D      0.126900
     11 CAG         1.4210   -1.8510    3.9200 c3        1 G9D      0.126900
     12 CAH         2.7190   -0.5780    1.8020 c3        1 G9D      0.137300
     13 CAI         0.9780   -2.0180    2.4960 c3        1 G9D      0.137300
     14 CAJ         1.0010   -1.2190    0.3220 c3        1 G9D      0.238000
     15 OAN         2.8160   -1.5070    4.0250 os        1 G9D     -0.417600
     16 CAO        -0.1280   -0.2810   -0.1560 ce        1 G9D     -0.044200
     17 CAP        -2.5580    1.7300   -0.0870 cf        1 G9D      0.570500
     18 CAQ        -0.8860    1.5070   -3.2400 cg        1 G9D      0.037000
     19 CAR        -0.3280   -0.0250   -1.6800 ce        1 G9D     -0.181800
     20 CAS        -2.3850    0.9630   -1.3840 ch        1 G9D     -0.048200
     21 CAT        -1.0750    1.1130   -1.8960 cg        1 G9D     -0.066300
     22 HN13       -1.0230    2.1750    1.2710 hn        1 G9D      0.508400
     23 HAB        -4.1060    2.0010   -4.0660 ha        1 G9D      0.094000
     24 HAC        -1.8760    2.2270   -4.9380 ha        1 G9D      0.080500
     25 HAD        -4.4320    1.3100   -1.7900 ha        1 G9D      0.094000
     26 HAE         0.8970   -1.1210   -3.0460 DU        1 G9D      0.213000
     27 HAF         2.7420    0.3990    3.6020 h1        1 G9D      0.055200
     28 HAFA        4.1280   -0.3060    3.2510 h1        1 G9D      0.055200
     29 HAG         1.2700   -2.6700    4.3880 h1        1 G9D      0.055200
     30 HAGA        0.8970   -1.1580    4.3290 h1        1 G9D      0.055200
     31 HAH         3.2610   -1.2950    1.3750 h1        1 G9D      0.040700
     32 HAHA        2.8710    0.2500    1.3330 h1        1 G9D      0.040700
     33 HAI        -0.0260   -2.1320    2.4790 h1        1 G9D      0.040700
     34 HAIA        1.4030   -2.8370    2.1190 h1        1 G9D      0.040700
     35 HAJ         1.7520   -1.0920   -0.2060 h1        1 G9D      0.041700
     36 HAJA        0.6960   -2.1760    0.2470 h1        1 G9D      0.041700
     37 HN14        0.2170    0.5830   -4.7190 DU        1 G9D      0.213000
@<TRIPOS>BOND
     1    1   12 1   
     2    1   13 1   
     3    1   14 1   
     4    2   16 2   
     5    3   17 2   
     6    3   22 1   
     7    4    9 2   
     8    4   18 1   
     9    5   17 1   
    10    6    8 3   
    11    6   23 1   
    12    7   18 3   
    13    7   24 1   
    14    8   25 1   
    15    9   19 2   
    16   10   12 1   
    17   10   15 1   
    18   10   27 1   
    19   10   28 1   
    20   11   13 1   
    21   11   15 1   
    22   11   29 1   
    23   11   30 1   
    24   12   31 1   
    25   12   32 1   
    26   13   33 1   
    27   13   34 1   
    28   14   16 1   
    29   14   35 1   
    30   14   36 1   
    31   16   19 1   
    32   17   20 1   
    33   19   21 1   
    34   20   21 3   
@<TRIPOS>SUBSTRUCTURE
     1 G9D         1 TEMP              0 ****  ****    0 ROOT
