@<TRIPOS>MOLECULE
G9F
   52    49     1     0     0
SMALL
bcc


@<TRIPOS>ATOM
      1 N11        -0.4890    1.7950   -2.7110 n4        1 G9F     -0.001000
      2 N12        -1.1280    4.3240   -5.6990 n2        1 G9F     -0.200000
      3 N13        -0.5230    5.3190   -7.6750 na        1 G9F     -0.069000
      4 N14        -1.6650    9.7830   -7.9450 n2        1 G9F     -0.261000
      5 CAA         0.5280    2.5640   -3.4750 c3        1 G9F     -0.195000
      6 CAB        -0.3520    2.0650   -1.2570 c3        1 G9F     -0.195000
      7 CAD        -2.3870    6.0530  -12.8470 c2        1 G9F     -0.525000
      8 CAE        -3.2490    7.5020   -8.0080 c1        1 G9F      0.381000
      9 CAF         0.0530   -1.8070   -5.5930 c1        1 G9F     -0.177000
     10 CAG        -1.0770    5.5780   -0.9590 c1        1 G9F     -0.229000
     11 CAH         1.3460    2.2930   -7.3130 c1        1 G9F     -0.157000
     12 CAI        -1.0750    5.5600   -2.1550 c1        1 G9F     -0.229000
     13 CAJ        -1.8070    5.8410  -11.7030 c1        1 G9F      0.126000
     14 CAK        -2.2910    1.3690   -4.4370 c3        1 G9F     -0.215000
     15 CAL        -1.1140   10.9000   -7.6520 c2        1 G9F     -0.008000
     16 CAM        -2.5670   -0.1010   -4.1940 c3        1 G9F     -0.042000
     17 CAN        -1.8820    2.1160   -3.1770 c3        1 G9F     -0.117000
     18 CAO         0.1490    5.5560   -8.9160 c3        1 G9F     -0.121000
     19 OAR        -1.3570   -0.7770   -3.7710 os        1 G9F     -0.159000
     20 CAS        -1.0320    8.5310   -7.6770 c2        1 G9F      0.330000
     21 CAT        -0.6400   -1.2920   -4.7680 c1        1 G9F     -0.112000
     22 CAU         0.5770    3.1800   -7.0810 c1        1 G9F     -0.122000
     23 CAV        -1.9790    7.3850   -7.6040 c2        1 G9F     -0.402000
     24 CAW        -0.3270    4.2250   -6.8110 c2        1 G9F      0.042000
     25 CAX        -1.8390    5.4960   -5.8510 c2        1 G9F     -0.175000
     26 CAY        -1.4810    6.1340   -7.0690 c2        1 G9F     -0.018000
     27 HN14       -0.1320   11.0340   -7.1560 h4        1 G9F      0.139000
     28 HAA         0.4150    2.3500   -4.5740 hx        1 G9F      0.142833
     29 HAAA        0.3730    3.6650   -3.3000 hx        1 G9F      0.142833
     30 HAAB        1.5520    2.2630   -3.1310 hx        1 G9F      0.142833
     31 HAB        -0.5880    3.1470   -1.0560 hx        1 G9F      0.142833
     32 HABA       -1.0610    1.4090   -0.6860 hx        1 G9F      0.142833
     33 HABB        0.7010    1.8440   -0.9380 hx        1 G9F      0.142833
     34 HAD        -1.9450    5.7800  -13.8200 ha        1 G9F      0.203000
     35 HAE        -3.3770    6.5300  -12.9540 ha        1 G9F      0.203000
     36 HAF         2.0330    1.5130   -7.5350 ha        1 G9F      0.239000
     37 HAG        -1.0810    5.6180    0.1040 ha        1 G9F      0.231500
     38 HAH         0.6700   -2.2770   -6.3180 ha        1 G9F      0.255000
     39 HAI        -1.0790    5.5900   -3.2190 ha        1 G9F      0.231500
     40 HAJ        -2.5660    5.8400   -5.1160 h4        1 G9F      0.182000
     41 HAK        -1.5220    1.4910   -5.2450 hc        1 G9F      0.141000
     42 HAKA       -3.2370    1.8510   -4.8110 hc        1 G9F      0.141000
     43 HAL        -0.6040    5.6190   -9.7550 h1        1 G9F      0.128000
     44 HALA       -1.6690   11.8240   -7.9110 h4        1 G9F      0.139000
     45 HAM        -2.9930   -0.5820   -5.1120 h1        1 G9F      0.128500
     46 HAMA       -3.2570   -0.2620   -3.3220 h1        1 G9F      0.128500
     47 HAN        -2.5890    1.8490   -2.3390 hx        1 G9F      0.145500
     48 HANA       -1.9350    3.2300   -3.3560 hx        1 G9F      0.145500
     49 HAO         0.7170    6.5260   -8.8530 h1        1 G9F      0.128000
     50 HAOA        0.8640    4.7160   -9.1180 h1        1 G9F      0.128000
     51 H111       -0.3230    0.7870   -2.8750 hn        1 G9F      0.262000
     52 OAC         0.1950    8.3830   -7.5740 o         1 G9F     -0.308000
@<TRIPOS>BOND
     1    1    5 1   
     2    1    6 1   
     3    1   17 1   
     4    1   51 1   
     5    2   24 1   
     6    2   25 1   
     7    3   18 1   
     8    3   24 1   
     9    3   26 1   
    10    4   15 1   
    11    4   20 1   
    12    5   28 1   
    13    5   29 1   
    14    5   30 1   
    15    6   31 1   
    16    6   32 1   
    17    6   33 1   
    18    7   13 1   
    19    7   34 1   
    20    7   35 1   
    21    8   23 1   
    22    9   21 1   
    23    9   38 1   
    24   10   12 1   
    25   10   37 1   
    26   11   22 1   
    27   11   36 1   
    28   12   39 1   
    29   14   16 1   
    30   14   17 1   
    31   14   41 1   
    32   14   42 1   
    33   15   27 1   
    34   15   44 1   
    35   16   19 1   
    36   16   45 1   
    37   16   46 1   
    38   17   47 1   
    39   17   48 1   
    40   18   43 1   
    41   18   49 1   
    42   18   50 1   
    43   19   21 1   
    44   20   23 1   
    45   20   52 1   
    46   22   24 1   
    47   23   26 1   
    48   25   26 1   
    49   25   40 1   
@<TRIPOS>SUBSTRUCTURE
     1 G9F         1 TEMP              0 ****  ****    0 ROOT
