@<TRIPOS>MOLECULE
G9F
   52    49     1     0     0
SMALL
bcc


@<TRIPOS>ATOM
      1 N11        -0.1930   -0.2860   -0.3580 n7        1 G9F     -0.319000
      2 N12        -1.3690    3.6310  -10.4640 n2        1 G9F      0.011000
      3 N13        -1.0790    5.3930   -8.9150 na        1 G9F     -0.040000
      4 N14        -1.8370    9.6480   -9.6940 n2        1 G9F     -0.241000
      5 CAA         1.2310   -0.4790   -0.4590 c3        1 G9F     -0.133000
      6 CAB        -0.9530   -1.5090   -0.4160 c3        1 G9F     -0.133000
      7 CAD        -0.9040    8.5380  -14.0930 c2        1 G9F      0.010000
      8 CAE        -1.3870    7.6960  -11.7180 c1        1 G9F      0.058000
      9 CAF        -0.1440    3.6980   -5.3270 c1        1 G9F      0.040000
     10 CAG        -3.0700    2.3440   -2.8020 c1        1 G9F     -0.230000
     11 CAH        -0.3420    2.2190   -7.2520 c2        1 G9F     -0.087000
     12 CAI        -4.0570    2.9870   -2.5930 c1        1 G9F     -0.151000
     13 CAJ        -1.1570    8.1070  -12.8840 c1        1 G9F     -0.141000
     14 CAK         0.1990    3.5260   -0.8000 c2        1 G9F     -0.229500
     15 CAL        -2.6650   10.5920   -9.4530 c2        1 G9F     -0.003000
     16 CAM        -1.8990    1.5420   -3.0210 c3        1 G9F      0.082000
     17 CAN         0.9580    4.5080   -1.2710 c2        1 G9F     -0.229500
     18 CAO        -0.8010    6.0240   -7.6560 c3        1 G9F     -0.132000
     19 OAR        -1.2250    1.8760   -4.2480 os        1 G9F     -0.208000
     20 CAS        -2.1260    8.2820   -9.4490 c2        1 G9F      0.310000
     21 CAT        -0.5450    3.0790   -4.2240 c2        1 G9F     -0.267000
     22 CAU        -0.6870    3.0710   -8.1610 c1        1 G9F      0.024000
     23 CAV        -1.6270    7.3140  -10.4690 c2        1 G9F     -0.119000
     24 CAW        -1.0230    3.9380   -9.1040 c2        1 G9F     -0.049000
     25 CAX        -1.6080    4.7840  -11.0550 c2        1 G9F     -0.112000
     26 CAY        -1.4410    5.9320  -10.0970 c2        1 G9F      0.146000
     27 HN14       -3.7050   10.4770   -9.0860 h4        1 G9F      0.143000
     28 HAA         1.6570   -1.1380    0.3480 h1        1 G9F      0.072333
     29 HAAA        1.4680   -0.9480   -1.4500 h1        1 G9F      0.072333
     30 HAAB        1.7360    0.5210   -0.4030 h1        1 G9F      0.072333
     31 HAB        -0.7790   -2.0020   -1.4090 h1        1 G9F      0.072333
     32 HABA       -0.6850   -2.2460    0.3900 h1        1 G9F      0.072333
     33 HABB       -2.0430   -1.2620   -0.3220 h1        1 G9F      0.072333
     34 HAD        -0.5510    7.8660  -14.8930 ha        1 G9F      0.169000
     35 HAE        -1.0340    9.6000  -14.3690 ha        1 G9F      0.169000
     36 HAF         0.7110    1.9050   -7.1120 ha        1 G9F      0.206500
     37 HAG        -0.2960    3.5060   -3.2240 h4        1 G9F      0.205000
     38 HAH        -1.0770    1.7290   -6.5770 ha        1 G9F      0.206500
     39 HAI        -4.9340    3.5550   -2.4010 ha        1 G9F      0.232000
     40 HAJ        -1.9030    4.9030  -12.1030 h4        1 G9F      0.221000
     41 HAK        -0.8220    3.6920   -0.4290 ha        1 G9F      0.116500
     42 HAKA        0.5460    2.4850   -0.7310 ha        1 G9F      0.116500
     43 HAL        -0.2220    6.9710   -7.8320 h1        1 G9F      0.148667
     44 HALA       -2.3180   11.6290   -9.6380 h4        1 G9F      0.143000
     45 HAM        -1.1830    1.6300   -2.1550 h1        1 G9F      0.136500
     46 HAMA       -2.1710    0.4590   -3.1850 h1        1 G9F      0.136500
     47 HAN         0.6160    5.5510   -1.3200 ha        1 G9F      0.116500
     48 HANA        1.9860    4.3460   -1.6230 ha        1 G9F      0.116500
     49 HAO        -1.7720    6.2810   -7.1430 h1        1 G9F      0.148667
     50 HAOA       -0.2100    5.3170   -7.0030 h1        1 G9F      0.148667
     51 H111       -0.4130    0.2160    0.4830 hn        1 G9F      0.153000
     52 OAC        -2.6850    7.8780   -8.4130 o         1 G9F     -0.325000
@<TRIPOS>BOND
     1    1    5 1   
     2    1    6 1   
     3    1   51 1   
     4    2   24 1   
     5    2   25 1   
     6    3   18 1   
     7    3   24 1   
     8    3   26 1   
     9    4   15 1   
    10    4   20 1   
    11    5   28 1   
    12    5   29 1   
    13    5   30 1   
    14    6   31 1   
    15    6   32 1   
    16    6   33 1   
    17    7   13 1   
    18    7   34 1   
    19    7   35 1   
    20    8   13 1   
    21    8   23 1   
    22    9   21 1   
    23   10   12 1   
    24   10   16 1   
    25   11   22 1   
    26   11   36 1   
    27   11   38 1   
    28   12   39 1   
    29   14   17 1   
    30   14   41 1   
    31   14   42 1   
    32   15   27 1   
    33   15   44 1   
    34   16   19 1   
    35   16   45 1   
    36   16   46 1   
    37   17   47 1   
    38   17   48 1   
    39   18   43 1   
    40   18   49 1   
    41   18   50 1   
    42   19   21 1   
    43   20   23 1   
    44   20   52 1   
    45   21   37 1   
    46   22   24 1   
    47   23   26 1   
    48   25   26 1   
    49   25   40 1   
@<TRIPOS>SUBSTRUCTURE
     1 G9F         1 TEMP              0 ****  ****    0 ROOT
