@<TRIPOS>MOLECULE
G9G
   40    43     1     0     0
SMALL
bcc


@<TRIPOS>ATOM
      1 N11         5.1960   -0.7150    0.1320 n3        1 G9G     -0.720600
      2 N12         2.5630    0.4900   -0.3780 nh        1 G9G     -0.720300
      3 N13        -2.8140    2.0570   -0.1340 n         1 G9G     -0.445100
      4 N14         0.2120   -0.0790   -0.1370 nb        1 G9G     -0.679000
      5 CAA         5.2410   -1.6400    1.2430 c3        1 G9G      0.147100
      6 OAB        -5.0230    1.5580    0.0030 o         1 G9G     -0.631500
      7 CAC        -4.2110   -2.5980    0.2160 ca        1 G9G     -0.138000
      8 CAD        -2.8770   -3.0130    0.1760 ca        1 G9G     -0.108000
      9 CAE         0.8680    2.2550   -0.3320 ca        1 G9G     -0.203300
     10 CAF        -4.5160   -1.2430    0.1500 ca        1 G9G     -0.074000
     11 CAG        -1.8490   -2.0810    0.0700 ca        1 G9G     -0.110000
     12 CAH        -0.4510    2.6550   -0.2890 ca        1 G9G     -0.137000
     13 CAI         4.3360   -1.1520   -0.9560 c3        1 G9G      0.160300
     14 CAJ         4.8790    0.6490    0.5230 c3        1 G9G      0.160300
     15 CAK         2.8260   -0.8960   -0.7460 c3        1 G9G      0.145300
     16 CAL         3.3780    0.9410    0.7460 c3        1 G9G      0.145300
     17 CAO         1.1830    0.8600   -0.2560 ca        1 G9G      0.583200
     18 CAP        -3.8520    1.1320   -0.0270 c         1 G9G      0.711100
     19 CAQ        -1.4780    1.6830   -0.1760 ca        1 G9G     -0.042700
     20 CAR        -3.4860   -0.2970    0.0430 ca        1 G9G     -0.139600
     21 CAS        -2.1400   -0.7080    0.0020 ca        1 G9G     -0.089500
     22 CAT        -1.0870    0.3080   -0.1090 ca        1 G9G      0.430800
     23 HN13       -3.0430    3.0250   -0.1890 hn        1 G9G      0.334500
     24 HAA         5.5770   -2.6410    0.8650 h1        1 G9G      0.033033
     25 HAAA        5.9910   -1.2710    1.9910 h1        1 G9G      0.033033
     26 HAAB        4.2520   -1.7690    1.7620 h1        1 G9G      0.033033
     27 HAC        -5.0180   -3.3410    0.3000 ha        1 G9G      0.140000
     28 HAD        -2.6370   -4.0860    0.2280 ha        1 G9G      0.137000
     29 HAE         1.6710    3.0000   -0.4380 ha        1 G9G      0.154000
     30 HAF        -5.5610   -0.8930    0.1790 ha        1 G9G      0.162000
     31 HAG        -0.8050   -2.4280    0.0400 ha        1 G9G      0.158000
     32 HAH        -0.7040    3.7250   -0.3480 ha        1 G9G      0.144000
     33 HAI         4.6770   -0.6060   -1.8800 h1        1 G9G      0.060450
     34 HAIA        4.4750   -2.2540   -1.1270 h1        1 G9G      0.060450
     35 HAJ         5.4230    0.9070    1.4730 h1        1 G9G      0.060450
     36 HAJA        5.2620    1.3200   -0.2970 h1        1 G9G      0.060450
     37 HAK         2.4440   -1.6200    0.0300 h1        1 G9G      0.046700
     38 HAKA        2.2920   -1.1050   -1.7130 h1        1 G9G      0.046700
     39 HAL         3.2470    2.0530    0.8550 h1        1 G9G      0.046700
     40 HALA        3.0520    0.4550    1.7110 h1        1 G9G      0.046700
@<TRIPOS>BOND
     1    1    5 1   
     2    1   13 1   
     3    1   14 1   
     4    2   15 1   
     5    2   16 1   
     6    2   17 1   
     7    3   18 1   
     8    3   19 1   
     9    3   23 1   
    10    4   17 ar  
    11    4   22 ar  
    12    5   24 1   
    13    5   25 1   
    14    5   26 1   
    15    6   18 2   
    16    7    8 ar  
    17    7   10 ar  
    18    7   27 1   
    19    8   11 ar  
    20    8   28 1   
    21    9   12 ar  
    22    9   17 ar  
    23    9   29 1   
    24   10   20 ar  
    25   10   30 1   
    26   11   21 ar  
    27   11   31 1   
    28   12   19 ar  
    29   12   32 1   
    30   13   15 1   
    31   13   33 1   
    32   13   34 1   
    33   14   16 1   
    34   14   35 1   
    35   14   36 1   
    36   15   37 1   
    37   15   38 1   
    38   16   39 1   
    39   16   40 1   
    40   18   20 1   
    41   19   22 ar  
    42   20   21 ar  
    43   21   22 1   
@<TRIPOS>SUBSTRUCTURE
     1 G9G         1 TEMP              0 ****  ****    0 ROOT
