@<TRIPOS>MOLECULE
G9G
   40    36     1     0     0
SMALL
bcc


@<TRIPOS>ATOM
      1 N11        -2.2100   -0.0400   -3.8580 n3        1 G9G     -0.720600
      2 N12        -1.0870   -1.2470   -1.5270 n3        1 G9G     -0.583200
      3 N13         1.3550   -1.6910    3.5230 n         1 G9G     -0.458700
      4 N14         0.2140   -0.1000    0.3410 n1        1 G9G     -0.478800
      5 CAA        -2.2380    1.3370   -3.5490 c3        1 G9G      0.147100
      6 OAB         2.5670   -0.7780    5.2130 o         1 G9G     -0.595100
      7 CAC         3.1610    2.9090    3.2380 c1        1 G9G     -0.060000
      8 CAD         2.5500    3.0830    2.0020 c1        1 G9G     -0.060000
      9 CAE        -0.6670   -2.3380    0.4710 c1        1 G9G     -0.060000
     10 CAF         3.0100    1.7050    3.9280 c1        1 G9G     -0.060000
     11 CAG         1.7820    2.0500    1.4460 c1        1 G9G     -0.060000
     12 CAH        -0.0400   -2.5210    1.6720 c1        1 G9G     -0.060000
     13 CAI        -0.8620   -0.4970   -3.8580 c3        1 G9G      0.160300
     14 CAJ        -3.0340   -0.7510   -2.9340 c3        1 G9G      0.160300
     15 CAK        -0.2600   -0.5330   -2.4550 c3        1 G9G      0.145300
     16 CAL        -2.4390   -0.7890   -1.5310 c3        1 G9G      0.145300
     17 CAO        -0.5420   -1.1170   -0.2040 c1        1 G9G      0.443600
     18 CAP         2.0970   -0.6480    4.0940 c         1 G9G      0.623300
     19 CAQ         0.7150   -1.5050    2.2170 c1        1 G9G      0.036200
     20 CAR         2.2340    0.6590    3.3680 cg        1 G9G     -0.088200
     21 CAS         1.6290    0.8320    2.1430 c1        1 G9G      0.018000
     22 CAT         0.8410   -0.2810    1.5380 c1        1 G9G     -0.005000
     23 HN13        1.2020   -2.4290    3.9870 hn        1 G9G      0.334500
     24 HAA        -1.9900    1.4640   -2.6300 h1        1 G9G      0.033033
     25 HAAA       -1.5880    1.8280   -4.1430 h1        1 G9G      0.033033
     26 HAAB       -3.1100    1.6740   -3.6890 h1        1 G9G      0.033033
     27 HAC         3.7130    3.6520    3.6370 ha        1 G9G      0.091667
     28 HAD         2.6560    3.9270    1.5190 ha        1 G9G      0.091667
     29 HAE        -1.1280   -3.0960    0.0360 ha        1 G9G      0.091667
     30 HAF         3.4500    1.5790    4.8180 ha        1 G9G      0.091667
     31 HAG         1.3530    2.1740    0.5770 ha        1 G9G      0.091667
     32 HAH        -0.1250   -3.3630    2.1370 ha        1 G9G      0.091667
     33 HAI        -0.8340   -1.3770   -4.2300 h1        1 G9G      0.060450
     34 HAIA       -0.3300    0.0950   -4.4130 h1        1 G9G      0.060450
     35 HAJ        -3.1410   -1.6380   -3.2430 h1        1 G9G      0.060450
     36 HAJA       -3.9130   -0.3190   -2.8940 h1        1 G9G      0.060450
     37 HAK         0.6200   -0.9680   -2.4970 h1        1 G9G      0.046700
     38 HAKA       -0.1470    0.3690   -2.1410 h1        1 G9G      0.046700
     39 HAL        -2.9970   -1.4110   -0.9570 h1        1 G9G      0.046700
     40 HALA       -2.4720    0.0960   -1.1550 h1        1 G9G      0.046700
@<TRIPOS>BOND
     1    1    5 1   
     2    1   13 1   
     3    1   14 1   
     4    2   15 1   
     5    2   16 1   
     6    2   17 1   
     7    3   18 1   
     8    3   19 1   
     9    3   23 1   
    10    4   17 3   
    11    5   24 1   
    12    5   25 1   
    13    5   26 1   
    14    6   18 2   
    15    7   10 3   
    16    7   27 1   
    17    8   11 3   
    18    8   28 1   
    19    9   12 3   
    20    9   29 1   
    21   10   30 1   
    22   11   31 1   
    23   12   32 1   
    24   13   15 1   
    25   13   33 1   
    26   13   34 1   
    27   14   16 1   
    28   14   35 1   
    29   14   36 1   
    30   15   37 1   
    31   15   38 1   
    32   16   39 1   
    33   16   40 1   
    34   18   20 1   
    35   19   22 3   
    36   20   21 3   
@<TRIPOS>SUBSTRUCTURE
     1 G9G         1 TEMP              0 ****  ****    0 ROOT
