@<TRIPOS>MOLECULE
G9G
   40    43     1     0     0
SMALL
bcc


@<TRIPOS>ATOM
      1 N11        -0.1090   -0.1200   -0.1310 n3        1 G9G     -0.720600
      2 N12         1.3510   -1.0690    2.2370 nh        1 G9G     -0.720300
      3 N13         3.7140   -1.5880    7.2950 ns        1 G9G     -0.445100
      4 N14         2.7380   -0.1650    4.0180 nb        1 G9G     -0.679000
      5 CAA        -0.6160    1.2320   -0.0370 c3        1 G9G      0.147100
      6 OAB         5.0680   -0.8140    8.9420 o         1 G9G     -0.631500
      7 CAC         5.9420    2.7110    6.7550 ca        1 G9G     -0.138000
      8 CAD         5.3510    2.8730    5.4990 ca        1 G9G     -0.108000
      9 CAE         1.6590   -2.3250    4.3160 ca        1 G9G     -0.203300
     10 CAF         5.6780    1.5690    7.5010 ca        1 G9G     -0.074000
     11 CAG         4.4990    1.8990    4.9880 ca        1 G9G     -0.110000
     12 CAH         2.2460   -2.4740    5.5550 ca        1 G9G     -0.137000
     13 CAI         1.3430   -0.2020   -0.0910 c3        1 G9G      0.160300
     14 CAJ        -0.7040   -1.0330    0.8320 c3        1 G9G      0.160300
     15 CAK         1.9680   -0.1190    1.3200 c3        1 G9G      0.145300
     16 CAL        -0.1050   -0.9740    2.2550 c3        1 G9G      0.145300
     17 CAO         1.9250   -1.1440    3.5490 ca        1 G9G      0.583200
     18 CAP         4.5680   -0.6180    7.8170 c         1 G9G      0.711100
     19 CAQ         3.1070   -1.4620    6.0520 ca        1 G9G     -0.042700
     20 CAR         4.8210    0.5820    6.9940 ca        1 G9G     -0.139600
     21 CAS         4.2210    0.7390    5.7300 ca        1 G9G     -0.089500
     22 CAT         3.3280   -0.3130    5.2280 ca        1 G9G      0.430800
     23 HN13        3.5370   -2.4070    7.8340 hn        1 G9G      0.334500
     24 HAA        -0.3790    1.7350    0.9400 h1        1 G9G      0.033033
     25 HAAA       -0.1720    1.8410   -0.8680 h1        1 G9G      0.033033
     26 HAAB       -1.7300    1.2100   -0.1660 h1        1 G9G      0.033033
     27 HAC         6.6140    3.4860    7.1520 ha        1 G9G      0.140000
     28 HAD         5.5610    3.7780    4.9090 ha        1 G9G      0.137000
     29 HAE         1.0050   -3.1120    3.9130 ha        1 G9G      0.154000
     30 HAF         6.1340    1.4200    8.4940 ha        1 G9G      0.162000
     31 HAG         4.0430    2.0450    3.9960 ha        1 G9G      0.158000
     32 HAH         2.0500   -3.3790    6.1510 ha        1 G9G      0.144000
     33 HAI         1.6260   -1.1860   -0.5610 h1        1 G9G      0.060450
     34 HAIA        1.7840    0.6250   -0.7110 h1        1 G9G      0.060450
     35 HAJ        -0.5660   -2.0730    0.4210 h1        1 G9G      0.060450
     36 HAJA       -1.8060   -0.8290    0.9150 h1        1 G9G      0.060450
     37 HAK         1.8810    0.9430    1.6890 h1        1 G9G      0.046700
     38 HAKA        3.0610   -0.3730    1.2400 h1        1 G9G      0.046700
     39 HAL        -0.4500   -0.0220    2.7550 h1        1 G9G      0.046700
     40 HALA       -0.5100   -1.8420    2.8440 h1        1 G9G      0.046700
@<TRIPOS>BOND
     1    1    5 1   
     2    1   13 1   
     3    1   14 1   
     4    2   15 1   
     5    2   16 1   
     6    2   17 1   
     7    3   18 1   
     8    3   19 1   
     9    3   23 1   
    10    4   17 ar  
    11    4   22 ar  
    12    5   24 1   
    13    5   25 1   
    14    5   26 1   
    15    6   18 2   
    16    7    8 ar  
    17    7   10 ar  
    18    7   27 1   
    19    8   11 ar  
    20    8   28 1   
    21    9   12 ar  
    22    9   17 ar  
    23    9   29 1   
    24   10   20 ar  
    25   10   30 1   
    26   11   21 ar  
    27   11   31 1   
    28   12   19 ar  
    29   12   32 1   
    30   13   15 1   
    31   13   33 1   
    32   13   34 1   
    33   14   16 1   
    34   14   35 1   
    35   14   36 1   
    36   15   37 1   
    37   15   38 1   
    38   16   39 1   
    39   16   40 1   
    40   18   20 1   
    41   19   22 ar  
    42   20   21 ar  
    43   21   22 1   
@<TRIPOS>SUBSTRUCTURE
     1 G9G         1 TEMP              0 ****  ****    0 ROOT
