@<TRIPOS>MOLECULE
G9G
   40    43     1     0     0
SMALL
bcc


@<TRIPOS>ATOM
      1 N11        -0.1120   -0.1150   -0.1290 n3        1 G9G     -0.720600
      2 N12         1.3530   -1.0670    2.2350 nh        1 G9G     -0.720300
      3 N13         3.7200   -1.5950    7.2900 n         1 G9G     -0.445100
      4 N14         2.7380   -0.1650    4.0170 nb        1 G9G     -0.679000
      5 CAA        -0.6210    1.2350   -0.0320 c3        1 G9G      0.147100
      6 OAB         5.0740   -0.8220    8.9380 o         1 G9G     -0.631500
      7 CAC         5.9370    2.7120    6.7600 ca        1 G9G     -0.138000
      8 CAD         5.3450    2.8750    5.5050 ca        1 G9G     -0.108000
      9 CAE         1.6650   -2.3280    4.3100 ca        1 G9G     -0.203300
     10 CAF         5.6770    1.5670    7.5030 ca        1 G9G     -0.074000
     11 CAG         4.4950    1.9010    4.9920 ca        1 G9G     -0.110000
     12 CAH         2.2530   -2.4790    5.5490 ca        1 G9G     -0.137000
     13 CAI         1.3410   -0.1950   -0.0910 c3        1 G9G      0.160300
     14 CAJ        -0.7040   -1.0320    0.8310 c3        1 G9G      0.160300
     15 CAK         1.9670   -0.1140    1.3200 c3        1 G9G      0.145300
     16 CAL        -0.1040   -0.9750    2.2540 c3        1 G9G      0.145300
     17 CAO         1.9280   -1.1450    3.5460 ca        1 G9G      0.583200
     18 CAP         4.5720   -0.6240    7.8140 c         1 G9G      0.711100
     19 CAQ         3.1120   -1.4670    6.0480 ca        1 G9G     -0.042700
     20 CAR         4.8220    0.5790    6.9940 ca        1 G9G     -0.139600
     21 CAS         4.2210    0.7370    5.7310 ca        1 G9G     -0.089500
     22 CAT         3.3300   -0.3150    5.2270 ca        1 G9G      0.430800
     23 HN13        3.5450   -2.4150    7.8270 hn        1 G9G      0.334500
     24 HAA        -0.1790    1.8480   -0.8610 h1        1 G9G      0.033033
     25 HAAA       -1.7350    1.2120   -0.1590 h1        1 G9G      0.033033
     26 HAAB       -0.3840    1.7360    0.9470 h1        1 G9G      0.033033
     27 HAC         6.6080    3.4870    7.1590 ha        1 G9G      0.140000
     28 HAD         5.5520    3.7820    4.9160 ha        1 G9G      0.137000
     29 HAE         1.0120   -3.1160    3.9060 ha        1 G9G      0.154000
     30 HAF         6.1340    1.4160    8.4960 ha        1 G9G      0.162000
     31 HAG         4.0380    2.0480    4.0010 ha        1 G9G      0.158000
     32 HAH         2.0590   -3.3860    6.1430 ha        1 G9G      0.144000
     33 HAI         1.7800    0.6350   -0.7090 h1        1 G9G      0.060450
     34 HAIA        1.6250   -1.1770   -0.5640 h1        1 G9G      0.060450
     35 HAJ        -0.5640   -2.0710    0.4180 h1        1 G9G      0.060450
     36 HAJA       -1.8060   -0.8310    0.9160 h1        1 G9G      0.060450
     37 HAK         3.0600   -0.3660    1.2390 h1        1 G9G      0.046700
     38 HAKA        1.8770    0.9470    1.6920 h1        1 G9G      0.046700
     39 HAL        -0.4500   -0.0260    2.7570 h1        1 G9G      0.046700
     40 HALA       -0.5070   -1.8460    2.8420 h1        1 G9G      0.046700
@<TRIPOS>BOND
     1    1    5 1   
     2    1   13 1   
     3    1   14 1   
     4    2   15 1   
     5    2   16 1   
     6    2   17 1   
     7    3   18 1   
     8    3   19 1   
     9    3   23 1   
    10    4   17 ar  
    11    4   22 ar  
    12    5   24 1   
    13    5   25 1   
    14    5   26 1   
    15    6   18 2   
    16    7    8 ar  
    17    7   10 ar  
    18    7   27 1   
    19    8   11 ar  
    20    8   28 1   
    21    9   12 ar  
    22    9   17 ar  
    23    9   29 1   
    24   10   20 ar  
    25   10   30 1   
    26   11   21 ar  
    27   11   31 1   
    28   12   19 ar  
    29   12   32 1   
    30   13   15 1   
    31   13   33 1   
    32   13   34 1   
    33   14   16 1   
    34   14   35 1   
    35   14   36 1   
    36   15   37 1   
    37   15   38 1   
    38   16   39 1   
    39   16   40 1   
    40   18   20 1   
    41   19   22 ar  
    42   20   21 ar  
    43   21   22 1   
@<TRIPOS>SUBSTRUCTURE
     1 G9G         1 TEMP              0 ****  ****    0 ROOT
