@<TRIPOS>MOLECULE
G9G
   40    43     1     0     0
SMALL
bcc


@<TRIPOS>ATOM
      1 N11        -0.0990   -0.1210   -0.1370 n3        1 G9G     -0.720600
      2 N12         1.3620   -1.0700    2.2310 nh        1 G9G     -0.720300
      3 N13         3.7160   -1.5930    7.2920 n         1 G9G     -0.445100
      4 N14         2.7380   -0.1640    4.0180 nb        1 G9G     -0.679000
      5 CAA        -0.6160    1.2260   -0.0380 c3        1 G9G      0.147100
      6 OAB         5.0620   -0.8170    8.9450 o         1 G9G     -0.631500
      7 CAC         5.9150    2.7240    6.7750 ca        1 G9G     -0.138000
      8 CAD         5.3250    2.8870    5.5180 ca        1 G9G     -0.108000
      9 CAE         1.6750   -2.3330    4.3040 ca        1 G9G     -0.203300
     10 CAF         5.6580    1.5770    7.5160 ca        1 G9G     -0.074000
     11 CAG         4.4810    1.9090    5.0010 ca        1 G9G     -0.110000
     12 CAH         2.2600   -2.4830    5.5450 ca        1 G9G     -0.137000
     13 CAI         1.3530   -0.1930   -0.0940 c3        1 G9G      0.160300
     14 CAJ        -0.6890   -1.0430    0.8200 c3        1 G9G      0.160300
     15 CAK         1.9740   -0.1120    1.3190 c3        1 G9G      0.145300
     16 CAL        -0.0950   -0.9860    2.2450 c3        1 G9G      0.145300
     17 CAO         1.9340   -1.1470    3.5430 ca        1 G9G      0.583200
     18 CAP         4.5620   -0.6190    7.8200 c         1 G9G      0.711100
     19 CAQ         3.1120   -1.4670    6.0480 ca        1 G9G     -0.042700
     20 CAR         4.8090    0.5860    7.0030 ca        1 G9G     -0.139600
     21 CAS         4.2110    0.7430    5.7370 ca        1 G9G     -0.089500
     22 CAT         3.3260   -0.3120    5.2290 ca        1 G9G      0.430800
     23 HN13        3.5440   -2.4160    7.8270 hn        1 G9G      0.334500
     24 HAA        -0.1750    1.8430   -0.8650 h1        1 G9G      0.033033
     25 HAAA       -0.3850    1.7270    0.9420 h1        1 G9G      0.033033
     26 HAAB       -1.7290    1.1970   -0.1700 h1        1 G9G      0.033033
     27 HAC         6.5810    3.5020    7.1770 ha        1 G9G      0.140000
     28 HAD         5.5300    3.7960    4.9320 ha        1 G9G      0.137000
     29 HAE         1.0270   -3.1230    3.8970 ha        1 G9G      0.154000
     30 HAF         6.1120    1.4270    8.5090 ha        1 G9G      0.162000
     31 HAG         4.0260    2.0560    4.0090 ha        1 G9G      0.158000
     32 HAH         2.0680   -3.3910    6.1360 ha        1 G9G      0.144000
     33 HAI         1.7900    0.6400   -0.7090 h1        1 G9G      0.060450
     34 HAIA        1.6450   -1.1720   -0.5680 h1        1 G9G      0.060450
     35 HAJ        -0.5420   -2.0800    0.4050 h1        1 G9G      0.060450
     36 HAJA       -1.7940   -0.8480    0.9010 h1        1 G9G      0.060450
     37 HAK         3.0690   -0.3570    1.2410 h1        1 G9G      0.046700
     38 HAKA        1.8780    0.9490    1.6920 h1        1 G9G      0.046700
     39 HAL        -0.4950   -1.8600    2.8290 h1        1 G9G      0.046700
     40 HALA       -0.4480   -0.0400    2.7490 h1        1 G9G      0.046700
@<TRIPOS>BOND
     1    1    5 1   
     2    1   13 1   
     3    1   14 1   
     4    2   15 1   
     5    2   16 1   
     6    2   17 1   
     7    3   18 1   
     8    3   19 1   
     9    3   23 1   
    10    4   17 ar  
    11    4   22 ar  
    12    5   24 1   
    13    5   25 1   
    14    5   26 1   
    15    6   18 2   
    16    7    8 ar  
    17    7   10 ar  
    18    7   27 1   
    19    8   11 ar  
    20    8   28 1   
    21    9   12 ar  
    22    9   17 ar  
    23    9   29 1   
    24   10   20 ar  
    25   10   30 1   
    26   11   21 ar  
    27   11   31 1   
    28   12   19 ar  
    29   12   32 1   
    30   13   15 1   
    31   13   33 1   
    32   13   34 1   
    33   14   16 1   
    34   14   35 1   
    35   14   36 1   
    36   15   37 1   
    37   15   38 1   
    38   16   39 1   
    39   16   40 1   
    40   18   20 1   
    41   19   22 ar  
    42   20   21 ar  
    43   21   22 1   
@<TRIPOS>SUBSTRUCTURE
     1 G9G         1 TEMP              0 ****  ****    0 ROOT
