@<TRIPOS>MOLECULE
G9H
   35    36     1     0     0
SMALL
bcc


@<TRIPOS>ATOM
      1 N11         0.3470    0.3250    0.4470 n4        1 G9H      0.012000
      2 N12        -0.2550    0.0590   -2.4860 n2        1 G9H     -0.148000
      3 N13         1.1880    1.7660   -2.9500 na        1 G9H     -0.108000
      4 N14         3.6600    2.4690   -4.7420 n         1 G9H     -0.379000
      5 CAA         1.4690   -0.6340    0.2790 c3        1 G9H     -0.192500
      6 CAB        -0.9660   -0.3780    0.4070 c3        1 G9H     -0.192500
      7 CAD        -1.4870   -1.7870   -4.5490 c1        1 G9H      0.283000
      8 CAE         0.5920    1.6540   -6.5120 c2        1 G9H     -0.082000
      9 CAF        -0.5460   -0.8860   -4.7790 c2        1 G9H     -0.440000
     10 CAG         3.5040    2.5790   -3.3290 c3        1 G9H     -0.024000
     11 CAH         2.0790    2.8850   -2.8250 c3        1 G9H     -0.046000
     12 CAI         0.4350    1.4770   -0.5140 c3        1 G9H     -0.025000
     13 CAL         2.8650    1.7990   -5.6590 c2        1 G9H      0.337000
     14 CAM         1.4100    1.5470   -5.4500 c2        1 G9H     -0.125000
     15 CAN         0.4710    1.0820   -1.9530 c2        1 G9H     -0.143000
     16 CAO         0.0050    0.0620   -3.8510 c2        1 G9H      0.000000
     17 CAP         0.9040    1.1290   -4.1610 c2        1 G9H     -0.017000
     18 HN14        4.5980    2.6280   -5.0610 hn        1 G9H      0.247000
     19 HAA         2.4430   -0.0890    0.3940 hx        1 G9H      0.149667
     20 HAAA        1.3850   -1.4340    1.0640 hx        1 G9H      0.149667
     21 HAAB        1.4220   -1.1080   -0.7390 hx        1 G9H      0.149667
     22 HAB        -1.1200   -0.8990    1.3910 hx        1 G9H      0.149667
     23 HABA       -1.7880    0.3660    0.2340 hx        1 G9H      0.149667
     24 HABB       -0.9820   -1.1400   -0.4190 hx        1 G9H      0.149667
     25 HAD        -0.1120   -0.8460   -5.8050 ha        1 G9H      0.211000
     26 HAE         0.9790    1.9240   -7.5080 ha        1 G9H      0.151000
     27 HAF        -0.4910    1.4770   -6.4410 ha        1 G9H      0.151000
     28 HAG         3.8800    1.6440   -2.8140 h1        1 G9H      0.096000
     29 HAGA        4.1520    3.4400   -2.9840 h1        1 G9H      0.096000
     30 HAH         2.1530    3.1850   -1.7430 h1        1 G9H      0.120000
     31 HAHA        1.6440    3.7530   -3.4040 h1        1 G9H      0.120000
     32 HAI         1.3640    2.0580   -0.2390 hx        1 G9H      0.145000
     33 HAIA       -0.4750    2.1270   -0.3390 hx        1 G9H      0.145000
     34 H111        0.4350    0.7450    1.3850 hn        1 G9H      0.240000
     35 OAC         3.3900    1.4960   -6.7500 o         1 G9H     -0.330000
@<TRIPOS>BOND
     1    1    5 1   
     2    1    6 1   
     3    1   12 1   
     4    1   34 1   
     5    2   15 1   
     6    2   16 1   
     7    3   11 1   
     8    3   15 1   
     9    3   17 1   
    10    4   10 1   
    11    4   13 1   
    12    4   18 1   
    13    5   19 1   
    14    5   20 1   
    15    5   21 1   
    16    6   22 1   
    17    6   23 1   
    18    6   24 1   
    19    7    9 1   
    20    8   14 1   
    21    8   26 1   
    22    8   27 1   
    23    9   16 1   
    24    9   25 1   
    25   10   11 1   
    26   10   28 1   
    27   10   29 1   
    28   11   30 1   
    29   11   31 1   
    30   12   15 1   
    31   12   32 1   
    32   12   33 1   
    33   13   14 1   
    34   13   35 1   
    35   14   17 1   
    36   16   17 1   
@<TRIPOS>SUBSTRUCTURE
     1 G9H         1 TEMP              0 ****  ****    0 ROOT
