@<TRIPOS>MOLECULE
G9H
   34    36     1     0     0
SMALL
bcc


@<TRIPOS>ATOM
      1 N11         3.6940    0.0980    0.3100 n3        1 G9H     -0.736600
      2 N12         1.0430    1.8230   -0.2110 nc        1 G9H     -0.535100
      3 N13         0.2980   -0.3480   -0.4400 na        1 G9H     -0.171300
      4 N14        -2.0240   -2.3790   -0.0170 n         1 G9H     -0.580900
      5 CAA         3.4110   -0.9530    1.2560 c3        1 G9H      0.159100
      6 CAB         5.0870    0.1770   -0.0650 c3        1 G9H      0.159100
      7 CAD        -2.5800    2.4830    0.5290 ca        1 G9H     -0.171000
      8 CAE        -3.0430    1.1700    0.3770 ca        1 G9H     -0.051000
      9 CAF        -1.2410    2.8110    0.3550 ca        1 G9H     -0.039000
     10 CAG        -0.6820   -2.4530    0.4560 c3        1 G9H      0.092000
     11 CAH         0.3660   -1.7760   -0.4580 c3        1 G9H      0.018300
     12 CAI         2.8020    0.1170   -0.8370 c3        1 G9H      0.164500
     13 CAL        -2.7790   -1.2260   -0.1450 c         1 G9H      0.719100
     14 CAM        -2.1830    0.1130    0.0610 ca        1 G9H     -0.149600
     15 CAN         1.4030    0.5550   -0.4720 cd        1 G9H      0.417800
     16 CAO        -0.3450    1.7860    0.0340 ca        1 G9H      0.049400
     17 CAP        -0.8240    0.4170   -0.1020 ca        1 G9H     -0.032200
     18 HN14       -2.4850   -3.2350   -0.2270 hn        1 G9H      0.323500
     19 HAA         4.0890   -0.8370    2.1420 h1        1 G9H      0.034533
     20 HAAA        2.3490   -0.8520    1.6030 h1        1 G9H      0.034533
     21 HAAB        3.5550   -1.9860    0.8310 h1        1 G9H      0.034533
     22 HAB         5.4370   -0.7090   -0.6640 h1        1 G9H      0.034533
     23 HABA        5.2520    1.1070   -0.6690 h1        1 G9H      0.034533
     24 HABB        5.7060    0.2430    0.8680 h1        1 G9H      0.034533
     25 HAD        -3.3020    3.2740    0.7840 ha        1 G9H      0.140000
     26 HAE        -4.1180    0.9520    0.4940 ha        1 G9H      0.159000
     27 HAF        -0.8860    3.8460    0.4620 ha        1 G9H      0.152000
     28 HAG        -0.6100   -2.0000    1.4880 h1        1 G9H      0.059200
     29 HAGA       -0.3920   -3.5400    0.5330 h1        1 G9H      0.059200
     30 HAH         0.2360   -2.1340   -1.5210 h1        1 G9H      0.062700
     31 HAHA        1.3880   -2.0980   -0.1010 h1        1 G9H      0.062700
     32 HAI         3.1990    0.8660   -1.5840 h1        1 G9H      0.054700
     33 HAIA        2.7520   -0.8870   -1.3550 h1        1 G9H      0.054700
     34 OAC        -3.9850   -1.3630   -0.4470 o         1 G9H     -0.645500
@<TRIPOS>BOND
     1    1    5 1   
     2    1    6 1   
     3    1   12 1   
     4    2   15 2   
     5    2   16 1   
     6    3   11 1   
     7    3   15 1   
     8    3   17 1   
     9    4   10 1   
    10    4   13 1   
    11    4   18 1   
    12    5   19 1   
    13    5   20 1   
    14    5   21 1   
    15    6   22 1   
    16    6   23 1   
    17    6   24 1   
    18    7    8 ar  
    19    7    9 ar  
    20    7   25 1   
    21    8   14 ar  
    22    8   26 1   
    23    9   16 ar  
    24    9   27 1   
    25   10   11 1   
    26   10   28 1   
    27   10   29 1   
    28   11   30 1   
    29   11   31 1   
    30   12   15 1   
    31   12   32 1   
    32   12   33 1   
    33   13   14 1   
    34   13   34 2   
    35   14   17 ar  
    36   16   17 ar  
@<TRIPOS>SUBSTRUCTURE
     1 G9H         1 TEMP              0 ****  ****    0 ROOT
