@<TRIPOS>MOLECULE
G9H
   34    33     1     0     0
SMALL
bcc


@<TRIPOS>ATOM
      1 N11         0.1180   -0.8640    3.0000 n3        1 G9H     -0.271000
      2 N12        -0.8110   -1.1200    0.5540 n2        1 G9H     -0.136000
      3 N13         0.3980    0.5180   -0.4620 n2        1 G9H     -0.175000
      4 N14         1.1470    0.8390   -2.9890 n         1 G9H     -0.388000
      5 CAA         1.3320   -1.1810    3.6700 c3        1 G9H     -0.125500
      6 CAB        -0.9710   -0.6490    4.0080 c3        1 G9H     -0.125500
      7 OAC        -0.2660    2.2510   -2.2320 o         1 G9H     -0.374000
      8 CAD        -2.6840   -1.0290   -2.5870 c1        1 G9H     -0.107000
      9 CAE        -1.9200   -0.0640   -3.1700 c1        1 G9H     -0.053000
     10 CAF        -2.2320   -1.6670   -1.4620 c1        1 G9H     -0.107000
     11 CAG         1.8180    1.5290   -2.5850 c3        1 G9H     -0.028000
     12 CAH         1.8400    1.4080   -1.0610 c2        1 G9H     -0.032000
     13 CAI         0.2990    0.3370    2.2210 c3        1 G9H     -0.011000
     14 CAL        -0.0150    1.2000   -2.7920 c2        1 G9H      0.355000
     15 CAM        -0.6600    0.2740   -2.6100 c2        1 G9H     -0.125000
     16 CAN         0.0430    0.0310    0.7610 c2        1 G9H      0.014000
     17 CAO        -0.9680   -1.3220   -0.9060 c1        1 G9H     -0.088000
     18 CAP        -0.1780   -0.4310   -1.5340 c2        1 G9H      0.007000
     19 HN14        1.3940    0.1100   -3.5350 hn        1 G9H      0.236000
     20 HAA         2.0660   -1.2740    2.9990 h1        1 G9H      0.077500
     21 HAAA        1.5550   -0.4590    4.3040 h1        1 G9H      0.077500
     22 HAAB        1.2270   -2.0270    4.1600 h1        1 G9H      0.077500
     23 HAB        -1.1280   -1.4930    4.5130 h1        1 G9H      0.077500
     24 HABA       -0.6980    0.0760    4.6460 h1        1 G9H      0.077500
     25 HABB       -1.8210   -0.3780    3.5340 h1        1 G9H      0.077500
     26 HAD        -3.4980   -1.3600   -3.0480 ha        1 G9H      0.144500
     27 HAE        -2.2460    0.4060   -3.9940 ha        1 G9H      0.159000
     28 HAF        -2.7870   -2.3710   -1.0340 ha        1 G9H      0.144500
     29 HAG         2.6900    1.3590   -2.9270 h1        1 G9H      0.097000
     30 HAGA        1.5410    2.4440   -2.8380 h1        1 G9H      0.097000
     31 HAH         2.6490    0.9290   -0.7890 ha        1 G9H      0.111000
     32 HAHA        1.8480    2.2790   -0.6780 ha        1 G9H      0.111000
     33 HAI         1.2490    0.6730    2.3330 h1        1 G9H      0.101000
     34 HAIA       -0.3320    1.0260    2.5280 h1        1 G9H      0.101000
@<TRIPOS>BOND
     1    1    5 1   
     2    1    6 1   
     3    1   13 1   
     4    2   16 1   
     5    2   17 1   
     6    3   16 1   
     7    3   18 1   
     8    4   11 1   
     9    4   14 1   
    10    4   19 1   
    11    5   20 1   
    12    5   21 1   
    13    5   22 1   
    14    6   23 1   
    15    6   24 1   
    16    6   25 1   
    17    7   14 1   
    18    8   10 1   
    19    8   26 1   
    20    9   15 1   
    21    9   27 1   
    22   10   28 1   
    23   11   12 1   
    24   11   29 1   
    25   11   30 1   
    26   12   31 1   
    27   12   32 1   
    28   13   16 1   
    29   13   33 1   
    30   13   34 1   
    31   14   15 1   
    32   15   18 1   
    33   17   18 1   
@<TRIPOS>SUBSTRUCTURE
     1 G9H         1 TEMP              0 ****  ****    0 ROOT
