@<TRIPOS>MOLECULE
G9H
   35    35     1     0     0
SMALL
bcc


@<TRIPOS>ATOM
      1 N11         0.7480    0.6470   -0.0990 n3        1 G9H     -0.294000
      2 N12        -1.3740    0.7540   -2.9630 n2        1 G9H     -0.127000
      3 N13         0.7390    1.5860   -3.0460 na        1 G9H     -0.183000
      4 N14         3.3360    0.6780   -4.2760 n         1 G9H     -0.171000
      5 CAA         1.0860    1.1810    1.2060 c3        1 G9H     -0.135500
      6 CAB         0.5090   -0.7840   -0.0680 c3        1 G9H     -0.135500
      7 CAD        -3.0320   -0.0760   -5.3340 c1        1 G9H      0.345000
      8 CAE         0.8410    2.1260   -6.6280 c2        1 G9H     -0.052000
      9 CAF        -1.7760    0.3470   -5.3980 c2        1 G9H     -0.467000
     10 CAG         3.1620    1.2230   -3.1040 c2        1 G9H      0.150000
     11 CAH         2.0070    2.1020   -2.6760 c3        1 G9H     -0.025000
     12 CAI        -0.3500    1.3810   -0.7200 c3        1 G9H     -0.026000
     13 CAL         2.5460    0.8100   -5.5150 c2        1 G9H      0.336000
     14 CAM         1.2280    1.4710   -5.5170 c2        1 G9H     -0.111000
     15 CAN        -0.3490    1.2240   -2.2210 c2        1 G9H      0.044000
     16 CAO        -0.9550    0.7840   -4.3040 c2        1 G9H      0.074000
     17 CAP         0.3650    1.2870   -4.3770 c2        1 G9H     -0.158000
     18 HN14        4.1650    0.1040   -4.4220 hn        1 G9H      0.285000
     19 HAA         0.2330    1.1370    1.9370 h1        1 G9H      0.086500
     20 HAAA        1.9420    0.5900    1.6240 h1        1 G9H      0.086500
     21 HAAB        1.4050    2.2500    1.0930 h1        1 G9H      0.086500
     22 HAB        -0.3330   -1.0740    0.6180 h1        1 G9H      0.086500
     23 HABA        1.4450   -1.2940    0.2800 h1        1 G9H      0.086500
     24 HABB        0.2600   -1.1380   -1.1020 h1        1 G9H      0.086500
     25 HAD        -1.2930    0.3640   -6.3990 ha        1 G9H      0.193000
     26 HAE         1.4770    2.1950   -7.5260 ha        1 G9H      0.164000
     27 HAF        -0.1410    2.6220   -6.6860 ha        1 G9H      0.164000
     28 HAG         6.0570    0.5290   -0.7690 ha        1 G9H      0.001500
     29 HAGA        3.9450    1.0480   -2.3190 h4        1 G9H      0.211000
     30 HAH         5.6250    0.6230   -1.2830 ha        1 G9H      0.001500
     31 HAHA        2.1750    3.1220   -3.1500 h1        1 G9H      0.170000
     32 HAI         2.0570    2.2290   -1.5510 h1        1 G9H      0.170000
     33 HAIA       -0.2440    2.4810   -0.4880 h1        1 G9H      0.122500
     34 H111       -1.3610    1.0460   -0.3380 h1        1 G9H      0.122500
     35 OAC         3.1220    0.3340   -6.4890 o         1 G9H     -0.192000
@<TRIPOS>BOND
     1    1    5 1   
     2    1    6 1   
     3    1   12 1   
     4    2   15 1   
     5    2   16 1   
     6    3   11 1   
     7    3   15 1   
     8    3   17 1   
     9    4   10 1   
    10    4   13 1   
    11    4   18 1   
    12    5   19 1   
    13    5   20 1   
    14    5   21 1   
    15    6   22 1   
    16    6   23 1   
    17    6   24 1   
    18    7    9 1   
    19    8   14 1   
    20    8   26 1   
    21    8   27 1   
    22    9   16 1   
    23    9   25 1   
    24   10   11 1   
    25   10   29 1   
    26   11   31 1   
    27   11   32 1   
    28   12   15 1   
    29   12   33 1   
    30   12   34 1   
    31   13   14 1   
    32   13   35 1   
    33   14   17 1   
    34   16   17 1   
    35   28   30 1   
@<TRIPOS>SUBSTRUCTURE
     1 G9H         1 TEMP              0 ****  ****    0 ROOT
