@<TRIPOS>MOLECULE
G9H
   35    35     1     0     0
SMALL
bcc


@<TRIPOS>ATOM
      1 N11         0.4850    0.0070    0.0440 n3        1 G9H     -0.121000
      2 N12        -0.9570   -0.1310   -3.2710 n2        1 G9H     -0.050000
      3 N13         0.9600    1.1150   -2.9850 na        1 G9H     -0.090000
      4 N14         3.7580    1.8490   -4.1360 ns        1 G9H     -0.380000
      5 CAA         1.9020   -0.2410   -0.1280 c3        1 G9H     -0.138000
      6 CAB         0.0110   -0.0950    1.4190 c3        1 G9H     -0.138000
      7 CAD        -2.1510   -0.8700   -5.9680 c1        1 G9H      0.333000
      8 CAE         0.9970    2.1530   -6.4620 c2        1 G9H     -0.060000
      9 CAF        -0.9780   -0.2900   -5.7520 c2        1 G9H     -0.465000
     10 CAG         3.3670    1.6930   -2.7730 c3        1 G9H     -0.022000
     11 CAH         1.9070    2.0490   -2.4320 c3        1 G9H     -0.057000
     12 CAI        -0.3650    0.2610   -0.9350 c2        1 G9H      0.206000
     13 CAL         3.0520    1.5710   -5.2950 c2        1 G9H      0.337000
     14 CAM         1.5610    1.5970   -5.3730 c2        1 G9H     -0.148000
     15 CAN        -0.1020    0.4360   -2.3360 c2        1 G9H     -0.182000
     16 CAO        -0.4370    0.1660   -4.5030 c2        1 G9H      0.012000
     17 CAP         0.7530    0.9800   -4.3460 c2        1 G9H      0.036000
     18 HN14        4.7530    1.8810   -4.2670 hn        1 G9H      0.252000
     19 HAA         2.4900    0.6710    0.1670 h1        1 G9H      0.133833
     20 HAAA        2.2030   -1.0950    0.5410 h1        1 G9H      0.133833
     21 HAAB        2.1320   -0.5200   -1.1910 h1        1 G9H      0.133833
     22 HAB         0.6570    0.5500    2.0750 h1        1 G9H      0.133833
     23 HABA       -1.0570    0.2390    1.5060 h1        1 G9H      0.133833
     24 HABB        0.0920   -1.1660    1.7540 h1        1 G9H      0.133833
     25 HAD        -0.3140   -0.1520   -6.6370 ha        1 G9H      0.212000
     26 HAE         1.6150    2.5850   -7.2670 ha        1 G9H      0.157000
     27 HAF        -0.0930    2.2050   -6.6010 ha        1 G9H      0.157000
     28 HAG         3.5750    0.6370   -2.4210 h1        1 G9H      0.097000
     29 HAGA        4.0110    2.3890   -2.1550 h1        1 G9H      0.097000
     30 HAH         1.7970    2.0700   -1.3130 h1        1 G9H      0.126000
     31 HAHA        1.6630    3.0820   -2.8240 h1        1 G9H      0.126000
     32 HAI        -0.4030    2.7700   -0.7110 ha        1 G9H      0.001000
     33 HAIA       -1.4560    0.2830   -0.6670 h4        1 G9H      0.217000
     34 H111       -0.6520    3.3880   -0.5810 ha        1 G9H      0.001000
     35 OAC         3.7130    1.4030   -6.3390 o         1 G9H     -0.318000
@<TRIPOS>BOND
     1    1    5 1   
     2    1    6 1   
     3    1   12 1   
     4    2   15 1   
     5    2   16 1   
     6    3   11 1   
     7    3   15 1   
     8    3   17 1   
     9    4   10 1   
    10    4   13 1   
    11    4   18 1   
    12    5   19 1   
    13    5   20 1   
    14    5   21 1   
    15    6   22 1   
    16    6   23 1   
    17    6   24 1   
    18    7    9 1   
    19    8   14 1   
    20    8   26 1   
    21    8   27 1   
    22    9   16 1   
    23    9   25 1   
    24   10   11 1   
    25   10   28 1   
    26   10   29 1   
    27   11   30 1   
    28   11   31 1   
    29   12   15 1   
    30   12   33 1   
    31   13   14 1   
    32   13   35 1   
    33   14   17 1   
    34   16   17 1   
    35   32   34 1   
@<TRIPOS>SUBSTRUCTURE
     1 G9H         1 TEMP              0 ****  ****    0 ROOT
