@<TRIPOS>MOLECULE
G9I
   54    51     1     0     0
SMALL
bcc


@<TRIPOS>ATOM
      1 N11        -1.4850    0.1210   -0.3590 n8        1 G9I     -0.352000
      2 N12        -7.2500   -0.5590   -4.4030 n2        1 G9I     -0.183000
      3 N13        -8.2270   -1.6190   -2.5490 na        1 G9I     -0.202000
      4 N14       -10.9240   -1.3660   -0.8010 n2        1 G9I     -0.387000
      5 CAB       -10.8400    0.0220   -5.4320 c1        1 G9I     -0.100000
      6 CAC       -11.4920   -0.6210   -4.3050 c3        1 G9I     -0.167000
      7 CAD        -5.7750    1.2510   -0.1290 ca        1 G9I     -0.135000
      8 CAE        -5.8470   -0.6590    1.3450 ca        1 G9I     -0.135000
      9 CAF        -4.5320    0.8360   -0.6020 ca        1 G9I     -0.128500
     10 CAG        -4.6010   -1.0690    0.8770 ca        1 G9I     -0.128500
     11 CAH        -9.4330    0.1190   -5.5040 c2        1 G9I     -0.183000
     12 CAI         3.1590   -0.5760   -1.6080 c1        1 G9I     -0.226500
     13 CAJ         1.8120    0.7040    1.6660 c2        1 G9I     -0.546000
     14 CAK       -10.5770   -1.0020    0.2750 c1        1 G9I      0.193000
     15 CAM        -5.7520   -1.7670   -2.8570 c1        1 G9I      0.109000
     16 CAN         1.9680   -0.6810   -1.5600 c1        1 G9I     -0.226500
     17 CAO         0.5270    0.7860    1.8540 c1        1 G9I      0.146000
     18 CAP        -8.2820   -2.8260   -1.7730 c3        1 G9I     -0.104000
     19 CAQ        -2.5920   -0.7640   -0.6160 c3        1 G9I     -0.046000
     20 CAT       -11.3480   -1.7820   -2.0630 c2        1 G9I      0.404000
     21 CAU        -6.4450    0.5060    0.8490 ca        1 G9I     -0.061000
     22 CAV        -3.9350   -0.3260   -0.1020 ca        1 G9I     -0.142000
     23 CAW       -10.6390   -1.2030   -3.2280 c2        1 G9I     -0.156000
     24 CAX        -7.0330   -1.2670   -3.2730 c2        1 G9I      0.013000
     25 CAY        -8.6520   -0.4790   -4.5500 c2        1 G9I      0.063000
     26 CAZ        -9.2950   -1.1730   -3.3770 c2        1 G9I     -0.001000
     27 HN14       -9.2150   -3.4070   -2.0050 h1        1 G9I      0.104667
     28 HAB       -12.2040    0.1360   -3.8570 hc        1 G9I      0.172500
     29 HAC       -12.1480   -1.4450   -4.7260 hc        1 G9I      0.172500
     30 HAD        -6.2320    2.1710   -0.5240 ha        1 G9I      0.138000
     31 HAE        -6.3680   -1.2490    2.1150 ha        1 G9I      0.138000
     32 HAF        -4.0130    1.4310   -1.3690 ha        1 G9I      0.134500
     33 HAG        -4.1360   -1.9800    1.2850 ha        1 G9I      0.134500
     34 HAH        -8.9830    0.6710   -6.3440 ha        1 G9I      0.169000
     35 HAI        -0.3560   -2.6330   -2.3300 ha        1 G9I      0.001250
     36 HAIA        2.5790    0.9980    2.3980 ha        1 G9I      0.199000
     37 HAJ         4.2140   -0.4860   -1.6590 ha        1 G9I      0.227500
     38 HAJA        2.2430    0.3170    0.7210 ha        1 G9I      0.199000
     39 HAK        -8.8690   -2.1650    1.5710 ha        1 G9I      0.001250
     40 HAKA       -8.2800   -2.4830    1.6800 ha        1 G9I      0.001250
     41 HAL        -8.5330    0.1350    1.1810 hc        1 G9I      0.092000
     42 HALA       -7.7130    1.1210    2.4620 hc        1 G9I      0.092000
     43 HAM        -8.1130    1.8720    0.8610 hc        1 G9I      0.092000
     44 HAMA       -5.0250   -1.0900   -2.3850 ha        1 G9I      0.128000
     45 HAN         0.9080   -0.7750   -1.5190 ha        1 G9I      0.227500
     46 HANA       -1.3000    0.1920    0.6260 hn        1 G9I      0.156000
     47 HAO        -1.6730    1.0390   -0.7140 hn        1 G9I      0.156000
     48 HAOA       -0.8700   -2.3590   -1.9850 ha        1 G9I      0.001250
     49 HAP        -7.3880   -3.4760   -1.9810 h1        1 G9I      0.104667
     50 HAPA       -8.2870   -2.5480   -0.6820 h1        1 G9I      0.104667
     51 HAQ        -2.6720   -0.8940   -1.7360 h1        1 G9I      0.093000
     52 HAQA       -2.3350   -1.7710   -0.1780 h1        1 G9I      0.093000
     53 CAL        -7.7670    0.9340    1.3600 c3        1 G9I     -0.191000
     54 OAA       -12.2930   -2.5700   -2.1680 o         1 G9I     -0.260000
@<TRIPOS>BOND
     1    1   19 1   
     2    1   46 1   
     3    1   47 1   
     4    2   24 1   
     5    2   25 1   
     6    3   18 1   
     7    3   24 1   
     8    3   26 1   
     9    4   14 1   
    10    4   20 1   
    11    5    6 1   
    12    5   11 1   
    13    6   23 1   
    14    6   28 1   
    15    6   29 1   
    16    7    9 1   
    17    7   21 1   
    18    7   30 1   
    19    8   10 1   
    20    8   21 1   
    21    8   31 1   
    22    9   22 1   
    23    9   32 1   
    24   10   22 1   
    25   10   33 1   
    26   11   25 1   
    27   11   34 1   
    28   12   16 1   
    29   12   37 1   
    30   13   17 1   
    31   13   36 1   
    32   13   38 1   
    33   15   24 1   
    34   15   44 1   
    35   16   45 1   
    36   18   27 1   
    37   18   49 1   
    38   18   50 1   
    39   19   22 1   
    40   19   51 1   
    41   19   52 1   
    42   20   23 1   
    43   20   54 1   
    44   21   53 1   
    45   23   26 1   
    46   25   26 1   
    47   35   48 1   
    48   39   40 1   
    49   41   53 1   
    50   42   53 1   
    51   43   53 1   
@<TRIPOS>SUBSTRUCTURE
     1 G9I         1 TEMP              0 ****  ****    0 ROOT
