@<TRIPOS>MOLECULE
G9I
   54    52     1     0     0
SMALL
bcc


@<TRIPOS>ATOM
      1 N11        -2.3550    0.0540    0.9120 n3        1 G9I     -0.349000
      2 N12        -8.8900   -2.6360   -4.1550 n2        1 G9I     -0.177000
      3 N13        -7.9460   -2.6930   -2.0280 na        1 G9I     -0.231000
      4 N14        -8.9400   -1.9410    1.0930 n2        1 G9I     -0.390000
      5 CAB       -12.1270   -3.1720   -2.2800 c1        1 G9I     -0.107000
      6 CAC       -11.5830   -3.2310   -0.9340 c3        1 G9I     -0.165000
      7 CAD        -2.4860    3.7880   -2.0630 ca        1 G9I     -0.128000
      8 CAE        -4.6730    2.8820   -1.5910 ca        1 G9I     -0.128000
      9 CAF        -1.8970    2.6450   -1.5280 ca        1 G9I     -0.125000
     10 CAG        -4.0840    1.7380   -1.0600 ca        1 G9I     -0.125000
     11 CAH       -11.2900   -2.9510   -3.3950 c2        1 G9I     -0.183000
     12 CAI        -1.6200   -3.2340    0.4850 c2        1 G9I     -0.527000
     13 CAJ        -5.3890   -1.9210   -3.4110 c1        1 G9I     -0.111000
     14 CAK        -8.3740   -0.9770    1.4910 c1        1 G9I      0.193000
     15 CAM        -6.4310   -2.3910   -4.0470 c2        1 G9I     -0.115000
     16 CAN        -2.2790   -2.8520   -0.5680 c1        1 G9I      0.122000
     17 CAO        -4.3370   -1.4470   -2.8230 c2        1 G9I     -0.172000
     18 CAP        -6.9480   -3.1130   -1.0970 c3        1 G9I     -0.082000
     19 CAQ        -2.0600    0.3680   -0.4640 c3        1 G9I     -0.059000
     20 CAT        -9.6200   -3.0750    0.6450 c2        1 G9I      0.406000
     21 CAU        -3.8790    3.9180   -2.0980 ca        1 G9I     -0.064000
     22 CAV        -2.6910    1.6120   -1.0220 ca        1 G9I     -0.131000
     23 CAW       -10.1150   -3.0470   -0.7510 c2        1 G9I     -0.165000
     24 CAX        -7.7470   -2.5860   -3.4430 c2        1 G9I      0.161000
     25 CAY        -9.9350   -2.8300   -3.2280 c2        1 G9I      0.061000
     26 CAZ        -9.3360   -2.8860   -1.8460 c2        1 G9I      0.007000
     27 HN14       -7.3680   -3.8780   -0.3890 h1        1 G9I      0.098000
     28 HAB       -12.1390   -2.4590   -0.3210 hc        1 G9I      0.170000
     29 HAC       -11.8760   -4.2380   -0.5020 hc        1 G9I      0.170000
     30 HAD        -1.8530    4.5950   -2.4610 ha        1 G9I      0.135000
     31 HAE        -5.7700    2.9730   -1.6150 ha        1 G9I      0.135000
     32 HAF        -0.8000    2.5560   -1.5060 ha        1 G9I      0.132000
     33 HAG        -4.7190    0.9280   -0.6660 ha        1 G9I      0.132000
     34 HAH       -11.7480   -2.8830   -4.3950 ha        1 G9I      0.168000
     35 HAI        -3.5960   -2.0920   -2.3090 ha        1 G9I      0.171500
     36 HAIA       -0.4750   -1.6690    3.2010 ha        1 G9I      0.001750
     37 HAJ        -1.3630   -2.5260    1.2990 ha        1 G9I      0.203500
     38 HAJA       -1.2600   -4.2560    0.6740 ha        1 G9I      0.203500
     39 HAK        -6.0310   -0.4670    1.0180 ha        1 G9I      0.001750
     40 HAKA       -5.4300   -0.6700    0.7770 ha        1 G9I      0.001750
     41 HAL        -4.7040    5.8730   -1.8270 hc        1 G9I      0.086333
     42 HALA       -5.4820    4.9000   -3.1430 hc        1 G9I      0.086333
     43 HAM        -3.8420    5.6290   -3.4030 hc        1 G9I      0.086333
     44 HAMA       -6.3740   -2.6420   -5.1240 ha        1 G9I      0.181000
     45 HAN        -1.9500    0.7310    1.5300 hn        1 G9I      0.146000
     46 HANA       -3.3460    0.0350    1.0690 hn        1 G9I      0.146000
     47 HAO        -0.7100   -1.0690    2.9940 ha        1 G9I      0.001750
     48 HAOA       -4.1230   -0.3650   -2.7870 ha        1 G9I      0.171500
     49 HAP        -6.0690   -3.5580   -1.6370 h1        1 G9I      0.098000
     50 HAPA       -6.5910   -2.2230   -0.5060 h1        1 G9I      0.098000
     51 HAQ        -2.4070   -0.5120   -1.0890 h1        1 G9I      0.102000
     52 HAQA       -0.9400    0.4380   -0.5710 h1        1 G9I      0.102000
     53 CAL        -4.5080    5.1400   -2.6500 c3        1 G9I     -0.182000
     54 OAA        -9.8120   -4.0200    1.4170 o         1 G9I     -0.264000
@<TRIPOS>BOND
     1    1   19 1   
     2    1   45 1   
     3    1   46 1   
     4    2   24 1   
     5    2   25 1   
     6    3   18 1   
     7    3   24 1   
     8    3   26 1   
     9    4   14 1   
    10    4   20 1   
    11    5    6 1   
    12    5   11 1   
    13    6   23 1   
    14    6   28 1   
    15    6   29 1   
    16    7    9 1   
    17    7   21 1   
    18    7   30 1   
    19    8   10 1   
    20    8   21 1   
    21    8   31 1   
    22    9   22 1   
    23    9   32 1   
    24   10   22 1   
    25   10   33 1   
    26   11   25 1   
    27   11   34 1   
    28   12   16 1   
    29   12   37 1   
    30   12   38 1   
    31   13   15 1   
    32   13   17 1   
    33   15   24 1   
    34   15   44 1   
    35   17   35 1   
    36   17   48 1   
    37   18   27 1   
    38   18   49 1   
    39   18   50 1   
    40   19   22 1   
    41   19   51 1   
    42   19   52 1   
    43   20   23 1   
    44   20   54 1   
    45   21   53 1   
    46   23   26 1   
    47   25   26 1   
    48   36   47 1   
    49   39   40 1   
    50   41   53 1   
    51   42   53 1   
    52   43   53 1   
@<TRIPOS>SUBSTRUCTURE
     1 G9I         1 TEMP              0 ****  ****    0 ROOT
