@<TRIPOS>MOLECULE
G9I
   54    51     1     0     0
SMALL
bcc


@<TRIPOS>ATOM
      1 N11        -0.1550    0.9030   -0.8980 n3        1 G9I     -0.329000
      2 N12        -7.6720   -3.6050   -4.0490 n2        1 G9I     -0.084000
      3 N13        -8.2580   -1.6480   -2.7730 na        1 G9I     -0.201000
      4 N14       -10.5300   -0.2370   -1.2910 n2        1 G9I     -0.372000
      5 CAB       -11.3630   -3.5040   -4.9490 c1        1 G9I     -0.068000
      6 CAC       -11.7840   -2.4350   -4.0640 c3        1 G9I     -0.180000
      7 CAD        -3.4670    2.7150    1.1440 c3        1 G9I     -0.198000
      8 CAE        -4.8300    0.7150    0.6890 c2        1 G9I     -0.200000
      9 CAF        -2.3770    2.1220    0.3830 c1        1 G9I     -0.117000
     10 CAG        -3.7400    0.1580   -0.0590 c2        1 G9I     -0.003000
     11 CAH        -9.9910   -3.8710   -5.0420 c2        1 G9I     -0.164000
     12 CAI         0.2930   -2.3800   -1.6430 c1        1 G9I      0.095500
     13 CAJ        -2.3860   -3.6840   -0.3300 c2        1 G9I     -0.524500
     14 CAK        -9.9360    0.1130   -0.3270 c1        1 G9I      0.168000
     15 CAM        -6.4990   -2.4010   -1.9490 cv        1 G9I     -0.144000
     16 CAN         1.3900   -1.8710   -2.1170 c2        1 G9I     -0.524500
     17 CAO        -3.5410   -3.2320   -0.7060 c1        1 G9I      0.095500
     18 CAP        -7.5690   -1.6630   -1.4990 cv        1 G9I     -0.026000
     19 CAQ        -1.4460    0.2760   -1.0360 c3        1 G9I     -0.039000
     20 CAT       -11.2570   -0.6110   -2.4220 c2        1 G9I      0.411000
     21 CAU        -4.7280    1.9390    1.2680 c2        1 G9I     -0.049000
     22 CAV        -2.5680    0.8490   -0.2150 c2        1 G9I     -0.229000
     23 CAW       -10.7590   -1.7520   -3.2220 c2        1 G9I     -0.162000
     24 CAX        -7.2480   -2.7110   -3.1970 cv        1 G9I      0.061000
     25 CAY        -9.0680   -3.2880   -4.2300 c2        1 G9I      0.030000
     26 CAZ        -9.4730   -2.1670   -3.2770 c2        1 G9I      0.013000
     27 HN14       -7.8760   -1.1560   -0.5840 h4        1 G9I      0.208000
     28 HAB       -12.3110   -1.6590   -4.7030 hc        1 G9I      0.178000
     29 HAC       -12.5940   -2.8610   -3.3960 hc        1 G9I      0.178000
     30 HAD        -3.6860    3.7210    0.6760 hc        1 G9I      0.163000
     31 HAE        -5.7530    0.1190    0.7750 ha        1 G9I      0.135000
     32 HAF        -3.0600    2.9390    2.1760 hc        1 G9I      0.163000
     33 HAG        -3.8830   -0.8460   -0.5030 ha        1 G9I      0.147000
     34 HAH        -9.7110   -4.6560   -5.7650 ha        1 G9I      0.173000
     35 HAI        -2.8170   -1.7350   -2.4210 ha        1 G9I      0.002833
     36 HAIA        1.5820   -0.7800   -2.0840 ha        1 G9I      0.213500
     37 HAJ        -1.4300   -3.3210   -0.7860 ha        1 G9I      0.213500
     38 HAJA       -2.2120   -4.4390    0.4510 ha        1 G9I      0.213500
     39 HAK        -8.9020    2.1020    0.7170 ha        1 G9I      0.002833
     40 HAKA       -8.4740    2.5770    0.9440 ha        1 G9I      0.002833
     41 HAL        -5.4840    2.9020    3.0250 hc        1 G9I      0.094333
     42 HALA       -6.6810    1.8310    2.1750 hc        1 G9I      0.094333
     43 HAM        -6.2370    3.4380    1.4650 hc        1 G9I      0.094333
     44 HAMA       -5.5000   -2.6760   -1.6120 ha        1 G9I      0.237000
     45 HAN         2.2090   -2.4390   -2.5830 ha        1 G9I      0.213500
     46 HANA        0.1210    0.9030    0.0670 hn        1 G9I      0.148500
     47 HAO        -3.3810   -1.9800   -2.7100 ha        1 G9I      0.002833
     48 HAOA       -0.2140    1.8640   -1.1870 hn        1 G9I      0.148500
     49 HAP        -7.7160   -0.3870    1.7300 ha        1 G9I      0.002833
     50 HAPA       -8.1400    0.0370    1.4120 ha        1 G9I      0.002833
     51 HAQ        -1.7470    0.3340   -2.1230 h1        1 G9I      0.089500
     52 HAQA       -1.3250   -0.8210   -0.7820 h1        1 G9I      0.089500
     53 CAL        -5.8390    2.5530    2.0240 c3        1 G9I     -0.202000
     54 OAA       -12.2910    0.0040   -2.7080 o         1 G9I     -0.268000
@<TRIPOS>BOND
     1    1   19 1   
     2    1   46 1   
     3    1   48 1   
     4    2   24 1   
     5    2   25 1   
     6    3   18 1   
     7    3   24 1   
     8    3   26 1   
     9    4   14 1   
    10    4   20 1   
    11    5    6 1   
    12    5   11 1   
    13    6   23 1   
    14    6   28 1   
    15    6   29 1   
    16    7    9 1   
    17    7   21 1   
    18    7   30 1   
    19    7   32 1   
    20    8   10 1   
    21    8   21 1   
    22    8   31 1   
    23    9   22 1   
    24   10   22 1   
    25   10   33 1   
    26   11   25 1   
    27   11   34 1   
    28   12   16 1   
    29   13   17 1   
    30   13   37 1   
    31   13   38 1   
    32   15   18 1   
    33   15   24 1   
    34   15   44 1   
    35   16   36 1   
    36   16   45 1   
    37   18   27 1   
    38   19   22 1   
    39   19   51 1   
    40   19   52 1   
    41   20   23 1   
    42   20   54 1   
    43   21   53 1   
    44   23   26 1   
    45   25   26 1   
    46   35   47 1   
    47   39   40 1   
    48   41   53 1   
    49   42   53 1   
    50   43   53 1   
    51   49   50 1   
@<TRIPOS>SUBSTRUCTURE
     1 G9I         1 TEMP              0 ****  ****    0 ROOT
