@<TRIPOS>MOLECULE
G9I
   54    58     1     0     0
SMALL
bcc


@<TRIPOS>ATOM
      1 N11         6.7070   -0.3290   -0.0470 n3        1 G9I     -0.715600
      2 N12        -2.7660   -2.1440    0.0650 nc        1 G9I     -0.557100
      3 N13        -2.9730    0.1230    0.4250 na        1 G9I     -0.168300
      4 N14        -4.7130    2.6820    0.0890 n         1 G9I     -0.580900
      5 CAB        -6.4120   -1.8580   -0.7890 ca        1 G9I     -0.170000
      6 CAC        -6.5480   -0.4820   -0.5630 ca        1 G9I     -0.052000
      7 CAD         2.5290   -1.6140   -0.2460 ca        1 G9I     -0.129500
      8 CAE         2.0800    0.6540    0.4490 ca        1 G9I     -0.129500
      9 CAF         3.8700   -1.4530    0.0960 ca        1 G9I     -0.113500
     10 CAG         3.4210    0.8180    0.7870 ca        1 G9I     -0.113500
     11 CAH        -5.2000   -2.5120   -0.6080 ca        1 G9I     -0.042000
     12 CAI         8.8760    0.7840   -0.3620 c3        1 G9I     -0.097900
     13 CAJ         7.8950    1.3670   -1.3700 c3        1 G9I     -0.097900
     14 CAK        -3.3720    2.4570   -0.3380 c3        1 G9I      0.092000
     15 CAM        -0.6720   -0.9370    0.7930 c3        1 G9I     -0.093700
     16 CAN         8.1020   -0.3010    0.4060 c3        1 G9I      0.153800
     17 CAO         6.5840    0.5850   -1.1860 c3        1 G9I      0.153800
     18 CAP        -2.5630    1.4870    0.5550 c3        1 G9I      0.020300
     19 CAQ         5.7580   -0.0760    1.0280 c3        1 G9I      0.207100
     20 CAT        -5.7300    1.7440    0.1160 c         1 G9I      0.719100
     21 CAU         1.6230   -0.5620   -0.0700 ca        1 G9I     -0.087300
     22 CAV         4.3240   -0.2370    0.6160 ca        1 G9I     -0.083300
     23 CAW        -5.4700    0.3130   -0.1600 ca        1 G9I     -0.147600
     24 CAX        -2.1180   -1.0180    0.4180 cd        1 G9I      0.420800
     25 CAY        -4.0940   -1.7570   -0.2020 ca        1 G9I      0.053400
     26 CAZ        -4.2340   -0.3240    0.0140 ca        1 G9I     -0.033200
     27 HN14       -4.9640    3.6120    0.3410 hn        1 G9I      0.323500
     28 HAB        -7.2940   -2.4330   -1.1100 ha        1 G9I      0.140000
     29 HAC        -7.5340   -0.0020   -0.6910 ha        1 G9I      0.159000
     30 HAD         2.1800   -2.5740   -0.6570 ha        1 G9I      0.130000
     31 HAE         1.3750    1.4870    0.5870 ha        1 G9I      0.130000
     32 HAF         4.5800   -2.2820   -0.0490 ha        1 G9I      0.139500
     33 HAG         3.7690    1.7800    1.1910 ha        1 G9I      0.139500
     34 HAH        -5.1030   -3.5950   -0.7740 ha        1 G9I      0.151000
     35 HAI         9.7620    0.3370   -0.8750 hc        1 G9I      0.046950
     36 HAIA        9.2480    1.5700    0.3380 hc        1 G9I      0.046950
     37 HAJ         7.7310    2.4570   -1.1850 hc        1 G9I      0.046950
     38 HAJA        8.2720    1.2520   -2.4150 hc        1 G9I      0.046950
     39 HAK        -3.3640    2.0690   -1.3990 h1        1 G9I      0.059200
     40 HAKA       -2.8250    3.4430   -0.3250 h1        1 G9I      0.059200
     41 HAL         0.0660   -1.6040   -1.1310 hc        1 G9I      0.057700
     42 HALA       -0.1580    0.1850   -0.9950 hc        1 G9I      0.057700
     43 HAM        -0.3740   -1.8930    1.3040 hc        1 G9I      0.072700
     44 HAMA       -0.5080   -0.1010    1.5240 hc        1 G9I      0.072700
     45 HAN         8.1870   -0.1290    1.5130 h1        1 G9I      0.047700
     46 HANA        8.5330   -1.3150    0.1820 h1        1 G9I      0.047700
     47 HAO         6.3850   -0.0510   -2.0920 h1        1 G9I      0.047700
     48 HAOA        5.7170    1.2900   -1.0640 h1        1 G9I      0.047700
     49 HAP        -2.6550    1.7940    1.6370 h1        1 G9I      0.063200
     50 HAPA       -1.4770    1.5710    0.2580 h1        1 G9I      0.063200
     51 HAQ         5.9710   -0.8320    1.8400 h1        1 G9I      0.038700
     52 HAQA        5.8960    0.9510    1.4820 h1        1 G9I      0.038700
     53 CAL         0.1910   -0.7270   -0.4410 c3        1 G9I     -0.036100
     54 OAA        -6.8780    2.1550    0.3910 o         1 G9I     -0.645500
@<TRIPOS>BOND
     1    1   16 1   
     2    1   17 1   
     3    1   19 1   
     4    2   24 2   
     5    2   25 1   
     6    3   18 1   
     7    3   24 1   
     8    3   26 1   
     9    4   14 1   
    10    4   20 1   
    11    4   27 1   
    12    5    6 ar  
    13    5   11 ar  
    14    5   28 1   
    15    6   23 ar  
    16    6   29 1   
    17    7    9 ar  
    18    7   21 ar  
    19    7   30 1   
    20    8   10 ar  
    21    8   21 ar  
    22    8   31 1   
    23    9   22 ar  
    24    9   32 1   
    25   10   22 ar  
    26   10   33 1   
    27   11   25 ar  
    28   11   34 1   
    29   12   13 1   
    30   12   16 1   
    31   12   35 1   
    32   12   36 1   
    33   13   17 1   
    34   13   37 1   
    35   13   38 1   
    36   14   18 1   
    37   14   39 1   
    38   14   40 1   
    39   15   24 1   
    40   15   43 1   
    41   15   44 1   
    42   15   53 1   
    43   16   45 1   
    44   16   46 1   
    45   17   47 1   
    46   17   48 1   
    47   18   49 1   
    48   18   50 1   
    49   19   22 1   
    50   19   51 1   
    51   19   52 1   
    52   20   23 1   
    53   20   54 2   
    54   21   53 1   
    55   23   26 ar  
    56   25   26 ar  
    57   41   53 1   
    58   42   53 1   
@<TRIPOS>SUBSTRUCTURE
     1 G9I         1 TEMP              0 ****  ****    0 ROOT
