@<TRIPOS>MOLECULE
G9L
   50    45     1     0     0
SMALL
bcc


@<TRIPOS>ATOM
      1 N11        -2.3100   -2.1390   -0.0300 n3        1 G9L     -0.221000
      2 N12        -2.8320    1.3910   -1.8650 n         1 G9L     -0.418000
      3 N13        -8.0480   -1.6390   -3.9980 n         1 G9L     -0.263000
      4 OAA        -0.9760    0.1970   -1.2870 o         1 G9L     -0.457000
      5 CAD        -4.8700    2.0610   -6.6550 c2        1 G9L     -0.557000
      6 CAE        -4.6530    3.1660   -5.9870 c1        1 G9L      0.203000
      7 CAF        -6.8510    0.5060   -6.7820 c1        1 G9L     -0.133000
      8 CAG         3.3180    2.7370   -0.3750 c3        1 G9L     -0.270000
      9 CAH         1.0580   -1.9830    1.9010 c1        1 G9L     -0.231750
     10 CAI        -0.5340    4.4560   -0.4200 c1        1 G9L     -0.231750
     11 CAJ        -2.8280   -1.0710   -2.1690 c3        1 G9L     -0.217000
     12 CAK        -7.4440   -1.9460   -1.6740 c2        1 G9L     -0.257000
     13 CAL         0.8110   -1.2640    0.9770 c1        1 G9L     -0.231750
     14 CAM        -0.3320    3.2950   -0.6240 c1        1 G9L     -0.231750
     15 CAN        -3.1190   -1.9980   -1.0400 c1        1 G9L     -0.171000
     16 CAO        -6.4080   -2.3790   -0.9520 c2        1 G9L     -0.107000
     17 CAP        -5.6470    0.4090   -2.0440 c1        1 G9L     -0.159000
     18 CAR        -2.1500    0.2190   -1.7430 c2        1 G9L      0.289000
     19 CAS        -6.1610    1.6680   -7.3390 c3        1 G9L      0.173000
     20 CAT        -7.3070   -1.2330   -2.9520 c2        1 G9L      0.258000
     21 CAU        -6.3930   -0.1290   -3.0830 c2        1 G9L     -0.304000
     22 CAV        -7.9880   -1.0250   -5.3090 c2        1 G9L      0.360000
     23 CAW        -6.2640    0.4610   -4.3710 c2        1 G9L      0.137000
     24 CAX        -6.9920    0.0520   -5.4810 c2        1 G9L     -0.241000
     25 HN13       -8.6710   -2.4190   -3.8990 hn        1 G9L      0.252000
     26 HAD        -4.0510    1.3300   -6.8130 ha        1 G9L      0.208000
     27 HAE        -5.5280    1.2850   -4.4720 ha        1 G9L      0.174000
     28 HAF        -6.9180    2.5170   -7.2320 h1        1 G9L      0.123000
     29 HAG         2.2180    2.8940   -0.4490 hc        1 G9L      0.067250
     30 HAGA        3.8460    3.5540   -0.9110 hc        1 G9L      0.067250
     31 HAH         3.5820    1.7600   -0.8340 hc        1 G9L      0.067250
     32 HAHA        1.2840   -2.6180    2.7200 ha        1 G9L      0.231500
     33 HAI        -0.7080    5.4870   -0.2410 ha        1 G9L      0.231500
     34 HAIA        3.6210    2.7380    0.6950 hc        1 G9L      0.067250
     35 HAJ        -2.1490   -1.5960   -2.8980 hc        1 G9L      0.128500
     36 HAJA       -3.8010   -0.8730   -2.6960 hc        1 G9L      0.128500
     37 HAK        -8.4850   -2.1100   -1.3410 ha        1 G9L      0.151000
     38 HAKA       -6.5700   -2.9060    0.0010 ha        1 G9L      0.160000
     39 HAL        -2.5460   -2.7880    0.6850 hn        1 G9L      0.213500
     40 HALA        0.6020   -0.6160    0.1530 ha        1 G9L      0.231500
     41 HAM        -0.1530    2.2570   -0.8060 ha        1 G9L      0.231500
     42 HAMA       -1.4440   -1.6430    0.0970 hn        1 G9L      0.213500
     43 HAN         1.5050    0.8580   -1.3850 ha        1 G9L      0.002000
     44 HANA        1.3250    0.3800   -1.8310 ha        1 G9L      0.002000
     45 HAO        -5.3430   -2.2660   -1.2420 ha        1 G9L      0.160000
     46 HAOA       -3.8100    1.3880   -2.0920 hn        1 G9L      0.249000
     47 HAP        -2.4110    2.2310   -1.5480 hn        1 G9L      0.249000
     48 HAPA       -5.8190    0.0710   -1.0150 ha        1 G9L      0.070000
     49 OAB        -8.7930   -1.4780   -6.1230 o         1 G9L     -0.258000
     50 FAC        -5.9190    1.5120   -8.7010 f         1 G9L     -0.140000
@<TRIPOS>BOND
     1    1   15 1   
     2    1   39 1   
     3    1   42 1   
     4    2   18 1   
     5    2   46 1   
     6    2   47 1   
     7    3   20 1   
     8    3   22 1   
     9    3   25 1   
    10    4   18 1   
    11    5    6 1   
    12    5   19 1   
    13    5   26 1   
    14    7   19 1   
    15    7   24 1   
    16    8   29 1   
    17    8   30 1   
    18    8   31 1   
    19    8   34 1   
    20    9   13 1   
    21    9   32 1   
    22   10   14 1   
    23   10   33 1   
    24   11   15 1   
    25   11   18 1   
    26   11   35 1   
    27   11   36 1   
    28   12   16 1   
    29   12   20 1   
    30   12   37 1   
    31   13   40 1   
    32   14   41 1   
    33   16   38 1   
    34   16   45 1   
    35   17   21 1   
    36   17   48 1   
    37   19   28 1   
    38   19   50 1   
    39   20   21 1   
    40   21   23 1   
    41   22   24 1   
    42   22   49 1   
    43   23   24 1   
    44   23   27 1   
    45   43   44 1   
@<TRIPOS>SUBSTRUCTURE
     1 G9L         1 TEMP              0 ****  ****    0 ROOT
