@<TRIPOS>MOLECULE
G9L
   50    44     1     0     0
SMALL
bcc


@<TRIPOS>ATOM
      1 N11        -0.1350   -0.3800   -0.9290 n3        1 G9L     -0.219000
      2 N12        -4.1530    0.0400   -2.7410 n         1 G9L     -0.254000
      3 N13        -8.3190    0.2840   -4.2420 n         1 G9L     -0.279000
      4 OAA        -2.4080    1.1330   -1.6550 o         1 G9L     -0.308000
      5 CAD        -3.5850   -3.2500   -5.6270 c2        1 G9L     -0.522000
      6 CAE        -3.7830   -2.5180   -4.5710 c1        1 G9L      0.124000
      7 CAF        -7.7580    3.4540   -6.0970 c1        1 G9L     -0.115000
      8 CAG         3.1250    1.1650    1.1510 c3        1 G9L     -0.123000
      9 CAH         2.9290   -0.2090    0.8190 c1        1 G9L     -0.173000
     10 CAI        -0.1720    2.7040    1.8160 c1        1 G9L     -0.229000
     11 CAJ        -2.2570   -1.2870   -1.8330 c3        1 G9L     -0.216000
     12 CAK        -6.9890   -0.9890   -2.6400 c2        1 G9L     -0.174000
     13 CAL         2.7660   -1.3630    0.5410 c1        1 G9L     -0.225000
     14 CAM        -0.7980    2.6020    0.8020 c1        1 G9L     -0.229000
     15 CAN        -0.8840   -1.3750   -1.2940 c1        1 G9L     -0.157000
     16 CAO        -7.3910   -2.2300   -2.9160 c2        1 G9L     -0.176000
     17 CAP        -4.8630    1.1360   -2.9690 c1        1 G9L     -0.012000
     18 CAR        -2.9040    0.0700   -2.0460 c2        1 G9L      0.300000
     19 CAS        -7.9760    4.3770   -6.8250 c1        1 G9L      0.004000
     20 CAT        -7.1310    0.1510   -3.5580 c2        1 G9L      0.116000
     21 CAU        -6.1270    1.1070   -3.6880 c2        1 G9L     -0.231000
     22 CAV        -8.5790    1.3550   -5.1250 c2        1 G9L      0.338000
     23 CAW        -6.3570    2.2410   -4.5340 c2        1 G9L      0.028000
     24 CAX        -7.5190    2.3680   -5.2480 c2        1 G9L     -0.072000
     25 HN13       -9.0460   -0.3840   -4.0930 hn        1 G9L      0.247000
     26 HAD        -3.1220   -4.2510   -5.6030 ha        1 G9L      0.202500
     27 HAE        -5.5650    3.0080   -4.5890 ha        1 G9L      0.169000
     28 HAF        -3.8560   -2.9330   -6.6490 ha        1 G9L      0.202500
     29 HAG         1.6710    2.0010   -1.1220 ha        1 G9L      0.001167
     30 HAGA        1.1430    2.3270   -0.8490 ha        1 G9L      0.001167
     31 HAH         3.6130    1.7100    0.3020 hc        1 G9L      0.098333
     32 HAHA        3.7800    1.2590    2.0570 hc        1 G9L      0.098333
     33 HAI         2.1410    1.6620    1.3690 hc        1 G9L      0.098333
     34 HAIA        0.3780    2.7980    2.7190 ha        1 G9L      0.229000
     35 HAJ        -2.2410   -1.8450   -2.8150 hc        1 G9L      0.145500
     36 HAJA       -2.9090   -1.8780   -1.1260 hc        1 G9L      0.145500
     37 HAK        -6.5230   -0.7380   -1.6700 ha        1 G9L      0.154000
     38 HAKA       -7.2560   -3.0500   -2.1950 ha        1 G9L      0.125500
     39 HAL         0.7760   -0.5810   -0.5690 hn        1 G9L      0.215000
     40 HALA        2.6190   -2.3850    0.2980 ha        1 G9L      0.229000
     41 HAM        -1.3680    2.5160   -0.0960 ha        1 G9L      0.229000
     42 HAMA       -0.3830    0.5940   -0.9550 hn        1 G9L      0.215000
     43 HAN        -1.0920    2.9550   -2.4760 ha        1 G9L      0.001167
     44 HANA       -0.5450    2.6210   -2.2530 ha        1 G9L      0.001167
     45 HAO        -4.9500   -2.8950   -0.5700 ha        1 G9L      0.001167
     46 HAOA       -5.2260   -2.5510   -1.0850 ha        1 G9L      0.001167
     47 HAP        -4.4220   -0.8800   -3.0620 hn        1 G9L      0.201000
     48 HAPA       -7.8590   -2.5210   -3.8660 ha        1 G9L      0.125500
     49 OAB        -9.6750    1.3510   -5.7130 o         1 G9L     -0.345000
     50 FAC        -8.1980    5.3810   -7.6120 f         1 G9L      0.010000
@<TRIPOS>BOND
     1    1   15 1   
     2    1   39 1   
     3    1   42 1   
     4    2   17 1   
     5    2   18 1   
     6    2   47 1   
     7    3   20 1   
     8    3   22 1   
     9    3   25 1   
    10    4   18 1   
    11    5    6 1   
    12    5   26 1   
    13    5   28 1   
    14    7   19 1   
    15    7   24 1   
    16    8    9 1   
    17    8   31 1   
    18    8   32 1   
    19    8   33 1   
    20    9   13 1   
    21   10   14 1   
    22   10   34 1   
    23   11   15 1   
    24   11   18 1   
    25   11   35 1   
    26   11   36 1   
    27   12   16 1   
    28   12   20 1   
    29   12   37 1   
    30   13   40 1   
    31   14   41 1   
    32   16   38 1   
    33   16   48 1   
    34   17   21 1   
    35   19   50 1   
    36   20   21 1   
    37   21   23 1   
    38   22   24 1   
    39   22   49 1   
    40   23   24 1   
    41   23   27 1   
    42   29   30 1   
    43   43   44 1   
    44   45   46 1   
@<TRIPOS>SUBSTRUCTURE
     1 G9L         1 TEMP              0 ****  ****    0 ROOT
