@<TRIPOS>MOLECULE
G9L
   50    45     1     0     0
SMALL
bcc


@<TRIPOS>ATOM
      1 N11        -2.3260   -0.9090   -0.6830 n8        1 G9L     -0.222000
      2 N12        -4.0850    2.4820   -2.0550 nt        1 G9L     -0.421000
      3 N13        -6.5370   -2.4360   -3.9300 ns        1 G9L     -0.263000
      4 OAA        -1.9890    1.8990   -1.3650 o         1 G9L     -0.447000
      5 CAD        -4.8760    2.4040   -6.1690 c2        1 G9L     -0.541000
      6 CAE        -4.2340    3.0000   -5.1980 c1        1 G9L      0.171000
      7 CAF        -5.1820   -0.0920   -6.4800 c1        1 G9L     -0.139000
      8 CAG         2.1960    1.0370    0.2410 c3        1 G9L     -0.270000
      9 CAH        -0.1100   -3.3980   -1.2550 c1        1 G9L     -0.227500
     10 CAI         1.4780    4.7790   -1.2370 c1        1 G9L     -0.227500
     11 CAJ        -3.8250    0.9430   -0.1270 c3        1 G9L     -0.220000
     12 CAK        -7.0720   -2.2820   -1.5670 c2        1 G9L     -0.257000
     13 CAL         0.2810   -2.2840   -1.4500 c1        1 G9L     -0.227500
     14 CAM         0.6020    3.9680   -1.3090 c1        1 G9L     -0.227500
     15 CAN        -3.4880   -0.5020   -0.2610 c1        1 G9L     -0.177000
     16 CAO        -6.4000   -2.1200   -0.4250 c2        1 G9L     -0.114000
     17 CAP        -6.5170    0.6380   -1.8410 c1        1 G9L     -0.148000
     18 CAR        -3.2360    1.8140   -1.2240 c2        1 G9L      0.289000
     19 CAS        -4.4820    1.1250   -6.8810 c3        1 G9L      0.176000
     20 CAT        -6.6500   -1.6650   -2.8330 c2        1 G9L      0.259000
     21 CAU        -6.3470   -0.2610   -2.8880 c2        1 G9L     -0.305000
     22 CAV        -6.0910   -1.9380   -5.2160 c2        1 G9L      0.360000
     23 CAW        -5.8310    0.2430   -4.1110 c2        1 G9L      0.140000
     24 CAX        -5.6780   -0.5220   -5.2610 c2        1 G9L     -0.241000
     25 HN13       -6.7550   -3.4140   -3.8800 hn        1 G9L      0.252000
     26 HAD        -5.7970    2.8620   -6.5850 ha        1 G9L      0.214000
     27 HAE        -5.5570    1.3170   -4.1290 ha        1 G9L      0.170000
     28 HAF        -3.3860    0.8960   -6.6510 h1        1 G9L      0.126000
     29 HAG         1.6990    1.9300   -0.2030 hc        1 G9L      0.067250
     30 HAGA        3.2910    1.0920    0.0590 hc        1 G9L      0.067250
     31 HAH         1.7880    0.1150   -0.2290 hc        1 G9L      0.067250
     32 HAHA       -0.4460   -4.3900   -1.0840 ha        1 G9L      0.227750
     33 HAI         2.2550    5.4970   -1.1740 ha        1 G9L      0.227750
     34 HAIA        2.0030    1.0100    1.3360 hc        1 G9L      0.067250
     35 HAJ        -3.4280    1.3140    0.8590 hc        1 G9L      0.132000
     36 HAJA       -4.9460    1.0220   -0.0890 hc        1 G9L      0.132000
     37 HAK        -6.7470   -2.5930    0.5070 ha        1 G9L      0.161500
     38 HAKA       -7.9880   -2.8970   -1.6240 ha        1 G9L      0.151000
     39 HAL         0.6370   -1.2970   -1.6260 ha        1 G9L      0.227750
     40 HALA       -2.1380   -1.8870   -0.7310 hn        1 G9L      0.213500
     41 HAM        -1.5720   -0.3100   -0.9760 hn        1 G9L      0.213500
     42 HAMA       -0.1850    3.2490   -1.3760 ha        1 G9L      0.227750
     43 HAN        -0.0370    0.7570   -2.3080 ha        1 G9L      0.003000
     44 HANA        0.2550    1.0240   -1.7570 ha        1 G9L      0.003000
     45 HAO        -5.4590   -1.5350   -0.3350 ha        1 G9L      0.161500
     46 HAOA       -5.0680    2.3120   -2.0040 hn        1 G9L      0.249000
     47 HAP        -3.7250    3.0120   -2.8150 hn        1 G9L      0.249000
     48 HAPA       -7.0110    0.3100   -0.9180 ha        1 G9L      0.067000
     49 OAB        -6.0950   -2.7790   -6.1160 o         1 G9L     -0.260000
     50 FAC        -4.5720    1.3350   -8.2540 f         1 G9L     -0.140000
@<TRIPOS>BOND
     1    1   15 1   
     2    1   40 1   
     3    1   41 1   
     4    2   18 1   
     5    2   46 1   
     6    2   47 1   
     7    3   20 1   
     8    3   22 1   
     9    3   25 1   
    10    4   18 1   
    11    5    6 1   
    12    5   19 1   
    13    5   26 1   
    14    7   19 1   
    15    7   24 1   
    16    8   29 1   
    17    8   30 1   
    18    8   31 1   
    19    8   34 1   
    20    9   13 1   
    21    9   32 1   
    22   10   14 1   
    23   10   33 1   
    24   11   15 1   
    25   11   18 1   
    26   11   35 1   
    27   11   36 1   
    28   12   16 1   
    29   12   20 1   
    30   12   38 1   
    31   13   39 1   
    32   14   42 1   
    33   16   37 1   
    34   16   45 1   
    35   17   21 1   
    36   17   48 1   
    37   19   28 1   
    38   19   50 1   
    39   20   21 1   
    40   21   23 1   
    41   22   24 1   
    42   22   49 1   
    43   23   24 1   
    44   23   27 1   
    45   43   44 1   
@<TRIPOS>SUBSTRUCTURE
     1 G9L         1 TEMP              0 ****  ****    0 ROOT
