@<TRIPOS>MOLECULE
G9L
   50    50     1     0     0
SMALL
bcc


@<TRIPOS>ATOM
      1 N11         1.8610    0.9870    2.8520 n3        1 G9L     -0.739600
      2 N12        -1.2110   -1.8230    0.2680 n         1 G9L     -0.483800
      3 N13        -4.1660   -1.8570   -2.8580 n         1 G9L     -0.450100
      4 OAA        -0.9900   -1.3470    2.5190 o         1 G9L     -0.611100
      5 OAB        -4.6370   -1.5100   -5.1220 o         1 G9L     -0.591100
      6 FAC        -0.4510    0.4890   -7.3660 f         1 G9L     -0.102100
      7 CAD         0.2060    0.1600   -5.1020 c1        1 G9L     -0.069500
      8 CAE        -0.0970   -0.2910   -3.8200 c1        1 G9L     -0.069500
      9 CAF        -2.0820   -0.2500   -5.8170 c1        1 G9L     -0.041500
     10 CAG         3.8980    1.9030    4.3420 c3        1 G9L     -0.077400
     11 CAH         2.7690    2.0980    5.0130 c3        1 G9L     -0.095900
     12 CAI         4.1120    2.2580    3.0790 c3        1 G9L     -0.095900
     13 CAJ         0.7260   -0.3390    1.1630 c3        1 G9L     -0.147400
     14 CAK        -3.4800   -1.9880   -0.4220 c3        1 G9L     -0.074200
     15 CAL         1.5470    1.8560    4.1390 c3        1 G9L      0.171300
     16 CAM         2.8800    2.0140    2.2100 c3        1 G9L      0.171300
     17 CAN         0.6580    0.9020    2.0100 c3        1 G9L      0.174800
     18 CAO        -2.1530   -2.4670    0.4130 c3        1 G9L      0.095000
     19 CAP        -0.6760   -1.6540   -1.1930 c3        1 G9L      0.160200
     20 CAR        -0.5490   -1.1970    1.3910 c         1 G9L      0.665100
     21 CAS        -0.8040    0.1790   -6.1110 c1        1 G9L      0.068100
     22 CAT        -3.1880   -1.7850   -1.8090 c2        1 G9L      0.075400
     23 CAU        -1.7280   -1.2380   -2.1280 ce        1 G9L     -0.161900
     24 CAV        -3.8260   -1.3910   -4.2160 c         1 G9L      0.618300
     25 CAW        -1.4030   -0.7300   -3.5170 cg        1 G9L     -0.006300
     26 CAX        -2.3940   -0.7120   -4.5030 ch        1 G9L     -0.083200
     27 HN13       -4.9940   -2.1890   -2.6860 hn        1 G9L      0.335500
     28 HAD         1.1110    0.4620   -5.3110 ha        1 G9L      0.090000
     29 HAE         0.5910   -0.3040   -3.1340 ha        1 G9L      0.090000
     30 HAF        -2.7840   -0.1830   -6.4870 ha        1 G9L      0.118500
     31 HAG         4.6060    2.3440    4.8720 hc        1 G9L      0.040200
     32 HAGA        4.0710    0.9440    4.3830 hc        1 G9L      0.040200
     33 HAH         2.7490    3.0190    5.3410 hc        1 G9L      0.046200
     34 HAHA        2.7420    1.4830    5.7770 hc        1 G9L      0.046200
     35 HAI         4.8650    1.7380    2.7230 hc        1 G9L      0.046200
     36 HAIA        4.3400    3.2140    3.0500 hc        1 G9L      0.046200
     37 HAJ         1.5130   -0.8560    1.4090 hc        1 G9L      0.071200
     38 HAJA        0.7840   -0.0850    0.2220 hc        1 G9L      0.071200
     39 HAK        -4.2360   -2.5550   -0.1560 hc        1 G9L      0.072200
     40 HAKA       -3.8010   -1.1150   -0.1080 hc        1 G9L      0.072200
     41 HAL         0.8710    1.4000    4.6680 h1        1 G9L      0.040950
     42 HALA        1.1910    2.7240    3.8510 h1        1 G9L      0.040950
     43 HAM         3.1720    1.6680    1.3400 h1        1 G9L      0.040950
     44 HAMA        2.4260    2.8560    2.0740 h1        1 G9L      0.040950
     45 HAN        -0.1320    0.8670    2.5750 h1        1 G9L      0.052200
     46 HANA        0.6110    1.6930    1.4280 h1        1 G9L      0.052200
     47 HAO        -2.3810   -2.4680    1.3810 h1        1 G9L      0.071200
     48 HAOA       -1.9380   -3.3940    0.1450 h1        1 G9L      0.071200
     49 HAP         0.0530   -1.0350   -1.3370 h1        1 G9L      0.052200
     50 HAPA       -0.2520   -2.4920   -1.4320 h1        1 G9L      0.052200
@<TRIPOS>BOND
     1    1   15 1   
     2    1   16 1   
     3    1   17 1   
     4    2   18 1   
     5    2   19 1   
     6    2   20 1   
     7    3   22 1   
     8    3   24 1   
     9    3   27 1   
    10    4   20 2   
    11    5   24 2   
    12    6   21 1   
    13    7    8 3   
    14    7   28 1   
    15    8   29 1   
    16    9   21 3   
    17    9   30 1   
    18   10   11 1   
    19   10   12 1   
    20   10   31 1   
    21   10   32 1   
    22   11   15 1   
    23   11   33 1   
    24   11   34 1   
    25   12   16 1   
    26   12   35 1   
    27   12   36 1   
    28   13   17 1   
    29   13   20 1   
    30   13   37 1   
    31   13   38 1   
    32   14   18 1   
    33   14   22 1   
    34   14   39 1   
    35   14   40 1   
    36   15   41 1   
    37   15   42 1   
    38   16   43 1   
    39   16   44 1   
    40   17   45 1   
    41   17   46 1   
    42   18   47 1   
    43   18   48 1   
    44   19   23 1   
    45   19   49 1   
    46   19   50 1   
    47   22   23 2   
    48   23   25 1   
    49   24   26 1   
    50   25   26 3   
@<TRIPOS>SUBSTRUCTURE
     1 G9L         1 TEMP              0 ****  ****    0 ROOT
