@<TRIPOS>MOLECULE
G9L
   50    53     1     0     0
SMALL
bcc


@<TRIPOS>ATOM
      1 N11        -5.2190    0.3010   -0.0760 n3        1 G9L     -0.739600
      2 N12        -0.4100    0.3110    1.2000 n         1 G9L     -0.462800
      3 N13         2.6910   -2.3610    0.0960 n         1 G9L     -0.451100
      4 OAA        -1.3750    1.8870   -0.1470 o         1 G9L     -0.599100
      5 CAD         4.8130    2.2330   -0.1910 ca        1 G9L     -0.127000
      6 CAE         3.5640    1.7780    0.1900 ca        1 G9L     -0.123000
      7 CAF         5.5130   -0.0540   -0.6620 ca        1 G9L     -0.102000
      8 CAG        -7.8850   -0.4220   -1.0290 c3        1 G9L     -0.078400
      9 CAH        -7.6800    0.6890   -0.0230 c3        1 G9L     -0.077900
     10 CAI        -6.7840   -1.4530   -0.9060 c3        1 G9L     -0.077900
     11 CAJ        -2.8340    0.1080    0.5780 c3        1 G9L     -0.148400
     12 CAK         0.3890   -2.0290    0.9220 c3        1 G9L     -0.080200
     13 CAL        -6.2830    1.2950   -0.1450 c3        1 G9L      0.173300
     14 CAM        -5.4080   -0.7990   -1.0120 c3        1 G9L      0.173300
     15 CAN        -3.8970    0.9030   -0.1870 c3        1 G9L      0.176800
     16 CAO        -0.4010   -1.0170    1.7580 c3        1 G9L      0.089000
     17 CAP         0.9090    0.8730    0.9810 c3        1 G9L      0.134200
     18 CAR        -1.5000    0.8230    0.4890 c         1 G9L      0.655100
     19 CAS         5.7980    1.3150   -0.6220 ca        1 G9L      0.102900
     20 CAT         1.7190   -1.4640    0.5140 cc        1 G9L      0.059400
     21 CAU         1.9560   -0.1100    0.5420 cd        1 G9L     -0.172400
     22 CAV         3.9630   -1.9490   -0.3150 c         1 G9L      0.706100
     23 CAW         3.2500    0.4040    0.1540 ca        1 G9L      0.012200
     24 CAX         4.2440   -0.5010   -0.2730 ca        1 G9L     -0.132600
     25 HN13        2.4800   -3.3350    0.0800 hn        1 G9L      0.333500
     26 HAD         5.0550    3.3060   -0.1640 ha        1 G9L      0.153000
     27 HAE         2.8080    2.5040    0.5260 ha        1 G9L      0.148000
     28 HAF         6.2710   -0.7820   -0.9950 ha        1 G9L      0.175000
     29 HAG        -8.8810   -0.9080   -0.8620 hc        1 G9L      0.041200
     30 HAGA       -7.8880    0.0040   -2.0670 hc        1 G9L      0.041200
     31 HAH        -8.4320    1.5030   -0.1880 hc        1 G9L      0.046700
     32 HAHA       -7.8300    0.2900    1.0140 hc        1 G9L      0.046700
     33 HAI        -6.8750   -1.9860    0.0750 hc        1 G9L      0.046700
     34 HAIA       -6.8760   -2.2160   -1.7210 hc        1 G9L      0.046700
     35 HAJ        -3.1370    0.0050    1.6530 hc        1 G9L      0.071200
     36 HAJA       -2.7290   -0.9190    0.1400 hc        1 G9L      0.071200
     37 HAK         0.5170   -2.9620    1.5330 hc        1 G9L      0.067700
     38 HAKA       -0.1880   -2.3020   -0.0030 hc        1 G9L      0.067700
     39 HAL        -6.1280    2.0160    0.7070 h1        1 G9L      0.029450
     40 HALA       -6.2330    1.8850   -1.1070 h1        1 G9L      0.029450
     41 HAM        -5.2550   -0.4620   -2.0810 h1        1 G9L      0.029450
     42 HAMA       -4.6210   -1.5720   -0.7860 h1        1 G9L      0.029450
     43 HAN        -3.5620    1.0020   -1.2610 h1        1 G9L      0.052700
     44 HANA       -3.9220    1.9450    0.2450 h1        1 G9L      0.052700
     45 HAO         0.0770   -0.9470    2.7790 h1        1 G9L      0.062700
     46 HAOA       -1.4480   -1.4020    1.8990 h1        1 G9L      0.062700
     47 HAP         0.8330    1.6950    0.2080 h1        1 G9L      0.076700
     48 HAPA        1.2470    1.3350    1.9560 h1        1 G9L      0.076700
     49 OAB         4.7760   -2.8180   -0.6840 o         1 G9L     -0.631500
     50 FAC         7.0190    1.7680   -0.9950 f         1 G9L     -0.135900
@<TRIPOS>BOND
     1    1   13 1   
     2    1   14 1   
     3    1   15 1   
     4    2   16 1   
     5    2   17 1   
     6    2   18 1   
     7    3   20 1   
     8    3   22 1   
     9    3   25 1   
    10    4   18 2   
    11    5    6 ar  
    12    5   19 ar  
    13    5   26 1   
    14    6   23 ar  
    15    6   27 1   
    16    7   19 ar  
    17    7   24 ar  
    18    7   28 1   
    19    8    9 1   
    20    8   10 1   
    21    8   29 1   
    22    8   30 1   
    23    9   13 1   
    24    9   31 1   
    25    9   32 1   
    26   10   14 1   
    27   10   33 1   
    28   10   34 1   
    29   11   15 1   
    30   11   18 1   
    31   11   35 1   
    32   11   36 1   
    33   12   16 1   
    34   12   20 1   
    35   12   37 1   
    36   12   38 1   
    37   13   39 1   
    38   13   40 1   
    39   14   41 1   
    40   14   42 1   
    41   15   43 1   
    42   15   44 1   
    43   16   45 1   
    44   16   46 1   
    45   17   21 1   
    46   17   47 1   
    47   17   48 1   
    48   19   50 1   
    49   20   21 2   
    50   21   23 1   
    51   22   24 1   
    52   22   49 2   
    53   23   24 ar  
@<TRIPOS>SUBSTRUCTURE
     1 G9L         1 TEMP              0 ****  ****    0 ROOT
