@<TRIPOS>MOLECULE
G9M
   57    61     1     0     0
SMALL
bcc


@<TRIPOS>ATOM
      1 C           0.4000   -2.9170    0.6130 c         1 G9M      0.662100
      2 O           0.0030   -3.9050   -0.0290 o         1 G9M     -0.598100
      3 CA          1.8140   -2.9370    1.2200 c3        1 G9M      0.096800
      4 N11         5.7360    1.0490    0.0680 n3        1 G9M     -0.725600
      5 N12         2.5530   -1.7060    1.0090 n3        1 G9M     -0.742600
      6 N13        -0.3890   -1.8130    0.8970 n         1 G9M     -0.533400
      7 N14        -5.5190   -0.7510   -1.0370 n         1 G9M     -0.444100
      8 N15        -2.0940   -0.2910    0.2940 nb        1 G9M     -0.686000
      9 OAB        -7.1540    0.7330   -1.5580 o         1 G9M     -0.632500
     10 CAC        -4.7330    4.0170   -0.4070 ca        1 G9M     -0.138000
     11 CAD        -3.4450    3.7540    0.0650 ca        1 G9M     -0.108000
     12 CAE        -2.5260   -2.6700   -0.0260 ca        1 G9M     -0.205300
     13 CAF        -5.5560    2.9650   -0.7940 ca        1 G9M     -0.074000
     14 CAG        -2.9760    2.4470    0.1530 ca        1 G9M     -0.109000
     15 CAH        -3.7950   -2.3930   -0.4950 ca        1 G9M     -0.132000
     16 CAI         7.6020    1.8210   -1.3010 c3        1 G9M     -0.088400
     17 CAJ         8.0600    1.7880    0.1510 c3        1 G9M     -0.088400
     18 CAK         3.7210   -0.2340   -0.6280 c3        1 G9M     -0.078400
     19 CAL         4.4550   -0.2730    1.7400 c3        1 G9M     -0.078400
     20 CAM         6.1850    1.2290   -1.3140 c3        1 G9M      0.161800
     21 CAN         6.8970    1.1810    0.9500 c3        1 G9M      0.161800
     22 CAO         2.9510   -1.5280   -0.3820 c3        1 G9M      0.167800
     23 CAP         3.6650   -1.5640    1.9390 c3        1 G9M      0.167800
     24 CAV        -1.6810   -1.5860    0.3690 ca        1 G9M      0.501200
     25 CAW        -5.9970    0.5550   -1.1290 c         1 G9M      0.711100
     26 CAX        -4.2450   -1.0520   -0.5740 ca        1 G9M     -0.047700
     27 CAY        -5.0930    1.6440   -0.7090 ca        1 G9M     -0.138600
     28 CAZ        -3.7950    1.3730   -0.2340 ca        1 G9M     -0.090500
     29 CBA        -3.3410   -0.0210   -0.1580 ca        1 G9M      0.435800
     30 CBB         4.9530   -0.1680    0.2890 c3        1 G9M      0.187500
     31 HA          1.6950   -3.1130    2.3270 h1        1 G9M      0.069200
     32 HAA         2.3320   -3.8380    0.7760 h1        1 G9M      0.069200
     33 HN13        0.0710   -1.0170    1.2940 hn        1 G9M      0.346500
     34 HN14       -6.1150   -1.4980   -1.3180 hn        1 G9M      0.334500
     35 HAC        -5.0960    5.0530   -0.4740 ha        1 G9M      0.140000
     36 HAD        -2.7940    4.5880    0.3700 ha        1 G9M      0.138000
     37 HAE        -2.1680   -3.7100    0.0330 ha        1 G9M      0.183000
     38 HAF        -6.5760    3.1480   -1.1700 ha        1 G9M      0.161000
     39 HAG        -1.9580    2.2610    0.5270 ha        1 G9M      0.159000
     40 HAH        -4.4520   -3.2210   -0.8050 ha        1 G9M      0.147000
     41 HAI         7.5890    2.8680   -1.6920 hc        1 G9M      0.047700
     42 HAIA        8.2810    1.2220   -1.9540 hc        1 G9M      0.047700
     43 HAJ         8.9810    1.1680    0.2720 hc        1 G9M      0.047700
     44 HAJA        8.2900    2.8170    0.5210 hc        1 G9M      0.047700
     45 HAK         4.0270   -0.2150   -1.7060 hc        1 G9M      0.058700
     46 HAKA        3.0610    0.6520   -0.4410 hc        1 G9M      0.058700
     47 HAL         3.8150    0.6130    1.9840 hc        1 G9M      0.058700
     48 HALA        5.3170   -0.2840    2.4550 hc        1 G9M      0.058700
     49 HAM         6.1850    0.2640   -1.8950 h1        1 G9M      0.038700
     50 HAMA        5.4620    1.9300   -1.8110 h1        1 G9M      0.038700
     51 HAN         6.5980    1.8550    1.7970 h1        1 G9M      0.038700
     52 HANA        7.2160    0.1950    1.3920 h1        1 G9M      0.038700
     53 HAO         3.5800   -2.3960   -0.7420 h1        1 G9M      0.035950
     54 HAOA        2.0080   -1.5130   -1.0000 h1        1 G9M      0.035950
     55 HAP         3.2380   -1.5620    2.9820 h1        1 G9M      0.035950
     56 HAPA        4.3770   -2.4390    1.8630 h1        1 G9M      0.035950
     57 HBB         5.5850   -1.0880    0.0780 h1        1 G9M      0.016700
@<TRIPOS>BOND
     1    1    2 2   
     2    1    3 1   
     3    1    6 1   
     4    3    5 1   
     5    3   31 1   
     6    3   32 1   
     7    4   20 1   
     8    4   21 1   
     9    4   30 1   
    10    5   22 1   
    11    5   23 1   
    12    6   24 1   
    13    6   33 1   
    14    7   25 1   
    15    7   26 1   
    16    7   34 1   
    17    8   24 ar  
    18    8   29 ar  
    19    9   25 2   
    20   10   11 ar  
    21   10   13 ar  
    22   10   35 1   
    23   11   14 ar  
    24   11   36 1   
    25   12   15 ar  
    26   12   24 ar  
    27   12   37 1   
    28   13   27 ar  
    29   13   38 1   
    30   14   28 ar  
    31   14   39 1   
    32   15   26 ar  
    33   15   40 1   
    34   16   17 1   
    35   16   20 1   
    36   16   41 1   
    37   16   42 1   
    38   17   21 1   
    39   17   43 1   
    40   17   44 1   
    41   18   22 1   
    42   18   30 1   
    43   18   45 1   
    44   18   46 1   
    45   19   23 1   
    46   19   30 1   
    47   19   47 1   
    48   19   48 1   
    49   20   49 1   
    50   20   50 1   
    51   21   51 1   
    52   21   52 1   
    53   22   53 1   
    54   22   54 1   
    55   23   55 1   
    56   23   56 1   
    57   25   27 1   
    58   26   29 ar  
    59   27   28 ar  
    60   28   29 1   
    61   30   57 1   
@<TRIPOS>SUBSTRUCTURE
     1 G9M         1 TEMP              0 ****  ****    0 ROOT
