@<TRIPOS>MOLECULE
G9M
   57    61     1     0     0
SMALL
bcc


@<TRIPOS>ATOM
      1 C          -0.9580    0.7890    0.0360 c         1 G9M      0.662100
      2 O          -1.8380    0.0370   -0.4190 o         1 G9M     -0.598100
      3 CA         -1.1860    1.4710    1.3970 c3        1 G9M      0.096800
      4 N11         2.4300    0.9120    5.7800 n3        1 G9M     -0.725600
      5 N12        -0.0290    1.4160    2.2720 n3        1 G9M     -0.742600
      6 N13         0.1960    1.1310   -0.6510 n         1 G9M     -0.533400
      7 N14         1.9770   -0.9780   -5.5060 n         1 G9M     -0.444100
      8 N15         1.9420    0.5800   -2.1470 nb        1 G9M     -0.686000
      9 OAB         3.6690   -1.4450   -6.9430 o         1 G9M     -0.632500
     10 CAC         6.5560    0.1460   -4.2770 ca        1 G9M     -0.138000
     11 CAD         6.1140    0.6630   -3.0560 ca        1 G9M     -0.108000
     12 CAE        -0.3380    0.0120   -2.7990 ca        1 G9M     -0.206300
     13 CAF         5.6380   -0.3840   -5.1760 ca        1 G9M     -0.074000
     14 CAG         4.7610    0.6510   -2.7310 ca        1 G9M     -0.109000
     15 CAH         0.1150   -0.4990   -4.0000 ca        1 G9M     -0.132000
     16 CAI         3.1050   -0.2740    7.8040 c3        1 G9M     -0.088400
     17 CAJ         2.9000    1.1930    8.1590 c3        1 G9M     -0.088400
     18 CAK         1.4390   -0.0110    3.6930 c3        1 G9M     -0.078400
     19 CAL         1.1180    2.3800    4.2620 c3        1 G9M     -0.078400
     20 CAM         2.6750   -0.4200    6.3360 c3        1 G9M      0.161800
     21 CAN         2.3580    1.8660    6.8880 c3        1 G9M      0.161800
     22 CAO         0.2220    0.0710    2.7780 c3        1 G9M      0.167800
     23 CAP        -0.0900    2.4160    3.3300 c3        1 G9M      0.167800
     24 CAV         0.6080    0.5550   -1.8760 ca        1 G9M      0.501200
     25 CAW         3.3300   -0.9710   -5.8400 c         1 G9M      0.711100
     26 CAX         1.4990   -0.4740   -4.3030 ca        1 G9M     -0.047700
     27 CAY         4.2730   -0.3990   -4.8580 ca        1 G9M     -0.138600
     28 CAZ         3.8210    0.1200   -3.6300 ca        1 G9M     -0.090500
     29 CBA         2.3840    0.0880   -3.3270 ca        1 G9M      0.435800
     30 CBB         1.2920    0.9760    4.8630 c3        1 G9M      0.187500
     31 HA         -1.4410    2.5490    1.1880 h1        1 G9M      0.069200
     32 HAA        -2.0970    0.9760    1.8470 h1        1 G9M      0.069200
     33 HN13        0.8990    1.6250   -0.1390 hn        1 G9M      0.346500
     34 HN14        1.3270   -1.3610   -6.1570 hn        1 G9M      0.334500
     35 HAC         7.6270    0.1590   -4.5260 ha        1 G9M      0.140000
     36 HAD         6.8410    1.0820   -2.3440 ha        1 G9M      0.138000
     37 HAE        -1.4130   -0.0080   -2.5560 ha        1 G9M      0.183000
     38 HAF         5.9640   -0.7970   -6.1450 ha        1 G9M      0.161000
     39 HAG         4.4330    1.0630   -1.7640 ha        1 G9M      0.159000
     40 HAH        -0.6050   -0.9230   -4.7170 ha        1 G9M      0.147000
     41 HAI         2.4910   -0.9390    8.4580 hc        1 G9M      0.047700
     42 HAIA        4.1760   -0.5680    7.9260 hc        1 G9M      0.047700
     43 HAJ         2.1750    1.3090    9.0010 hc        1 G9M      0.047700
     44 HAJA        3.8630    1.6680    8.4690 hc        1 G9M      0.047700
     45 HAK         1.5170   -1.0630    4.0690 hc        1 G9M      0.058700
     46 HAKA        2.3730    0.2190    3.1180 hc        1 G9M      0.058700
     47 HAL         0.9520    3.1390    5.0700 hc        1 G9M      0.058700
     48 HALA        2.0450    2.6690    3.7030 hc        1 G9M      0.058700
     49 HAM         3.4910   -0.8910    5.7240 h1        1 G9M      0.038700
     50 HAMA        1.7700   -1.0870    6.2740 h1        1 G9M      0.038700
     51 HAN         1.3090    2.2330    7.0740 h1        1 G9M      0.038700
     52 HANA        2.9860    2.7530    6.6060 h1        1 G9M      0.038700
     53 HAO         0.3940   -0.5940    1.8840 h1        1 G9M      0.035950
     54 HAOA       -0.6760   -0.3320    3.3340 h1        1 G9M      0.035950
     55 HAP        -1.0280    2.3000    3.9500 h1        1 G9M      0.035950
     56 HAPA       -0.1300    3.4290    2.8380 h1        1 G9M      0.035950
     57 HBB         0.3290    0.7170    5.4080 h1        1 G9M      0.016700
@<TRIPOS>BOND
     1    1    2 2   
     2    1    3 1   
     3    1    6 1   
     4    3    5 1   
     5    3   31 1   
     6    3   32 1   
     7    4   20 1   
     8    4   21 1   
     9    4   30 1   
    10    5   22 1   
    11    5   23 1   
    12    6   24 1   
    13    6   33 1   
    14    7   25 1   
    15    7   26 1   
    16    7   34 1   
    17    8   24 ar  
    18    8   29 ar  
    19    9   25 2   
    20   10   11 ar  
    21   10   13 ar  
    22   10   35 1   
    23   11   14 ar  
    24   11   36 1   
    25   12   15 ar  
    26   12   24 ar  
    27   12   37 1   
    28   13   27 ar  
    29   13   38 1   
    30   14   28 ar  
    31   14   39 1   
    32   15   26 ar  
    33   15   40 1   
    34   16   17 1   
    35   16   20 1   
    36   16   41 1   
    37   16   42 1   
    38   17   21 1   
    39   17   43 1   
    40   17   44 1   
    41   18   22 1   
    42   18   30 1   
    43   18   45 1   
    44   18   46 1   
    45   19   23 1   
    46   19   30 1   
    47   19   47 1   
    48   19   48 1   
    49   20   49 1   
    50   20   50 1   
    51   21   51 1   
    52   21   52 1   
    53   22   53 1   
    54   22   54 1   
    55   23   55 1   
    56   23   56 1   
    57   25   27 1   
    58   26   29 ar  
    59   27   28 ar  
    60   28   29 1   
    61   30   57 1   
@<TRIPOS>SUBSTRUCTURE
     1 G9M         1 TEMP              0 ****  ****    0 ROOT
