@<TRIPOS>MOLECULE
G9M
   57    61     1     0     0
SMALL
bcc


@<TRIPOS>ATOM
      1 C          -0.9590    0.7860    0.0340 c         1 G9M      0.662100
      2 O          -1.8370    0.0330   -0.4250 o         1 G9M     -0.598100
      3 CA         -1.1900    1.4620    1.3970 c3        1 G9M      0.096800
      4 N11         2.4250    0.9020    5.7800 n3        1 G9M     -0.725600
      5 N12        -0.0340    1.4080    2.2720 n3        1 G9M     -0.742600
      6 N13         0.1950    1.1330   -0.6510 ns        1 G9M     -0.533400
      7 N14         1.9860   -0.9570   -5.5110 ns        1 G9M     -0.444100
      8 N15         1.9440    0.5890   -2.1460 nb        1 G9M     -0.686000
      9 OAB         3.6820   -1.4190   -6.9450 o         1 G9M     -0.632500
     10 CAC         6.5620    0.1650   -4.2690 ca        1 G9M     -0.138000
     11 CAD         6.1180    0.6770   -3.0470 ca        1 G9M     -0.108000
     12 CAE        -0.3340    0.0220   -2.8040 ca        1 G9M     -0.206300
     13 CAF         5.6470   -0.3620   -5.1720 ca        1 G9M     -0.074000
     14 CAG         4.7650    0.6640   -2.7250 ca        1 G9M     -0.109000
     15 CAH         0.1210   -0.4850   -4.0060 ca        1 G9M     -0.132000
     16 CAI         3.1050   -0.2880    7.8000 c3        1 G9M     -0.088400
     17 CAJ         2.8920    1.1770    8.1600 c3        1 G9M     -0.088400
     18 CAK         1.4390   -0.0180    3.6900 c3        1 G9M     -0.078400
     19 CAL         1.1090    2.3710    4.2660 c3        1 G9M     -0.078400
     20 CAM         2.6760   -0.4310    6.3320 c3        1 G9M      0.161800
     21 CAN         2.3480    1.8520    6.8920 c3        1 G9M      0.161800
     22 CAO         0.2220    0.0630    2.7740 c3        1 G9M      0.167800
     23 CAP        -0.0990    2.4050    3.3340 c3        1 G9M      0.167800
     24 CAV         0.6110    0.5610   -1.8770 ca        1 G9M      0.501200
     25 CAW         3.3400   -0.9490   -5.8420 c         1 G9M      0.711100
     26 CAX         1.5060   -0.4590   -4.3060 ca        1 G9M     -0.047700
     27 CAY         4.2810   -0.3800   -4.8560 ca        1 G9M     -0.138600
     28 CAZ         3.8260    0.1350   -3.6270 ca        1 G9M     -0.090500
     29 CBA         2.3890    0.1010   -3.3270 ca        1 G9M      0.435800
     30 CBB         1.2880    0.9650    4.8620 c3        1 G9M      0.187500
     31 HA         -1.4490    2.5400    1.1910 h1        1 G9M      0.069200
     32 HAA        -2.0990    0.9620    1.8440 h1        1 G9M      0.069200
     33 HN13        0.8970    1.6270   -0.1360 hn        1 G9M      0.346500
     34 HN14        1.3380   -1.3390   -6.1630 hn        1 G9M      0.334500
     35 HAC         7.6340    0.1790   -4.5160 ha        1 G9M      0.140000
     36 HAD         6.8440    1.0950   -2.3330 ha        1 G9M      0.138000
     37 HAE        -1.4090   -0.0010   -2.5630 ha        1 G9M      0.183000
     38 HAF         5.9750   -0.7720   -6.1410 ha        1 G9M      0.161000
     39 HAG         4.4350    1.0720   -1.7570 ha        1 G9M      0.159000
     40 HAH        -0.5970   -0.9070   -4.7260 ha        1 G9M      0.147000
     41 HAI         4.1770   -0.5770    7.9220 hc        1 G9M      0.047700
     42 HAIA        2.4940   -0.9580    8.4520 hc        1 G9M      0.047700
     43 HAJ         3.8520    1.6550    8.4740 hc        1 G9M      0.047700
     44 HAJA        2.1650    1.2860    9.0020 hc        1 G9M      0.047700
     45 HAK         2.3730    0.2180    3.1160 hc        1 G9M      0.058700
     46 HAKA        1.5200   -1.0710    4.0630 hc        1 G9M      0.058700
     47 HAL         0.9390    3.1260    5.0760 hc        1 G9M      0.058700
     48 HALA        2.0350    2.6650    3.7080 hc        1 G9M      0.058700
     49 HAM         1.7730   -1.1010    6.2660 h1        1 G9M      0.038700
     50 HAMA        3.4940   -0.8970    5.7190 h1        1 G9M      0.038700
     51 HAN         1.2980    2.2140    7.0780 h1        1 G9M      0.038700
     52 HANA        2.9740    2.7430    6.6130 h1        1 G9M      0.038700
     53 HAO        -0.6750   -0.3440    3.3290 h1        1 G9M      0.035950
     54 HAOA        0.3970   -0.5990    1.8780 h1        1 G9M      0.035950
     55 HAP        -1.0370    2.2830    3.9530 h1        1 G9M      0.035950
     56 HAPA       -0.1420    3.4200    2.8450 h1        1 G9M      0.035950
     57 HBB         0.3250    0.7010    5.4060 h1        1 G9M      0.016700
@<TRIPOS>BOND
     1    1    2 2   
     2    1    3 1   
     3    1    6 1   
     4    3    5 1   
     5    3   31 1   
     6    3   32 1   
     7    4   20 1   
     8    4   21 1   
     9    4   30 1   
    10    5   22 1   
    11    5   23 1   
    12    6   24 1   
    13    6   33 1   
    14    7   25 1   
    15    7   26 1   
    16    7   34 1   
    17    8   24 ar  
    18    8   29 ar  
    19    9   25 2   
    20   10   11 ar  
    21   10   13 ar  
    22   10   35 1   
    23   11   14 ar  
    24   11   36 1   
    25   12   15 ar  
    26   12   24 ar  
    27   12   37 1   
    28   13   27 ar  
    29   13   38 1   
    30   14   28 ar  
    31   14   39 1   
    32   15   26 ar  
    33   15   40 1   
    34   16   17 1   
    35   16   20 1   
    36   16   41 1   
    37   16   42 1   
    38   17   21 1   
    39   17   43 1   
    40   17   44 1   
    41   18   22 1   
    42   18   30 1   
    43   18   45 1   
    44   18   46 1   
    45   19   23 1   
    46   19   30 1   
    47   19   47 1   
    48   19   48 1   
    49   20   49 1   
    50   20   50 1   
    51   21   51 1   
    52   21   52 1   
    53   22   53 1   
    54   22   54 1   
    55   23   55 1   
    56   23   56 1   
    57   25   27 1   
    58   26   29 ar  
    59   27   28 ar  
    60   28   29 1   
    61   30   57 1   
@<TRIPOS>SUBSTRUCTURE
     1 G9M         1 TEMP              0 ****  ****    0 ROOT
