@<TRIPOS>MOLECULE
G9M
   58    62     1     0     0
SMALL
bcc


@<TRIPOS>ATOM
      1 C           3.2740   -0.9300    0.2220 c         1 G9M      0.528100
      2 O           3.8340   -1.5600   -0.6570 o         1 G9M     -0.396100
      3 CA          3.8740   -0.5880    1.5890 c3        1 G9M      0.113800
      4 N11         0.6970    0.7890    6.1320 n3        1 G9M     -0.729600
      5 N12         2.8810   -0.2530    2.5770 n3        1 G9M     -0.793600
      6 N13         1.8710   -0.4230   -0.0470 n4        1 G9M     -0.631500
      7 N14         0.5420   -0.3870   -5.4890 n         1 G9M     -0.440100
      8 N15         2.1320    0.4580   -2.2730 nb        1 G9M     -0.619000
      9 OAB         0.8030    0.4560   -7.5780 o         1 G9M     -0.562500
     10 CAC         3.7240    3.2400   -6.2440 ca        1 G9M     -0.112000
     11 CAD         4.0620    3.2390   -4.8910 ca        1 G9M     -0.095000
     12 CAE         0.5300   -1.3620   -1.9330 ca        1 G9M     -0.151300
     13 CAF         2.7700    2.3440   -6.7210 ca        1 G9M     -0.062000
     14 CAG         3.4530    2.3470   -4.0090 ca        1 G9M     -0.102000
     15 CAH         0.2060   -1.3440   -3.2800 ca        1 G9M     -0.155000
     16 CAI         0.3450    2.0670    8.1810 c3        1 G9M     -0.088400
     17 CAJ         0.1680    0.5890    8.5050 c3        1 G9M     -0.088400
     18 CAK         1.8670    1.4730    4.0540 c3        1 G9M     -0.082400
     19 CAL         1.5870   -0.9380    4.5890 c3        1 G9M     -0.082400
     20 CAM         0.7960    2.1300    6.7140 c3        1 G9M      0.159800
     21 CAN         0.5230   -0.1750    7.2210 c3        1 G9M      0.159800
     22 CAO         2.9960    1.1060    3.0960 c3        1 G9M      0.170800
     23 CAP         2.7230   -1.2590    3.6220 c3        1 G9M      0.170800
     24 CAV         1.4950   -0.4360   -1.4740 ca        1 G9M      0.396200
     25 CAW         1.1520    0.5120   -6.3900 c         1 G9M      0.714100
     26 CAX         0.8440   -0.4230   -4.1520 ca        1 G9M      0.045300
     27 CAY         2.1540    1.4450   -5.8430 ca        1 G9M     -0.134600
     28 CAZ         2.4910    1.4390   -4.4740 ca        1 G9M     -0.117500
     29 CBA         1.8250    0.4820   -3.5820 ca        1 G9M      0.447800
     30 CBB         1.7790    0.4580    5.2060 c3        1 G9M      0.192500
     31 HA          4.4860   -1.4970    1.8750 h1        1 G9M      0.111700
     32 HAA         4.5930    0.2630    1.3900 h1        1 G9M      0.111700
     33 HN13        1.8010    0.5380    0.3170 hn        1 G9M      0.471800
     34 HN14       -0.1360   -1.0260   -5.8550 hn        1 G9M      0.351500
     35 HAC         4.2080    3.9470   -6.9360 ha        1 G9M      0.160000
     36 HAD         4.8170    3.9470   -4.5130 ha        1 G9M      0.153000
     37 HAE         0.0400   -2.0800   -1.2570 ha        1 G9M      0.163000
     38 HAF         2.4910    2.3300   -7.7900 ha        1 G9M      0.176000
     39 HAG         3.7400    2.3660   -2.9470 ha        1 G9M      0.150000
     40 HAH        -0.5460   -2.0520   -3.6670 ha        1 G9M      0.175000
     41 HAI        -0.6150    2.6230    8.3160 hc        1 G9M      0.056700
     42 HAIA        1.1090    2.5390    8.8450 hc        1 G9M      0.056700
     43 HAJ        -0.8850    0.3700    8.8090 hc        1 G9M      0.056700
     44 HAJA        0.8370    0.2750    9.3430 hc        1 G9M      0.056700
     45 HAK         2.0800    2.5000    4.4510 hc        1 G9M      0.066200
     46 HAKA        0.8890    1.5140    3.5090 hc        1 G9M      0.066200
     47 HAL         0.6000   -0.9870    4.0620 hc        1 G9M      0.066200
     48 HALA        1.5890   -1.7250    5.3870 hc        1 G9M      0.066200
     49 HAM         1.8410    2.5470    6.6590 h1        1 G9M      0.039950
     50 HAMA        0.1240    2.8040    6.1170 h1        1 G9M      0.039950
     51 HAN         1.4440   -0.7990    7.3950 h1        1 G9M      0.039950
     52 HANA       -0.3110   -0.8670    6.9230 h1        1 G9M      0.039950
     53 HAO         3.9840    1.2530    3.6240 h1        1 G9M      0.043700
     54 HAOA        2.9680    1.8120    2.2180 h1        1 G9M      0.043700
     55 HAP         3.6790   -1.3790    4.2110 h1        1 G9M      0.043700
     56 HAPA        2.5040   -2.2440    3.1200 h1        1 G9M      0.043700
     57 HBB         2.7820    0.4600    5.7390 h1        1 G9M      0.025700
     58 H132        1.2090   -1.0110    0.4740 hn        1 G9M      0.471800
@<TRIPOS>BOND
     1    1    2 2   
     2    1    3 1   
     3    1    6 1   
     4    3    5 1   
     5    3   31 1   
     6    3   32 1   
     7    4   20 1   
     8    4   21 1   
     9    4   30 1   
    10    5   22 1   
    11    5   23 1   
    12    6   24 1   
    13    6   33 1   
    14    6   58 1   
    15    7   25 1   
    16    7   26 1   
    17    7   34 1   
    18    8   24 ar  
    19    8   29 ar  
    20    9   25 2   
    21   10   11 ar  
    22   10   13 ar  
    23   10   35 1   
    24   11   14 ar  
    25   11   36 1   
    26   12   15 ar  
    27   12   24 ar  
    28   12   37 1   
    29   13   27 ar  
    30   13   38 1   
    31   14   28 ar  
    32   14   39 1   
    33   15   26 ar  
    34   15   40 1   
    35   16   17 1   
    36   16   20 1   
    37   16   41 1   
    38   16   42 1   
    39   17   21 1   
    40   17   43 1   
    41   17   44 1   
    42   18   22 1   
    43   18   30 1   
    44   18   45 1   
    45   18   46 1   
    46   19   23 1   
    47   19   30 1   
    48   19   47 1   
    49   19   48 1   
    50   20   49 1   
    51   20   50 1   
    52   21   51 1   
    53   21   52 1   
    54   22   53 1   
    55   22   54 1   
    56   23   55 1   
    57   23   56 1   
    58   25   27 1   
    59   26   29 ar  
    60   27   28 ar  
    61   28   29 1   
    62   30   57 1   
@<TRIPOS>SUBSTRUCTURE
     1 G9M         1 TEMP              0 ****  ****    0 ROOT
