@<TRIPOS>MOLECULE
G9P
   32    35     1     0     0
SMALL
bcc


@<TRIPOS>ATOM
      1 N11         2.3290    2.5900    0.0400 n         1 G9P     -0.569900
      2 OAA         4.6040    2.5490    0.0970 o         1 G9P     -0.670500
      3 OAB        -4.6950    0.4010   -1.2950 o         1 G9P     -0.741867
      4 OAC        -3.8610    1.8070    0.4150 o         1 G9P     -0.741867
      5 OAD        -4.9260   -0.2480    0.9670 o         1 G9P     -0.741867
      6 CAE         4.5630   -1.7020    0.4630 ca        1 G9P     -0.128000
      7 CAF         3.3620   -2.3720    0.2480 ca        1 G9P     -0.133000
      8 CAG         4.6240   -0.3090    0.4000 ca        1 G9P     -0.107000
      9 CAH        -2.5210   -1.7240    0.0930 ca        1 G9P     -0.016000
     10 CAI        -1.2930   -2.3800    0.0330 ca        1 G9P     -0.175000
     11 CAJ        -1.4440    0.3980   -0.2540 ca        1 G9P     -0.018000
     12 CAK         1.0530    1.9270    0.0880 c3        1 G9P      0.099000
     13 OAM         1.0500   -2.3520   -0.2640 os        1 G9P     -0.244200
     14 CAN         3.5270    1.9110    0.0770 c         1 G9P      0.711100
     15 CAO        -2.6070   -0.3400   -0.0520 ca        1 G9P     -0.261500
     16 CAP        -0.1380   -1.6170   -0.1800 ca        1 G9P      0.113100
     17 CAQ         2.2130   -1.6270   -0.0630 ca        1 G9P      0.122100
     18 CAR         3.4760    0.4230    0.0930 ca        1 G9P     -0.110600
     19 CAS        -0.1910   -0.2220   -0.3230 ca        1 G9P     -0.167300
     20 CAT         2.2640   -0.2310   -0.1750 ca        1 G9P     -0.092300
     21 CAU         1.0590    0.5450   -0.5910 c3        1 G9P      0.031900
     22 SAV        -4.1860    0.4890    0.0170 s6        1 G9P      1.461100
     23 HN11        2.3410    3.5810    0.0820 hn        1 G9P      0.321500
     24 HAE         5.4710   -2.2770    0.6980 ha        1 G9P      0.130000
     25 HAF         3.2960   -3.4670    0.3180 ha        1 G9P      0.146000
     26 HAG         5.5680    0.2260    0.5890 ha        1 G9P      0.153000
     27 HAH        -3.4450   -2.3010    0.2740 ha        1 G9P      0.152000
     28 HAI        -1.2160   -3.4690    0.1460 ha        1 G9P      0.133000
     29 HAJ        -1.5290    1.4940   -0.3510 ha        1 G9P      0.153000
     30 HAK         0.7270    1.8020    1.1610 h1        1 G9P      0.059700
     31 HAKA        0.2960    2.5830   -0.4300 h1        1 G9P      0.059700
     32 HAU         1.1310    0.7040   -1.7110 hc        1 G9P      0.073700
@<TRIPOS>BOND
     1    1   12 1   
     2    1   14 1   
     3    1   23 1   
     4    2   14 2   
     5    3   22 1   
     6    4   22 1   
     7    5   22 1   
     8    6    7 ar  
     9    6    8 ar  
    10    6   24 1   
    11    7   17 ar  
    12    7   25 1   
    13    8   18 ar  
    14    8   26 1   
    15    9   10 ar  
    16    9   15 ar  
    17    9   27 1   
    18   10   16 ar  
    19   10   28 1   
    20   11   15 ar  
    21   11   19 ar  
    22   11   29 1   
    23   12   21 1   
    24   12   30 1   
    25   12   31 1   
    26   13   16 1   
    27   13   17 1   
    28   14   18 1   
    29   15   22 1   
    30   16   19 ar  
    31   17   20 ar  
    32   18   20 ar  
    33   19   21 1   
    34   20   21 1   
    35   21   32 1   
@<TRIPOS>SUBSTRUCTURE
     1 G9P         1 TEMP              0 ****  ****    0 ROOT
