@<TRIPOS>MOLECULE
G9P
   32    30     1     0     0
SMALL
bcc


@<TRIPOS>ATOM
      1 N11        -2.3140    0.1730   -1.4510 n         1 G9P     -0.379000
      2 OAA        -4.4080   -0.2520   -0.8200 o         1 G9P     -0.395000
      3 OAB         3.8470    3.4560   -1.2240 o         1 G9P     -1.064667
      4 OAC         3.0680    2.6350   -3.4430 o         1 G9P     -1.064667
      5 OAD         5.0510    1.7660   -2.6010 o         1 G9P     -1.064667
      6 CAE        -2.6150   -2.4400    2.5810 c1        1 G9P     -0.106500
      7 CAF        -1.2540   -2.1090    2.8320 c1        1 G9P     -0.133000
      8 CAG        -3.3560   -1.7070    1.6150 c1        1 G9P     -0.106500
      9 CAH         3.4860   -0.0510   -0.6320 c1        1 G9P     -0.106500
     10 CAI         2.8110   -0.8850    0.2550 c1        1 G9P     -0.106500
     11 CAJ         1.4270    1.1290   -1.1080 c1        1 G9P     -0.018000
     12 CAK        -1.4420    1.1050   -0.9680 c3        1 G9P     -0.017000
     13 OAM         0.7910   -1.3850    1.7150 os        1 G9P     -0.154000
     14 CAN        -3.2320   -0.3540   -0.5830 c2        1 G9P      0.348000
     15 CAO         2.7910    0.9590   -1.3160 c1        1 G9P     -0.706000
     16 CAP         1.4370   -0.7160    0.4660 c1        1 G9P      0.068000
     17 CAQ        -0.6290   -1.0310    2.1080 c2        1 G9P      0.077000
     18 CAR        -2.7400   -0.6550    0.9120 c1        1 G9P     -0.090000
     19 CAS         0.7440    0.2920   -0.2160 c1        1 G9P     -0.160000
     20 CAT        -1.3840   -0.2300    1.2780 c2        1 G9P     -0.085000
     21 CAU        -0.6490    0.7300    0.2860 c3        1 G9P     -0.022000
     22 SAV         3.7080    2.2560   -2.1350 s6        1 G9P      2.874000
     23 HN11       -2.4220    0.0650   -2.3680 hn        1 G9P      0.235000
     24 HAE        -3.0440   -3.2010    3.0720 ha        1 G9P      0.142000
     25 HAF        -0.7380   -2.6170    3.5020 ha        1 G9P      0.146000
     26 HAG        -4.3300   -1.8650    1.5140 ha        1 G9P      0.142000
     27 HAH         4.4370   -0.1680   -0.7780 ha        1 G9P      0.142000
     28 HAI         3.2910   -1.5820    0.7260 ha        1 G9P      0.142000
     29 HAJ         0.9460    1.8580   -1.5660 ha        1 G9P      0.153000
     30 HAK        -1.9610    1.9390   -0.7670 h1        1 G9P      0.099000
     31 HAKA       -0.8070    1.3090   -1.6700 h1        1 G9P      0.099000
     32 HAU        -0.5070    1.5750    0.7860 hc        1 G9P      0.113000
@<TRIPOS>BOND
     1    1   12 1   
     2    1   14 1   
     3    1   23 1   
     4    2   14 1   
     5    3   22 1   
     6    4   22 1   
     7    5   22 1   
     8    6    8 1   
     9    6   24 1   
    10    7   17 1   
    11    7   25 1   
    12    8   26 1   
    13    9   10 1   
    14    9   27 1   
    15   10   28 1   
    16   11   15 1   
    17   11   29 1   
    18   12   21 1   
    19   12   30 1   
    20   12   31 1   
    21   13   16 1   
    22   13   17 1   
    23   14   18 1   
    24   15   22 1   
    25   16   19 1   
    26   17   20 1   
    27   18   20 1   
    28   19   21 1   
    29   20   21 1   
    30   21   32 1   
@<TRIPOS>SUBSTRUCTURE
     1 G9P         1 TEMP              0 ****  ****    0 ROOT
