@<TRIPOS>MOLECULE
G9P
   32    35     1     0     0
SMALL
bcc


@<TRIPOS>ATOM
      1 N11        -0.0310   -0.0760   -0.0500 n         1 G9P     -0.569900
      2 OAA        -1.9970   -0.8530    0.7950 o         1 G9P     -0.670500
      3 OAB         7.0810    2.2100   -0.2920 o         1 G9P     -0.741867
      4 OAC         5.7820    1.1780   -1.9770 o         1 G9P     -0.741867
      5 OAD         7.7370    0.1050   -1.1470 o         1 G9P     -0.741867
      6 CAE         0.1080   -3.1140    3.7390 ca        1 G9P     -0.128000
      7 CAF         1.4670   -2.8710    3.9100 ca        1 G9P     -0.133000
      8 CAG        -0.6200   -2.4350    2.7610 ca        1 G9P     -0.107000
      9 CAH         6.2900   -0.6060    1.3270 ca        1 G9P     -0.016000
     10 CAI         5.5290   -1.2430    2.3050 ca        1 G9P     -0.175000
     11 CAJ         4.3060    0.3280    0.3420 ca        1 G9P     -0.018000
     12 CAK         1.4060   -0.0260   -0.0570 c3        1 G9P      0.099000
     13 OAM         3.4480   -1.7150    3.3200 os        1 G9P     -0.244200
     14 CAN        -0.7500   -0.7960    0.8800 c         1 G9P      0.711100
     15 CAO         5.6890    0.1820    0.3460 ca        1 G9P     -0.261500
     16 CAP         4.1380   -1.0730    2.2850 ca        1 G9P      0.113100
     17 CAQ         2.0950   -1.9090    3.1020 ca        1 G9P      0.122100
     18 CAR         0.0130   -1.4820    1.9590 ca        1 G9P     -0.110600
     19 CAS         3.5040   -0.2920    1.3070 ca        1 G9P     -0.167300
     20 CAT         1.3710   -1.1860    2.1440 ca        1 G9P     -0.092300
     21 CAU         2.0260   -0.1050    1.3510 c3        1 G9P      0.031900
     22 SAV         6.6750    1.0010   -0.8950 s6        1 G9P      1.461100
     23 HN11       -0.5170    0.3440   -0.8060 hn        1 G9P      0.321500
     24 HAE        -0.3950   -3.8580    4.3740 ha        1 G9P      0.130000
     25 HAF         2.0570   -3.4160    4.6610 ha        1 G9P      0.146000
     26 HAG        -1.6920   -2.6380    2.6080 ha        1 G9P      0.153000
     27 HAH         7.3860   -0.7350    1.3130 ha        1 G9P      0.152000
     28 HAI         5.9920   -1.8650    3.0810 ha        1 G9P      0.133000
     29 HAJ         3.8460    0.9430   -0.4520 ha        1 G9P      0.153000
     30 HAK         1.8160   -0.8720   -0.6820 h1        1 G9P      0.059700
     31 HAKA        1.7210    0.9440   -0.5380 h1        1 G9P      0.059700
     32 HAU         1.8200    0.8750    1.8800 hc        1 G9P      0.073700
@<TRIPOS>BOND
     1    1   12 1   
     2    1   14 1   
     3    1   23 1   
     4    2   14 2   
     5    3   22 1   
     6    4   22 1   
     7    5   22 1   
     8    6    7 ar  
     9    6    8 ar  
    10    6   24 1   
    11    7   17 ar  
    12    7   25 1   
    13    8   18 ar  
    14    8   26 1   
    15    9   10 ar  
    16    9   15 ar  
    17    9   27 1   
    18   10   16 ar  
    19   10   28 1   
    20   11   15 ar  
    21   11   19 ar  
    22   11   29 1   
    23   12   21 1   
    24   12   30 1   
    25   12   31 1   
    26   13   16 1   
    27   13   17 1   
    28   14   18 1   
    29   15   22 1   
    30   16   19 ar  
    31   17   20 ar  
    32   18   20 ar  
    33   19   21 1   
    34   20   21 1   
    35   21   32 1   
@<TRIPOS>SUBSTRUCTURE
     1 G9P         1 TEMP              0 ****  ****    0 ROOT
