@<TRIPOS>MOLECULE
G9W
   38    40     1     0     0
SMALL
bcc


@<TRIPOS>ATOM
      1 C1          0.0170   -0.0410   -0.0210 cc        1 G9W      0.067400
      2 N2          1.4030   -0.0570   -0.0300 n         1 G9W     -0.451100
      3 C3          2.1450   -0.0860    1.1510 c         1 G9W      0.705100
      4 O4          3.3890   -0.0270    1.0680 o         1 G9W     -0.640500
      5 C5          1.3930   -0.2050    2.4120 ca        1 G9W     -0.158600
      6 C6         -0.0220   -0.2820    2.4210 ca        1 G9W      0.041200
      7 C7         -0.7040   -0.1210    1.1500 cd        1 G9W     -0.190400
      8 C8         -2.1900    0.0080    1.0880 c3        1 G9W      0.185600
      9 O9         -2.6850    0.5120   -0.1480 os        1 G9W     -0.411600
     10 C10        -2.1460   -0.1800   -1.2760 c3        1 G9W      0.145100
     11 C11        -2.9010    0.3380   -2.5060 c3        1 G9W     -0.063700
     12 C12        -2.2990   -0.2170   -3.7780 c3        1 G9W     -0.092600
     13 C13        -4.3670   -0.0320   -2.4070 c3        1 G9W     -0.092600
     14 C14        -0.6500    0.0970   -1.3620 c3        1 G9W     -0.083200
     15 C15        -0.6510   -0.5070    3.6730 ca        1 G9W     -0.092300
     16 C16        -2.1050   -0.7490    3.8470 c3        1 G9W     -0.055800
     17 C17         0.1200   -0.5500    4.8380 ca        1 G9W     -0.098000
     18 C18         1.5080   -0.4140    4.8110 ca        1 G9W     -0.151000
     19 C19         2.1480   -0.2590    3.5940 ca        1 G9W     -0.068000
     20 H2         -2.5520    0.7750    1.8270 h1        1 G9W      0.059200
     21 H3         -2.6750   -0.9890    1.2770 h1        1 G9W      0.059200
     22 H4         -2.3240   -1.2860   -1.1550 h1        1 G9W      0.046700
     23 H5         -2.8160    1.4620   -2.5150 hc        1 G9W      0.064700
     24 H6         -2.2320   -1.3310   -3.7310 hc        1 G9W      0.038700
     25 H7         -1.2740    0.1950   -3.9450 hc        1 G9W      0.038700
     26 H8         -2.9350    0.0610   -4.6520 hc        1 G9W      0.038700
     27 H9         -4.4960   -1.1410   -2.4420 hc        1 G9W      0.038700
     28 H10        -4.7930    0.3470   -1.4470 hc        1 G9W      0.038700
     29 H11        -4.9350    0.4180   -3.2560 hc        1 G9W      0.038700
     30 H12        -0.1930   -0.6150   -2.1020 hc        1 G9W      0.070200
     31 H13        -0.4850    1.1430   -1.7390 hc        1 G9W      0.070200
     32 H14        -2.4660   -1.5420    3.1470 hc        1 G9W      0.046367
     33 H15        -2.6950    0.1870    3.6860 hc        1 G9W      0.046367
     34 H16        -2.3250   -1.1020    4.8870 hc        1 G9W      0.046367
     35 H17        -0.3800   -0.7040    5.8080 ha        1 G9W      0.133000
     36 H18         2.0850   -0.4440    5.7470 ha        1 G9W      0.140000
     37 H19         3.2470   -0.1810    3.5290 ha        1 G9W      0.161000
     38 H20         1.8860    0.0080   -0.8990 hn        1 G9W      0.332500
@<TRIPOS>BOND
     1    1    2 1   
     2    1    7 2   
     3    1   14 1   
     4    2    3 1   
     5    2   38 1   
     6    3    4 2   
     7    3    5 1   
     8    5    6 ar  
     9    5   19 ar  
    10    6    7 1   
    11    6   15 ar  
    12    7    8 1   
    13    8    9 1   
    14    8   20 1   
    15    8   21 1   
    16    9   10 1   
    17   10   11 1   
    18   10   14 1   
    19   10   22 1   
    20   11   12 1   
    21   11   13 1   
    22   11   23 1   
    23   12   24 1   
    24   12   25 1   
    25   12   26 1   
    26   13   27 1   
    27   13   28 1   
    28   13   29 1   
    29   14   30 1   
    30   14   31 1   
    31   15   16 1   
    32   15   17 ar  
    33   16   32 1   
    34   16   33 1   
    35   16   34 1   
    36   17   18 ar  
    37   17   35 1   
    38   18   19 ar  
    39   18   36 1   
    40   19   37 1   
@<TRIPOS>SUBSTRUCTURE
     1 G9W         1 TEMP              0 ****  ****    0 ROOT
