@<TRIPOS>MOLECULE
G9W
   38    40     1     0     0
SMALL
bcc


@<TRIPOS>ATOM
      1 C1          0.0170   -0.0420   -0.0210 cc        1 G9W      0.067400
      2 N2          1.4030   -0.0610   -0.0310 ns        1 G9W     -0.451100
      3 C3          2.1460   -0.0910    1.1500 c         1 G9W      0.705100
      4 O4          3.3890   -0.0330    1.0670 o         1 G9W     -0.640500
      5 C5          1.3940   -0.2090    2.4120 ca        1 G9W     -0.158600
      6 C6         -0.0220   -0.2830    2.4210 ca        1 G9W      0.041200
      7 C7         -0.7040   -0.1220    1.1500 cd        1 G9W     -0.190400
      8 C8         -2.1890    0.0100    1.0880 c3        1 G9W      0.185600
      9 O9         -2.6840    0.5140   -0.1480 os        1 G9W     -0.411600
     10 C10        -2.1470   -0.1780   -1.2760 c3        1 G9W      0.145100
     11 C11        -2.9020    0.3410   -2.5050 c3        1 G9W     -0.063700
     12 C12        -2.3000   -0.2160   -3.7770 c3        1 G9W     -0.092600
     13 C13        -4.3670   -0.0280   -2.4060 c3        1 G9W     -0.092600
     14 C14        -0.6500    0.0960   -1.3620 c3        1 G9W     -0.083200
     15 C15        -0.6510   -0.5070    3.6730 ca        1 G9W     -0.092300
     16 C16        -2.1050   -0.7470    3.8470 c3        1 G9W     -0.055800
     17 C17         0.1200   -0.5520    4.8370 ca        1 G9W     -0.098000
     18 C18         1.5100   -0.4180    4.8110 ca        1 G9W     -0.151000
     19 C19         2.1490   -0.2640    3.5930 ca        1 G9W     -0.068000
     20 H2         -2.6760   -0.9870    1.2780 h1        1 G9W      0.059200
     21 H3         -2.5500    0.7780    1.8280 h1        1 G9W      0.059200
     22 H4         -2.3260   -1.2840   -1.1540 h1        1 G9W      0.046700
     23 H5         -2.8140    1.4640   -2.5150 hc        1 G9W      0.064700
     24 H6         -2.2350   -1.3300   -3.7300 hc        1 G9W      0.038700
     25 H7         -2.9370    0.0630   -4.6520 hc        1 G9W      0.038700
     26 H8         -1.2750    0.1940   -3.9450 hc        1 G9W      0.038700
     27 H9         -4.4980   -1.1360   -2.4400 hc        1 G9W      0.038700
     28 H10        -4.7930    0.3520   -1.4460 hc        1 G9W      0.038700
     29 H11        -4.9350    0.4230   -3.2550 hc        1 G9W      0.038700
     30 H12        -0.4840    1.1420   -1.7390 hc        1 G9W      0.070200
     31 H13        -0.1940   -0.6160   -2.1020 hc        1 G9W      0.070200
     32 H14        -2.3250   -1.1000    4.8880 hc        1 G9W      0.046367
     33 H15        -2.4670   -1.5400    3.1480 hc        1 G9W      0.046367
     34 H16        -2.6940    0.1890    3.6870 hc        1 G9W      0.046367
     35 H17        -0.3790   -0.7050    5.8080 ha        1 G9W      0.133000
     36 H18         2.0860   -0.4490    5.7460 ha        1 G9W      0.140000
     37 H19         3.2470   -0.1870    3.5270 ha        1 G9W      0.161000
     38 H20         1.8860    0.0040   -0.9000 hn        1 G9W      0.332500
@<TRIPOS>BOND
     1    1    2 1   
     2    1    7 2   
     3    1   14 1   
     4    2    3 1   
     5    2   38 1   
     6    3    4 2   
     7    3    5 1   
     8    5    6 ar  
     9    5   19 ar  
    10    6    7 1   
    11    6   15 ar  
    12    7    8 1   
    13    8    9 1   
    14    8   20 1   
    15    8   21 1   
    16    9   10 1   
    17   10   11 1   
    18   10   14 1   
    19   10   22 1   
    20   11   12 1   
    21   11   13 1   
    22   11   23 1   
    23   12   24 1   
    24   12   25 1   
    25   12   26 1   
    26   13   27 1   
    27   13   28 1   
    28   13   29 1   
    29   14   30 1   
    30   14   31 1   
    31   15   16 1   
    32   15   17 ar  
    33   16   32 1   
    34   16   33 1   
    35   16   34 1   
    36   17   18 ar  
    37   17   35 1   
    38   18   19 ar  
    39   18   36 1   
    40   19   37 1   
@<TRIPOS>SUBSTRUCTURE
     1 G9W         1 TEMP              0 ****  ****    0 ROOT
