@<TRIPOS>MOLECULE
GA0
   53    55     1     0     0
SMALL
bcc


@<TRIPOS>ATOM
      1 N1          3.8310    3.3550    0.9380 n4        1 GA0     -0.827600
      2 CA1         4.5090    2.0590    0.6870 c3        1 GA0      0.053800
      3 C1          3.5590    0.8880    0.9210 c         1 GA0      0.544100
      4 O1          2.4390    0.7990    0.4460 o         1 GA0     -0.368100
      5 N2          4.0740   -0.2640    1.7380 n4        1 GA0     -0.666800
      6 CA2         3.2670   -0.4620    3.0180 c3        1 GA0      0.085500
      7 CB2         3.7720   -1.6750    3.7640 c3        1 GA0     -0.151100
      8 C2          3.2480    0.9050    3.7500 c         1 GA0      0.670100
      9 O2          2.8000    1.8490    3.0370 o         1 GA0     -0.698100
     10 N3          3.7140    1.1270    4.9990 n         1 GA0     -0.395800
     11 CD3         3.9750    0.1760    6.0730 c3        1 GA0      0.081000
     12 CA3         3.8770    2.5130    5.4660 c3        1 GA0      0.021700
     13 CB3         4.4230    2.4370    6.9060 c3        1 GA0     -0.093400
     14 CG3         4.2550    0.9880    7.3480 c3        1 GA0     -0.091400
     15 C3          4.7810    3.3500    4.5290 c         1 GA0      0.681100
     16 O3          5.0930    2.9120    3.3850 o         1 GA0     -0.757100
     17 NN          5.1400    4.5850    4.9680 n         1 GA0     -0.416100
     18 C4          5.9330    5.5120    4.2380 ca        1 GA0     -0.020400
     19 C5          5.6380    6.8680    4.3160 ca        1 GA0     -0.111000
     20 C6          6.4440    7.8160    3.6340 ca        1 GA0     -0.033000
     21 C7          7.5560    7.3730    2.8710 ca        1 GA0     -0.037000
     22 C8          8.3660    8.3300    2.2040 ca        1 GA0     -0.121000
     23 C9          8.0770    9.6710    2.2970 ca        1 GA0     -0.095000
     24 C10         6.9670   10.1130    3.0570 ca        1 GA0     -0.096000
     25 C11         6.1660    9.2090    3.7110 ca        1 GA0     -0.122000
     26 C12         7.8350    5.9810    2.8090 ca        1 GA0     -0.092000
     27 C13         7.0520    5.0690    3.4670 ca        1 GA0     -0.158000
     28 HN11        4.4250    4.1210    0.5950 hn        1 GA0      0.494133
     29 HN12        3.7020    3.4680    1.9710 hn        1 GA0      0.494133
     30 HA11        4.8420    2.0090   -0.3960 hx        1 GA0      0.160700
     31 HA12        5.4210    2.0230    1.3630 hx        1 GA0      0.160700
     32 HN2         5.0590   -0.1160    1.9880 hn        1 GA0      0.477800
     33 HA2         2.1900   -0.6430    2.6890 hx        1 GA0      0.154700
     34 HB21        3.6880   -2.5980    3.1330 hc        1 GA0      0.097367
     35 HB22        3.1220   -1.8390    4.6640 hc        1 GA0      0.097367
     36 HB23        4.8330   -1.5670    4.0970 hc        1 GA0      0.097367
     37 HD31        4.8720   -0.4520    5.8140 h1        1 GA0      0.071200
     38 HD32        3.0810   -0.4900    6.2220 h1        1 GA0      0.071200
     39 HA3         2.8590    3.0110    5.4510 h1        1 GA0      0.110700
     40 HB31        5.5020    2.7290    6.9460 hc        1 GA0      0.088200
     41 HB32        3.8470    3.1310    7.5680 hc        1 GA0      0.088200
     42 HG31        5.1770    0.6090    7.8550 hc        1 GA0      0.093200
     43 HG32        3.4020    0.8850    8.0660 hc        1 GA0      0.093200
     44 HNN         4.8650    4.8740    5.8850 hn        1 GA0      0.345500
     45 H5          4.7950    7.2440    4.9180 ha        1 GA0      0.147000
     46 H8          9.2330    7.9790    1.6230 ha        1 GA0      0.148000
     47 H9          8.7080   10.4170    1.7870 ha        1 GA0      0.159000
     48 H10         6.7590   11.1940    3.1190 ha        1 GA0      0.159000
     49 H11         5.3060    9.5480    4.3100 ha        1 GA0      0.147000
     50 H12         8.7140    5.6470    2.2330 ha        1 GA0      0.149000
     51 H13         7.2890    3.9950    3.4260 ha        1 GA0      0.138000
     52 H131        2.9130    3.3880    0.4800 hn        1 GA0      0.494133
     53 H22         3.9940   -1.1320    1.1860 hn        1 GA0      0.477800
@<TRIPOS>BOND
     1    1    2 1   
     2    1   28 1   
     3    1   29 1   
     4    1   52 1   
     5    2    3 1   
     6    2   30 1   
     7    2   31 1   
     8    3    4 2   
     9    3    5 1   
    10    5    6 1   
    11    5   32 1   
    12    5   53 1   
    13    6    7 1   
    14    6    8 1   
    15    6   33 1   
    16    7   34 1   
    17    7   35 1   
    18    7   36 1   
    19    8    9 2   
    20    8   10 1   
    21   10   11 1   
    22   10   12 1   
    23   11   14 1   
    24   11   37 1   
    25   11   38 1   
    26   12   13 1   
    27   12   15 1   
    28   12   39 1   
    29   13   14 1   
    30   13   40 1   
    31   13   41 1   
    32   14   42 1   
    33   14   43 1   
    34   15   16 2   
    35   15   17 1   
    36   17   18 1   
    37   17   44 1   
    38   18   19 ar  
    39   18   27 ar  
    40   19   20 ar  
    41   19   45 1   
    42   20   21 ar  
    43   20   25 ar  
    44   21   22 ar  
    45   21   26 ar  
    46   22   23 ar  
    47   22   46 1   
    48   23   24 ar  
    49   23   47 1   
    50   24   25 ar  
    51   24   48 1   
    52   25   49 1   
    53   26   27 ar  
    54   26   50 1   
    55   27   51 1   
@<TRIPOS>SUBSTRUCTURE
     1 GA0         1 TEMP              0 ****  ****    0 ROOT
