@<TRIPOS>MOLECULE
GA0
   53    55     1     0     0
SMALL
bcc


@<TRIPOS>ATOM
      1 N1          4.2480    3.0170    0.8650 nz        1 GA0     -0.828600
      2 CA1         4.4050    1.5420    0.8110 c3        1 GA0      0.060800
      3 C1          3.0510    0.8480    0.9150 c         1 GA0      0.547100
      4 O1          2.0280    1.2420    0.3760 o         1 GA0     -0.383100
      5 N2          2.9590   -0.4620    1.6550 ny        1 GA0     -0.659800
      6 CA2         3.4320   -0.4420    3.0950 c3        1 GA0      0.064500
      7 CB2         4.8850   -0.8870    3.2240 c3        1 GA0     -0.149100
      8 C2          3.2280    0.9640    3.7160 c         1 GA0      0.679100
      9 O2          2.7650    1.8690    2.9640 o         1 GA0     -0.687100
     10 N3          3.5400    1.2020    5.0080 n         1 GA0     -0.393800
     11 CD3         3.8590    0.2320    6.0480 c3        1 GA0      0.076000
     12 CA3         3.7090    2.5830    5.4810 c3        1 GA0      0.024700
     13 CB3         4.1840    2.4900    6.9450 c3        1 GA0     -0.093400
     14 CG3         4.0450    1.0250    7.3510 c3        1 GA0     -0.088400
     15 C3          4.6830    3.3910    4.5850 c         1 GA0      0.677100
     16 O3          5.0800    2.9070    3.4870 o         1 GA0     -0.751100
     17 NN          5.0180    4.6350    5.0130 ns        1 GA0     -0.413100
     18 C4          5.8730    5.5340    4.3180 ca        1 GA0     -0.018400
     19 C5          5.5840    6.8920    4.3250 ca        1 GA0     -0.110000
     20 C6          6.4510    7.8120    3.6800 ca        1 GA0     -0.032000
     21 C7          7.6170    7.3370    3.0270 ca        1 GA0     -0.037000
     22 C8          8.4880    8.2660    2.3960 ca        1 GA0     -0.121000
     23 C9          8.2020    9.6110    2.4180 ca        1 GA0     -0.096000
     24 C10         7.0370   10.0850    3.0690 ca        1 GA0     -0.097000
     25 C11         6.1780    9.2080    3.6860 ca        1 GA0     -0.121000
     26 C12         7.8900    5.9430    3.0340 ca        1 GA0     -0.092000
     27 C13         7.0480    5.0580    3.6560 ca        1 GA0     -0.157000
     28 HN11        5.1630    3.4600    0.7110 hn        1 GA0      0.495133
     29 HN12        3.9210    3.2850    1.8250 hn        1 GA0      0.495133
     30 HA11        5.0870    1.2500    1.6700 hx        1 GA0      0.153700
     31 HA12        4.8780    1.2470   -0.1750 hx        1 GA0      0.153700
     32 HN2         1.9600   -0.7360    1.6480 hn        1 GA0      0.484300
     33 HA2         2.7620   -1.1770    3.6460 hx        1 GA0      0.142700
     34 HB21        5.5790   -0.0120    3.2920 hc        1 GA0      0.095700
     35 HB22        5.2180   -1.5480    2.3840 hc        1 GA0      0.095700
     36 HB23        4.9930   -1.4920    4.1630 hc        1 GA0      0.095700
     37 HD31        4.8110   -0.3110    5.7910 h1        1 GA0      0.069200
     38 HD32        3.0210   -0.5120    6.1380 h1        1 GA0      0.069200
     39 HA3         2.7030    3.0990    5.4130 h1        1 GA0      0.115700
     40 HB31        5.2490    2.8180    7.0460 hc        1 GA0      0.089200
     41 HB32        3.5520    3.1480    7.5920 hc        1 GA0      0.089200
     42 HG31        3.1600    0.8800    8.0220 hc        1 GA0      0.093700
     43 HG32        4.9530    0.6670    7.8980 hc        1 GA0      0.093700
     44 HNN         4.6630    4.9600    5.8890 hn        1 GA0      0.344500
     45 H5          4.6960    7.2930    4.8400 ha        1 GA0      0.147000
     46 H8          9.3960    7.8910    1.9000 ha        1 GA0      0.148000
     47 H9          8.8780   10.3360    1.9370 ha        1 GA0      0.158000
     48 H10         6.8320   11.1680    3.0760 ha        1 GA0      0.158000
     49 H11         5.2740    9.5720    4.1990 ha        1 GA0      0.146000
     50 H12         8.8090    5.5840    2.5430 ha        1 GA0      0.149000
     51 H13         7.2780    3.9820    3.6690 ha        1 GA0      0.138000
     52 H131        3.5690    3.3460    0.1690 hn        1 GA0      0.495133
     53 H22         3.4960   -1.1750    1.1430 hn        1 GA0      0.484300
@<TRIPOS>BOND
     1    1    2 1   
     2    1   28 1   
     3    1   29 1   
     4    1   52 1   
     5    2    3 1   
     6    2   30 1   
     7    2   31 1   
     8    3    4 2   
     9    3    5 1   
    10    5    6 1   
    11    5   32 1   
    12    5   53 1   
    13    6    7 1   
    14    6    8 1   
    15    6   33 1   
    16    7   34 1   
    17    7   35 1   
    18    7   36 1   
    19    8    9 2   
    20    8   10 1   
    21   10   11 1   
    22   10   12 1   
    23   11   14 1   
    24   11   37 1   
    25   11   38 1   
    26   12   13 1   
    27   12   15 1   
    28   12   39 1   
    29   13   14 1   
    30   13   40 1   
    31   13   41 1   
    32   14   42 1   
    33   14   43 1   
    34   15   16 2   
    35   15   17 1   
    36   17   18 1   
    37   17   44 1   
    38   18   19 ar  
    39   18   27 ar  
    40   19   20 ar  
    41   19   45 1   
    42   20   21 ar  
    43   20   25 ar  
    44   21   22 ar  
    45   21   26 ar  
    46   22   23 ar  
    47   22   46 1   
    48   23   24 ar  
    49   23   47 1   
    50   24   25 ar  
    51   24   48 1   
    52   25   49 1   
    53   26   27 ar  
    54   26   50 1   
    55   27   51 1   
@<TRIPOS>SUBSTRUCTURE
     1 GA0         1 TEMP              0 ****  ****    0 ROOT
