@<TRIPOS>MOLECULE
GA0
   51    53     1     0     0
SMALL
bcc


@<TRIPOS>ATOM
      1 N1          0.6480   -5.9890    5.9750 n3        1 GA0     -0.885800
      2 CA1         0.4530   -4.5970    5.6930 c3        1 GA0      0.094800
      3 C1         -0.2580   -4.2830    4.3660 c         1 GA0      0.611100
      4 O1         -0.6090   -5.1890    3.5810 o         1 GA0     -0.628100
      5 N2         -0.5230   -2.9560    4.0930 n         1 GA0     -0.557900
      6 CA2        -1.1220   -2.5310    2.8530 c3        1 GA0      0.048700
      7 CB2        -2.0570   -1.3330    3.0210 c3        1 GA0     -0.106100
      8 C2         -0.0250   -2.0990    1.8430 c         1 GA0      0.635100
      9 O2          0.7130   -1.1260    2.1150 o         1 GA0     -0.638100
     10 N3          0.0780   -2.7470    0.6300 n         1 GA0     -0.448800
     11 CD3        -0.4690   -4.0740    0.3820 c3        1 GA0      0.072000
     12 CA3         1.1570   -2.4380   -0.3040 c3        1 GA0      0.025700
     13 CB3         1.4600   -3.7290   -1.0940 c3        1 GA0     -0.087400
     14 CG3         0.3740   -4.7310   -0.7210 c3        1 GA0     -0.089400
     15 C3          0.7790   -1.2780   -1.2650 c         1 GA0      0.663100
     16 O3          0.6720   -1.4740   -2.4880 o         1 GA0     -0.595100
     17 NN          0.6090   -0.0460   -0.6620 n         1 GA0     -0.465100
     18 C4          0.2830    1.1730   -1.2780 ca        1 GA0      0.078600
     19 C5          0.2940    2.3370   -0.5070 ca        1 GA0     -0.188000
     20 C6         -0.0390    3.5900   -1.0740 ca        1 GA0     -0.009000
     21 C7         -0.3890    3.6710   -2.4450 ca        1 GA0     -0.060000
     22 C8         -0.7220    4.9340   -3.0060 ca        1 GA0     -0.108000
     23 C9         -0.7040    6.0670   -2.2300 ca        1 GA0     -0.138000
     24 C10        -0.3540    5.9880   -0.8590 ca        1 GA0     -0.122000
     25 C11        -0.0290    4.7810   -0.2930 ca        1 GA0     -0.126000
     26 C12        -0.3960    2.4790   -3.2150 ca        1 GA0     -0.100000
     27 C13        -0.0740    1.2670   -2.6630 ca        1 GA0     -0.145000
     28 HN11       -0.2300   -6.4690    6.0370 hn        1 GA0      0.362300
     29 HN12        1.1990   -6.4260    5.2610 hn        1 GA0      0.362300
     30 HA11        1.4620   -4.0940    5.6720 h1        1 GA0      0.076700
     31 HA12       -0.1520   -4.1460    6.5310 h1        1 GA0      0.076700
     32 HN2        -0.1050   -2.2480    4.6500 hn        1 GA0      0.322500
     33 HA2        -1.7220   -3.4010    2.4460 h1        1 GA0      0.099700
     34 HB21       -1.4960   -0.4370    3.3830 hc        1 GA0      0.056700
     35 HB22       -2.5140   -1.0920    2.0310 hc        1 GA0      0.056700
     36 HB23       -2.8710   -1.5730    3.7460 hc        1 GA0      0.056700
     37 HD31       -1.5380   -3.9660    0.0510 h1        1 GA0      0.067200
     38 HD32       -0.4460   -4.6970    1.3210 h1        1 GA0      0.067200
     39 HA3         2.0740   -2.1090    0.2710 h1        1 GA0      0.084700
     40 HB31        2.4710   -4.1090   -0.8030 hc        1 GA0      0.074700
     41 HB32        1.4670   -3.5320   -2.1960 hc        1 GA0      0.074700
     42 HG31       -0.2680   -4.9670   -1.6050 hc        1 GA0      0.059200
     43 HG32        0.8190   -5.6870   -0.3520 hc        1 GA0      0.059200
     44 HNN         0.7710    0.0060    0.3260 hn        1 GA0      0.344500
     45 H5          0.5620    2.3090    0.5610 ha        1 GA0      0.136000
     46 H8         -0.9910    4.9830   -4.0710 ha        1 GA0      0.131000
     47 H9         -0.9600    7.0460   -2.6600 ha        1 GA0      0.131000
     48 H10        -0.3470    6.9090   -0.2580 ha        1 GA0      0.130000
     49 H11         0.2440    4.7120    0.7700 ha        1 GA0      0.131000
     50 H12        -0.6680    2.5430   -4.2810 ha        1 GA0      0.135000
     51 H13        -0.0880    0.3600   -3.2890 ha        1 GA0      0.172000
@<TRIPOS>BOND
     1    1    2 1   
     2    1   28 1   
     3    1   29 1   
     4    2    3 1   
     5    2   30 1   
     6    2   31 1   
     7    3    4 2   
     8    3    5 1   
     9    5    6 1   
    10    5   32 1   
    11    6    7 1   
    12    6    8 1   
    13    6   33 1   
    14    7   34 1   
    15    7   35 1   
    16    7   36 1   
    17    8    9 2   
    18    8   10 1   
    19   10   11 1   
    20   10   12 1   
    21   11   14 1   
    22   11   37 1   
    23   11   38 1   
    24   12   13 1   
    25   12   15 1   
    26   12   39 1   
    27   13   14 1   
    28   13   40 1   
    29   13   41 1   
    30   14   42 1   
    31   14   43 1   
    32   15   16 2   
    33   15   17 1   
    34   17   18 1   
    35   17   44 1   
    36   18   19 ar  
    37   18   27 ar  
    38   19   20 ar  
    39   19   45 1   
    40   20   21 ar  
    41   20   25 ar  
    42   21   22 ar  
    43   21   26 ar  
    44   22   23 ar  
    45   22   46 1   
    46   23   24 ar  
    47   23   47 1   
    48   24   25 ar  
    49   24   48 1   
    50   25   49 1   
    51   26   27 ar  
    52   26   50 1   
    53   27   51 1   
@<TRIPOS>SUBSTRUCTURE
     1 GA0         1 TEMP              0 ****  ****    0 ROOT
