@<TRIPOS>MOLECULE
GA0
   54    56     1     0     0
SMALL
bcc


@<TRIPOS>ATOM
      1 N1         -0.3660   -2.4510    1.3690 n4        1 GA0     -0.833600
      2 CA1         0.3020   -1.2400    0.8230 c3        1 GA0      0.023800
      3 C1          1.4700   -0.7670    1.6910 c         1 GA0      0.515100
      4 O1          1.8310   -1.3290    2.7150 o         1 GA0     -0.369100
      5 N2          2.1710    0.4610    1.2250 n4        1 GA0     -0.674800
      6 CA2         3.5320    0.7210    1.8750 c3        1 GA0      0.074500
      7 CB2         4.5980    0.8840    0.8020 c3        1 GA0     -0.148100
      8 C2          3.4430    2.0160    2.7340 c         1 GA0      0.657100
      9 O2          2.4380    2.7500    2.5870 o         1 GA0     -0.618100
     10 N3          4.4590    2.3300    3.5860 n         1 GA0     -0.422800
     11 CD3         5.5380    1.4400    4.0080 c3        1 GA0      0.076000
     12 CA3         4.4190    3.5470    4.3980 c3        1 GA0      0.049700
     13 CB3         5.3800    3.3170    5.5880 c3        1 GA0     -0.099400
     14 CG3         6.1370    2.0250    5.2960 c3        1 GA0     -0.092400
     15 C3          4.8380    4.7860    3.5920 c         1 GA0      0.525100
     16 O3          5.2570    4.8080    2.4440 o         1 GA0     -0.408100
     17 NN          4.6800    6.1190    4.2770 n4        1 GA0     -0.523200
     18 C4          5.9370    6.6000    4.8690 ca        1 GA0     -0.103400
     19 C5          6.9630    7.0530    4.0520 ca        1 GA0     -0.042000
     20 C6          8.1400    7.5820    4.6350 ca        1 GA0     -0.048000
     21 C7          8.2540    7.6490    6.0530 ca        1 GA0     -0.010000
     22 C8          9.4270    8.1990    6.6290 ca        1 GA0     -0.119000
     23 C9         10.4440    8.6640    5.8240 ca        1 GA0     -0.064000
     24 C10        10.3320    8.5960    4.4140 ca        1 GA0     -0.084000
     25 C11         9.2060    8.0660    3.8280 ca        1 GA0     -0.112000
     26 C12         7.1800    7.1750    6.8560 ca        1 GA0     -0.050000
     27 C13         6.0420    6.6570    6.2920 ca        1 GA0     -0.165000
     28 HN11       -1.1390   -2.7270    0.7370 hn        1 GA0      0.500467
     29 HN12       -0.7560   -2.2700    2.3070 hn        1 GA0      0.500467
     30 HA11        0.6780   -1.4830   -0.2220 hx        1 GA0      0.170700
     31 HA12       -0.4720   -0.4120    0.7410 hx        1 GA0      0.170700
     32 HN2         1.5650    1.2920    1.4340 hn        1 GA0      0.499300
     33 HA2         3.7730   -0.1610    2.5440 hx        1 GA0      0.146700
     34 HB21        4.4120    1.7800    0.1580 hc        1 GA0      0.105033
     35 HB22        4.6780   -0.0280    0.1580 hc        1 GA0      0.105033
     36 HB23        5.5930    1.0250    1.3030 hc        1 GA0      0.105033
     37 HD31        5.1340    0.4070    4.1900 h1        1 GA0      0.073200
     38 HD32        6.3220    1.3920    3.2010 h1        1 GA0      0.073200
     39 HA3         3.3560    3.7190    4.7490 h1        1 GA0      0.117700
     40 HB31        6.0900    4.1740    5.7190 hc        1 GA0      0.100200
     41 HB32        4.7800    3.2200    6.5300 hc        1 GA0      0.100200
     42 HG31        7.2310    2.2230    5.1570 hc        1 GA0      0.102200
     43 HG32        6.0290    1.3000    6.1430 hc        1 GA0      0.102200
     44 HNN         3.9700    6.0570    5.0150 hn        1 GA0      0.471300
     45 H5          6.8900    7.0190    2.9500 ha        1 GA0      0.160000
     46 H8          9.5090    8.2540    7.7270 ha        1 GA0      0.166000
     47 H9         11.3550    9.0980    6.2700 ha        1 GA0      0.175000
     48 H10        11.1590    8.9800    3.7920 ha        1 GA0      0.173000
     49 H11         9.1140    8.0170    2.7310 ha        1 GA0      0.153000
     50 H12         7.2720    7.2410    7.9550 ha        1 GA0      0.177000
     51 H13         5.2140    6.3170    6.9330 ha        1 GA0      0.145000
     52 H131        0.2960   -3.2400    1.4440 hn        1 GA0      0.500467
     53 H22         2.3070    0.4160    0.2040 hn        1 GA0      0.499300
     54 HN21        4.3760    6.8150    3.5760 hn        1 GA0      0.471300
@<TRIPOS>BOND
     1    1    2 1   
     2    1   28 1   
     3    1   29 1   
     4    1   52 1   
     5    2    3 1   
     6    2   30 1   
     7    2   31 1   
     8    3    4 2   
     9    3    5 1   
    10    5    6 1   
    11    5   32 1   
    12    5   53 1   
    13    6    7 1   
    14    6    8 1   
    15    6   33 1   
    16    7   34 1   
    17    7   35 1   
    18    7   36 1   
    19    8    9 2   
    20    8   10 1   
    21   10   11 1   
    22   10   12 1   
    23   11   14 1   
    24   11   37 1   
    25   11   38 1   
    26   12   13 1   
    27   12   15 1   
    28   12   39 1   
    29   13   14 1   
    30   13   40 1   
    31   13   41 1   
    32   14   42 1   
    33   14   43 1   
    34   15   16 2   
    35   15   17 1   
    36   17   18 1   
    37   17   44 1   
    38   17   54 1   
    39   18   19 ar  
    40   18   27 ar  
    41   19   20 ar  
    42   19   45 1   
    43   20   21 ar  
    44   20   25 ar  
    45   21   22 ar  
    46   21   26 ar  
    47   22   23 ar  
    48   22   46 1   
    49   23   24 ar  
    50   23   47 1   
    51   24   25 ar  
    52   24   48 1   
    53   25   49 1   
    54   26   27 ar  
    55   26   50 1   
    56   27   51 1   
@<TRIPOS>SUBSTRUCTURE
     1 GA0         1 TEMP              0 ****  ****    0 ROOT
