@<TRIPOS>MOLECULE
GA0
   51    49     1     0     0
SMALL
bcc


@<TRIPOS>ATOM
      1 N1         -5.8210   -1.4850    0.1020 n3        1 GA0     -0.318000
      2 CA1        -5.2140   -0.4010   -0.6080 c3        1 GA0     -0.096000
      3 C1         -3.6670   -0.6220   -0.6730 c2        1 GA0      0.259000
      4 O1         -3.0250   -0.7100    0.3540 o         1 GA0     -0.383000
      5 N2         -2.9890   -0.5890   -1.9420 n         1 GA0     -0.357000
      6 CA2        -1.7590    0.1050   -2.0770 c3        1 GA0      0.016000
      7 CB2        -1.1220   -0.2610   -3.4050 c3        1 GA0     -0.221000
      8 C2         -2.0180    1.6060   -2.0370 c2        1 GA0      0.297000
      9 O2         -3.0330    2.0520   -2.5060 o         1 GA0     -0.368000
     10 N3         -1.0490    2.5060   -1.3890 n         1 GA0     -0.316000
     11 CD3        -1.1700    4.0440   -1.2240 c3        1 GA0     -0.025000
     12 CA3         0.1170    2.1650   -0.8330 c3        1 GA0      0.013000
     13 CB3         0.3640    3.3710    0.3020 c3        1 GA0     -0.164000
     14 CG3        -0.0650    4.4640   -0.2140 c3        1 GA0     -0.169000
     15 C3          0.1450    0.7650   -0.2490 c2        1 GA0      0.279000
     16 O3         -0.8350    0.1620   -0.1400 o         1 GA0     -0.324000
     17 NN          1.4030    0.1790    0.1580 n         1 GA0     -0.331000
     18 C4          1.4340   -1.1950    0.7150 c2        1 GA0      0.074000
     19 C5          2.4190   -0.7100    1.6140 c2        1 GA0     -0.177000
     20 C6          3.3610   -1.6100    2.1920 c1        1 GA0     -0.016000
     21 C7          3.3190   -2.9440    1.8810 c1        1 GA0     -0.050000
     22 C8          4.2990   -3.8210    2.4040 c1        1 GA0     -0.105500
     23 C9          5.3130   -3.3220    3.2410 c1        1 GA0     -0.129000
     24 C10         5.3550   -1.9750    3.5530 c1        1 GA0     -0.129000
     25 C11         4.3910   -1.1090    3.0390 c1        1 GA0     -0.125000
     26 C12         2.3150   -3.4430    0.9640 c1        1 GA0     -0.105500
     27 C13         1.3890   -2.5650    0.3950 c1        1 GA0     -0.121000
     28 HN11       -6.4220   -1.9300   -0.4620 hn        1 GA0      0.155500
     29 HN12       -6.2870   -1.1440    0.8660 hn        1 GA0      0.155500
     30 HA11       -5.3960    0.4050   -0.1650 h1        1 GA0      0.116000
     31 HA12       -5.5780   -0.3610   -1.5210 h1        1 GA0      0.116000
     32 HN2        -3.3750   -0.9890   -2.6820 hn        1 GA0      0.238000
     33 HA2        -1.1490   -0.1490   -1.3340 h1        1 GA0      0.138000
     34 HB21       -1.8100   -0.2800   -4.0990 hc        1 GA0      0.089667
     35 HB22       -0.7100   -1.1330   -3.3390 hc        1 GA0      0.089667
     36 HB23       -0.4530    0.3910   -3.6330 hc        1 GA0      0.089667
     37 HD31       -2.0430    4.2750   -0.8740 h1        1 GA0      0.102000
     38 HD32       -1.0220    4.4950   -2.0990 h1        1 GA0      0.102000
     39 HA3         0.8240    2.1240   -1.4760 h1        1 GA0      0.111000
     40 HB31        1.3010    3.4460    0.4980 hc        1 GA0      0.098500
     41 HB32       -0.1390    3.1680    1.1310 hc        1 GA0      0.098500
     42 HG31       -0.4470    5.0370    0.4840 hc        1 GA0      0.098500
     43 HG32        0.6600    4.9310   -0.6780 hc        1 GA0      0.098500
     44 HNN         2.1780    0.6820    0.1240 hn        1 GA0      0.228000
     45 H5          2.4190    0.2250    1.8760 ha        1 GA0      0.128000
     46 H8          4.2710   -4.7850    2.1810 ha        1 GA0      0.135500
     47 H9          5.9530   -3.8950    3.5830 ha        1 GA0      0.131500
     48 H10         6.0710   -1.6250    4.1440 ha        1 GA0      0.131500
     49 H11         4.4190   -0.1950    3.2530 ha        1 GA0      0.129000
     50 H12         2.2830   -4.4130    0.7400 ha        1 GA0      0.135500
     51 H13         0.5920   -2.9400   -0.1360 ha        1 GA0      0.180000
@<TRIPOS>BOND
     1    1    2 1   
     2    1   28 1   
     3    1   29 1   
     4    2    3 1   
     5    2   30 1   
     6    2   31 1   
     7    3    4 1   
     8    3    5 1   
     9    5    6 1   
    10    5   32 1   
    11    6    7 1   
    12    6    8 1   
    13    6   33 1   
    14    7   34 1   
    15    7   35 1   
    16    7   36 1   
    17    8    9 1   
    18    8   10 1   
    19   10   11 1   
    20   10   12 1   
    21   11   14 1   
    22   11   37 1   
    23   11   38 1   
    24   12   13 1   
    25   12   15 1   
    26   12   39 1   
    27   13   14 1   
    28   13   40 1   
    29   13   41 1   
    30   14   42 1   
    31   14   43 1   
    32   15   16 1   
    33   15   17 1   
    34   17   18 1   
    35   17   44 1   
    36   18   19 1   
    37   18   27 1   
    38   19   20 1   
    39   19   45 1   
    40   20   25 1   
    41   21   22 1   
    42   21   26 1   
    43   22   46 1   
    44   23   24 1   
    45   23   47 1   
    46   24   48 1   
    47   25   49 1   
    48   26   50 1   
    49   27   51 1   
@<TRIPOS>SUBSTRUCTURE
     1 GA0         1 TEMP              0 ****  ****    0 ROOT
