@<TRIPOS>MOLECULE
GA2
   32    32     1     0     0
SMALL
bcc


@<TRIPOS>ATOM
      1 N1         -0.0750    0.3870   -0.3230 n         1 GA2     -0.329000
      2 C2          1.1710   -0.1400    0.0400 c2        1 GA2      0.022000
      3 C4          0.8690    0.2420    2.2720 c2        1 GA2     -0.035000
      4 C8         -0.0830    0.8390    4.2720 c1        1 GA2      0.091000
      5 C4'         3.7740    0.7760    7.4340 c3        1 GA2      0.013000
      6 O4'         4.8750    0.1930    8.0900 oh        1 GA2     -0.310000
      7 C3'         7.5120   -1.9710    6.4240 c3        1 GA2     -0.073000
      8 O3'         6.2200   -1.4080    6.5340 oh        1 GA2     -0.371000
      9 C2'         3.6270    0.1990    6.0660 c2        1 GA2     -0.159000
     10 O1'         2.4820    0.4410    5.4710 os        1 GA2      0.098000
     11 N9          1.0520    0.2600    3.6770 nh        1 GA2     -0.047000
     12 N3          1.6850   -0.2410    1.2680 n2        1 GA2     -0.077000
     13 N2          2.0450   -0.6470   -1.0660 n4        1 GA2     -0.023000
     14 C6         -0.9610    0.8930    0.6770 c2        1 GA2      0.381000
     15 O6         -2.0490    1.3450    0.3100 o         1 GA2     -0.272000
     16 C5         -0.4330    0.8030    2.0230 c2        1 GA2     -0.151000
     17 N7         -0.9720    1.1630    3.2520 nh        1 GA2     -0.177000
     18 HN1        -0.3790    0.4250   -1.2720 hn        1 GA2      0.264000
     19 H8         -1.8670    1.5750    3.3730 hn        1 GA2      0.293000
     20 H4'1        2.8820    0.5290    8.0760 h1        1 GA2      0.122500
     21 H4'2        3.8840    1.8940    7.3650 h1        1 GA2      0.122500
     22 HO4'        5.6790    0.4790    7.6320 ho        1 GA2      0.221000
     23 H3'1        5.8200   -1.7570    7.3430 ho        1 GA2      0.220000
     24 H3'2        7.4510   -3.0840    6.3360 h1        1 GA2      0.075000
     25 HO3'        7.9450   -1.5340    5.4890 h1        1 GA2      0.075000
     26 H2'         8.1410   -1.6920    7.3060 h1        1 GA2      0.075000
     27 H1'1        4.3900   -0.4680    5.6350 h4        1 GA2      0.190000
     28 H1'2        2.8830   -0.9010    3.8490 h5        1 GA2      0.202000
     29 HN21        2.9290   -1.0050   -0.6720 hn        1 GA2      0.275333
     30 HN22        2.2530    0.1170   -1.7190 hn        1 GA2      0.275333
     31 C1'         2.1810   -0.2100    4.3200 c2        1 GA2     -0.267000
     32 H23         1.5650   -1.4090   -1.5590 hn        1 GA2      0.275333
@<TRIPOS>BOND
     1    1    2 1   
     2    1   14 1   
     3    1   18 1   
     4    2   12 1   
     5    2   13 1   
     6    3   11 1   
     7    3   12 1   
     8    3   16 1   
     9    4   11 1   
    10    4   17 1   
    11    5    6 1   
    12    5    9 1   
    13    5   20 1   
    14    5   21 1   
    15    6   22 1   
    16    7    8 1   
    17    7   24 1   
    18    7   25 1   
    19    7   26 1   
    20    8   23 1   
    21    9   10 1   
    22    9   27 1   
    23   10   31 1   
    24   11   31 1   
    25   13   29 1   
    26   13   30 1   
    27   13   32 1   
    28   14   15 1   
    29   14   16 1   
    30   16   17 1   
    31   17   19 1   
    32   28   31 1   
@<TRIPOS>SUBSTRUCTURE
     1 GA2         1 TEMP              0 ****  ****    0 ROOT
