@<TRIPOS>MOLECULE
GA2
   32    32     1     0     0
SMALL
bcc


@<TRIPOS>ATOM
      1 N1          0.5920   -1.1110    1.8060 n         1 GA2     -0.486400
      2 C2          1.6380   -1.3190    2.7120 cc        1 GA2      0.506800
      3 C4          1.4190    0.7500    3.6710 cd        1 GA2      0.118500
      4 C8          0.8070    2.9130    4.0660 c1        1 GA2      0.095000
      5 C4'         5.4020   -0.3070    4.5770 c3        1 GA2      0.185600
      6 O4'         4.5800   -1.4640    4.5860 oh        1 GA2     -0.651800
      7 C3'         4.8840    1.9810    3.6810 c2        1 GA2     -0.273000
      8 O3'         3.8310   -4.1190    4.3970 oh        1 GA2     -0.872000
      9 C2'         4.6190    0.9770    4.5220 c2        1 GA2      0.013900
     10 O1'         3.6480    0.9750    5.5170 os        1 GA2     -0.340900
     11 N9          1.6860    1.8920    4.4540 nh        1 GA2     -0.161600
     12 N3          2.0530   -0.4750    3.6550 nd        1 GA2     -0.516300
     13 N2          2.4100   -2.5940    2.6550 n4        1 GA2     -0.793600
     14 C6         -0.1210    0.1290    1.7960 c         1 GA2      0.740700
     15 O6         -1.0370    0.2660    0.9820 o         1 GA2     -0.541500
     16 C5          0.3550    1.0900    2.7770 cc        1 GA2     -0.191300
     17 N7          0.0010    2.4120    3.0500 nh        1 GA2     -0.211600
     18 HN1         0.3170   -1.8070    1.1450 hn        1 GA2      0.354500
     19 H8         -0.7220    2.9080    2.5840 hn        1 GA2      0.344700
     20 H4'1        6.0480   -0.3030    5.4980 h1        1 GA2      0.074700
     21 H4'2        6.0420   -0.4110    3.6590 h1        1 GA2      0.074700
     22 HO4'        3.9750   -1.3740    5.3360 ho        1 GA2      0.432000
     23 H3'1        3.8920   -5.0320    4.6960 ho        1 GA2      0.438000
     24 H3'2        5.6940    1.9040    2.9440 ha        1 GA2      0.142000
     25 HO3'        4.3380    2.9320    3.6730 ha        1 GA2      0.142000
     26 H2'         4.5730   -3.6790    4.8290 ho        1 GA2      0.438000
     27 H1'1        3.1440    3.0270    5.4400 h2        1 GA2      0.104200
     28 H1'2        2.1580    1.8610    6.5140 h2        1 GA2      0.104200
     29 HN21        3.3470   -2.4490    3.1050 hn        1 GA2      0.492467
     30 HN22        1.9310   -3.3250    3.1990 hn        1 GA2      0.492467
     31 C1'         2.6690    2.0070    5.5130 c3        1 GA2      0.254100
     32 H23         2.5410   -2.9010    1.6900 hn        1 GA2      0.492467
@<TRIPOS>BOND
     1    1    2 1   
     2    1   14 1   
     3    1   18 1   
     4    2   12 2   
     5    2   13 1   
     6    3   11 1   
     7    3   12 1   
     8    3   16 2   
     9    4   11 2   
    10    4   17 2   
    11    5    6 1   
    12    5    9 1   
    13    5   20 1   
    14    5   21 1   
    15    6   22 1   
    16    7    9 2   
    17    7   24 1   
    18    7   25 1   
    19    8   23 1   
    20    8   26 1   
    21    9   10 1   
    22   10   31 1   
    23   11   31 1   
    24   13   29 1   
    25   13   30 1   
    26   13   32 1   
    27   14   15 2   
    28   14   16 1   
    29   16   17 1   
    30   17   19 1   
    31   27   31 1   
    32   28   31 1   
@<TRIPOS>SUBSTRUCTURE
     1 GA2         1 TEMP              0 ****  ****    0 ROOT
