@<TRIPOS>MOLECULE
GA2
   31    30     1     0     0
SMALL
bcc


@<TRIPOS>ATOM
      1 N1         -2.8120    0.0820   -3.9740 n         1 GA2     -0.348000
      2 C2         -1.3920    0.0960   -3.9560 c2        1 GA2      0.243000
      3 C4         -1.4250    0.0710   -1.4600 c1        1 GA2      0.064000
      4 C8         -2.1260    0.0800    0.6110 c1        1 GA2     -0.079000
      5 C4'         1.6720    0.8430    3.4450 c3        1 GA2     -0.028500
      6 O4'         2.9190    1.3110    3.7820 oh        1 GA2     -0.329000
      7 C3'         2.3770   -1.4370    2.5990 c3        1 GA2     -0.028500
      8 O3'         3.7700   -1.3560    2.6300 oh        1 GA2     -0.329000
      9 C2'         1.7790   -0.0430    2.1990 c3        1 GA2     -0.024000
     10 O1'         0.4770   -0.2320    1.6300 os        1 GA2     -0.278000
     11 C1'         0.3470    0.2600    0.2780 c3        1 GA2      0.112000
     12 N9         -1.0230    0.0870   -0.1680 n3        1 GA2     -0.195000
     13 N3         -0.6890    0.0920   -2.7060 n1        1 GA2     -0.258000
     14 N2         -0.6880    0.1370   -5.1400 n3        1 GA2     -0.334000
     15 C6         -3.5180    0.0680   -2.7830 c2        1 GA2      0.399000
     16 O6         -4.7460    0.2010   -2.7940 o         1 GA2     -0.319000
     17 C5         -2.7800    0.0530   -1.4740 c2        1 GA2     -0.239000
     18 N7         -3.2110    0.0590   -0.2010 n2        1 GA2     -0.057000
     19 HN1        -3.2400    0.0840   -4.7380 hn        1 GA2      0.249000
     20 H8         -2.1390    0.0090    1.5840 DU        1 GA2      0.208000
     21 H4'1        1.3190    0.3320    4.1660 h1        1 GA2      0.083250
     22 H4'2        1.0810    1.5960    3.2600 h1        1 GA2      0.083250
     23 HO4'        2.8480    1.8920    4.4580 ho        1 GA2      0.213000
     24 H3'1        2.0340   -1.7040    3.5140 h1        1 GA2      0.083250
     25 H3'2        2.1050   -2.1070    1.9430 h1        1 GA2      0.083250
     26 HO3'        4.0990   -2.1180    2.8890 ho        1 GA2      0.213000
     27 H2'         2.3740    0.3940    1.5300 h1        1 GA2      0.128000
     28 H1'1        0.5780    1.1950    0.2540 h2        1 GA2      0.123500
     29 H1'2        0.9430   -0.2350   -0.3090 h2        1 GA2      0.123500
     30 HN21       -1.1360    0.1480   -5.9400 hn        1 GA2      0.218500
     31 HN22        0.2040    0.1420   -5.1280 hn        1 GA2      0.218500
@<TRIPOS>BOND
     1    1    2 1   
     2    1   15 1   
     3    1   19 1   
     4    2   13 1   
     5    2   14 1   
     6    3   12 1   
     7    3   17 1   
     8    4   12 1   
     9    4   18 1   
    10    5    6 1   
    11    5    9 1   
    12    5   21 1   
    13    5   22 1   
    14    6   23 1   
    15    7    8 1   
    16    7    9 1   
    17    7   24 1   
    18    7   25 1   
    19    8   26 1   
    20    9   10 1   
    21    9   27 1   
    22   10   11 1   
    23   11   12 1   
    24   11   28 1   
    25   11   29 1   
    26   14   30 1   
    27   14   31 1   
    28   15   16 1   
    29   15   17 1   
    30   17   18 1   
@<TRIPOS>SUBSTRUCTURE
     1 GA2         1 TEMP              0 ****  ****    0 ROOT
