@<TRIPOS>MOLECULE
GA2
   32    32     1     0     0
SMALL
bcc


@<TRIPOS>ATOM
      1 N1          0.0910    1.4890    1.2940 ns        1 GA2     -0.327000
      2 C2          1.4250    1.2090    0.9730 c2        1 GA2      0.038000
      3 C4          1.4710   -0.7380    2.1660 c2        1 GA2      0.020000
      4 C8          0.8600   -2.4800    3.5230 c1        1 GA2      0.115000
      5 C4'         5.1030    0.2240    4.6120 c3        1 GA2     -0.090000
      6 O4'         6.0070   -0.6370    5.2700 oh        1 GA2     -0.328000
      7 C3'         4.5290   -0.3370    8.8660 c3        1 GA2     -0.073000
      8 O3'         4.8330   -0.0310    7.5200 oh        1 GA2     -0.364000
      9 C2'         4.1670   -0.4020    3.6390 c1        1 GA2     -0.083000
     10 O1'         4.1330   -1.7180    3.7270 os        1 GA2     -0.175000
     11 N9          1.9150   -1.9350    2.7750 nh        1 GA2     -0.194000
     12 N3          2.1440    0.1470    1.3420 n2        1 GA2     -0.055000
     13 N2          2.1500    2.2020    0.1160 nz        1 GA2     -0.025000
     14 C6         -0.6590    0.5890    2.1110 c2        1 GA2      0.379000
     15 O6         -1.8330    0.8690    2.3600 o         1 GA2     -0.262000
     16 C5          0.1030   -0.5670    2.5510 c2        1 GA2     -0.136000
     17 N7         -0.2390   -1.6450    3.3680 nu        1 GA2     -0.192000
     18 HN1        -0.3650    2.3240    0.9900 hn        1 GA2      0.267000
     19 H8         -1.1350   -1.7780    3.7750 hn        1 GA2      0.297000
     20 H4'1        4.4730    0.7900    5.3590 h1        1 GA2      0.134000
     21 H4'2        5.7540    0.9500    4.0480 h1        1 GA2      0.134000
     22 HO4'        5.4850   -1.2600    5.7950 ho        1 GA2      0.222000
     23 H3'1        5.7590    0.2410    7.4860 ho        1 GA2      0.213000
     24 H3'2        4.6660    0.5620    9.5160 h1        1 GA2      0.075000
     25 HO3'        3.4550   -0.6490    8.8610 h1        1 GA2      0.075000
     26 H2'         5.1710   -1.1750    9.2350 h1        1 GA2      0.075000
     27 H1'1        3.2880   -3.4730    3.1540 h2        1 GA2      0.149000
     28 H1'2        3.7240   -2.2910    1.7560 h2        1 GA2      0.149000
     29 HN21        3.1200    1.8790   -0.0360 hn        1 GA2      0.278667
     30 HN22        1.6770    2.2880   -0.7900 hn        1 GA2      0.278667
     31 C1'         3.2690   -2.4070    2.7780 c3        1 GA2      0.124000
     32 H23         2.1720    3.1110    0.5920 hn        1 GA2      0.278667
@<TRIPOS>BOND
     1    1    2 1   
     2    1   14 1   
     3    1   18 1   
     4    2   12 1   
     5    2   13 1   
     6    3   11 1   
     7    3   12 1   
     8    3   16 1   
     9    4   11 1   
    10    4   17 1   
    11    5    6 1   
    12    5    9 1   
    13    5   20 1   
    14    5   21 1   
    15    6   22 1   
    16    7    8 1   
    17    7   24 1   
    18    7   25 1   
    19    7   26 1   
    20    8   23 1   
    21    9   10 1   
    22   10   31 1   
    23   11   31 1   
    24   13   29 1   
    25   13   30 1   
    26   13   32 1   
    27   14   15 1   
    28   14   16 1   
    29   16   17 1   
    30   17   19 1   
    31   27   31 1   
    32   28   31 1   
@<TRIPOS>SUBSTRUCTURE
     1 GA2         1 TEMP              0 ****  ****    0 ROOT
