@<TRIPOS>MOLECULE
GA2
   31    32     1     0     0
SMALL
bcc


@<TRIPOS>ATOM
      1 N1          0.7180    0.7200   -3.2430 n         1 GA2     -0.509400
      2 C2          1.5850    0.2450   -2.2400 cc        1 GA2      0.685800
      3 C4         -0.1960   -0.3510   -0.9090 cd        1 GA2      0.109800
      4 C8         -2.3010   -0.6430   -0.1800 cd        1 GA2      0.406400
      5 C4'         0.1160    1.3970    3.7130 c3        1 GA2      0.118900
      6 O4'         0.1300    0.6280    4.8990 oh        1 GA2     -0.603300
      7 C3'         1.8950   -0.0260    2.6030 c3        1 GA2      0.118900
      8 O3'         1.9470   -1.1750    3.4190 oh        1 GA2     -0.603300
      9 C2'         0.4780    0.5420    2.4900 c3        1 GA2      0.056100
     10 O1'        -0.5100   -0.4920    2.4800 os        1 GA2     -0.432600
     11 N9         -0.9400   -0.8700    0.1590 na        1 GA2     -0.237900
     12 N3          1.1760   -0.3180   -1.0760 nd        1 GA2     -0.683100
     13 N2          2.9710    0.4270   -2.4420 nh        1 GA2     -0.893800
     14 C6         -0.6990    0.7110   -3.1060 c         1 GA2      0.651000
     15 O6         -1.3670    1.1790   -4.0380 o         1 GA2     -0.594500
     16 C5         -1.1620    0.1310   -1.8620 cc        1 GA2      0.177800
     17 N7         -2.4600   -0.0620   -1.3800 nc        1 GA2     -0.585000
     18 HN1         1.0890    1.1570   -4.0590 hn        1 GA2      0.335500
     19 H8         -3.1080   -0.9400    0.4990 h5        1 GA2      0.070100
     20 H4'1        0.8910    2.1920    3.8680 h1        1 GA2      0.058700
     21 H4'2       -0.8920    1.8650    3.5610 h1        1 GA2      0.058700
     22 HO4'       -0.5680   -0.0350    4.8140 ho        1 GA2      0.418000
     23 H3'1        2.2700   -0.3690    1.6000 h1        1 GA2      0.058700
     24 H3'2        2.5790    0.7700    3.0020 h1        1 GA2      0.058700
     25 HO3'        1.5890   -0.9280    4.2840 ho        1 GA2      0.418000
     26 H2'         0.3940    1.1620    1.5570 h1        1 GA2      0.066700
     27 H1'1       -1.1260   -2.2440    1.7270 h2        1 GA2      0.094200
     28 H1'2        0.6160   -1.7730    1.2480 h2        1 GA2      0.094200
     29 HN21        3.5560   -0.0390   -1.7820 hn        1 GA2      0.422300
     30 HN22        3.2840    0.3580   -3.3850 hn        1 GA2      0.422300
     31 C1'        -0.4400   -1.4080    1.3950 c3        1 GA2      0.244100
@<TRIPOS>BOND
     1    1    2 1   
     2    1   14 1   
     3    1   18 1   
     4    2   12 2   
     5    2   13 1   
     6    3   11 1   
     7    3   12 1   
     8    3   16 2   
     9    4   11 1   
    10    4   17 2   
    11    4   19 1   
    12    5    6 1   
    13    5    9 1   
    14    5   20 1   
    15    5   21 1   
    16    6   22 1   
    17    7    8 1   
    18    7    9 1   
    19    7   23 1   
    20    7   24 1   
    21    8   25 1   
    22    9   10 1   
    23    9   26 1   
    24   10   31 1   
    25   11   31 1   
    26   13   29 1   
    27   13   30 1   
    28   14   15 2   
    29   14   16 1   
    30   16   17 1   
    31   27   31 1   
    32   28   31 1   
@<TRIPOS>SUBSTRUCTURE
     1 GA2         1 TEMP              0 ****  ****    0 ROOT
