@<TRIPOS>MOLECULE
GA3
   46    50     1     0     0
SMALL
bcc


@<TRIPOS>ATOM
      1 O71        -0.5320    3.2290   -1.1380 o         1 GA3     -0.833300
      2 C7          0.1240    2.5460   -0.3060 c         1 GA3      0.916600
      3 O72         0.7660    3.0340    0.6680 o         1 GA3     -0.833300
      4 C6          0.1560    1.0070   -0.5160 c3        1 GA3     -0.169700
      5 C5          1.3090    0.3780    0.2490 c3        1 GA3     -0.080700
      6 C8         -1.1130    0.2940   -0.0290 c3        1 GA3     -0.015000
      7 C15        -2.1320    1.1900    0.7070 c3        1 GA3     -0.054200
      8 C16        -3.4470    0.4890    0.5480 c2        1 GA3     -0.107400
      9 C17        -4.5930    0.8320    1.1280 c2        1 GA3     -0.259000
     10 C13        -3.2380   -0.6820   -0.4020 c3        1 GA3      0.170000
     11 C14        -1.9640   -0.2790   -1.1770 c3        1 GA3     -0.062400
     12 O13        -4.2970   -0.8960   -1.3160 oh        1 GA3     -0.585800
     13 C12        -2.9550   -1.9530    0.4180 c3        1 GA3     -0.092400
     14 C11        -1.4710   -2.1650    0.6560 c3        1 GA3     -0.063400
     15 C9         -0.6960   -0.8820    0.9050 c3        1 GA3     -0.041700
     16 C10         0.8050   -1.0270    0.7140 c3        1 GA3      0.152000
     17 O92         1.1070   -1.9240   -0.4090 os        1 GA3     -0.410900
     18 C1          1.6830   -1.4480    1.8520 c2        1 GA3     -0.149200
     19 C2          2.9870   -1.1410    1.7920 c2        1 GA3     -0.199200
     20 C3          3.6250   -0.4060    0.6380 c3        1 GA3      0.184300
     21 O31         4.3040    0.7430    1.1090 oh        1 GA3     -0.600800
     22 C4          2.5960   -0.0540   -0.4770 c3        1 GA3     -0.147000
     23 C18         3.1430    0.9240   -1.4760 c3        1 GA3     -0.072100
     24 C19         2.1730   -1.3810   -1.1030 c         1 GA3      0.722600
     25 O91         2.5910   -2.0320   -2.0540 o         1 GA3     -0.599500
     26 H6          0.2690    0.8280   -1.6180 hc        1 GA3      0.056700
     27 H5          1.5510    1.0440    1.1210 hc        1 GA3      0.118700
     28 H15        -1.8600    1.3460    1.7780 hc        1 GA3      0.088200
     29 H15A       -2.1720    2.1990    0.2090 hc        1 GA3      0.088200
     30 H17        -4.6680    1.6930    1.8030 ha        1 GA3      0.103000
     31 H17A       -5.5300    0.2860    0.9610 ha        1 GA3      0.103000
     32 H14        -2.1950    0.5110   -1.9320 hc        1 GA3      0.069200
     33 H14A       -1.4850   -1.1430   -1.6900 hc        1 GA3      0.069200
     34 HO13       -5.1090   -0.9180   -0.7970 ho        1 GA3      0.390000
     35 H12        -3.4960   -1.8890    1.3970 hc        1 GA3      0.036700
     36 H12A       -3.3650   -2.8360   -0.1380 hc        1 GA3      0.036700
     37 H11        -1.3360   -2.8440    1.5390 hc        1 GA3      0.045200
     38 H11A       -1.0320   -2.6960   -0.2320 hc        1 GA3      0.045200
     39 H9         -0.8590   -0.5670    1.9740 hc        1 GA3      0.056700
     40 H1          1.2230   -1.9880    2.6870 ha        1 GA3      0.129000
     41 H2          3.6850   -1.3950    2.6040 ha        1 GA3      0.128000
     42 H3          4.4430   -1.0460    0.1950 h1        1 GA3      0.075700
     43 HO31        3.6360    1.4100    1.3240 ho        1 GA3      0.426000
     44 H18         3.4350    1.8710   -0.9580 hc        1 GA3      0.054367
     45 H18A        4.0390    0.4920   -1.9850 hc        1 GA3      0.054367
     46 H18B        2.3690    1.1680   -2.2450 hc        1 GA3      0.054367
@<TRIPOS>BOND
     1    1    2 1   
     2    2    3 1   
     3    2    4 1   
     4    4    5 1   
     5    4    6 1   
     6    4   26 1   
     7    5   16 1   
     8    5   22 1   
     9    5   27 1   
    10    6    7 1   
    11    6   11 1   
    12    6   15 1   
    13    7    8 1   
    14    7   28 1   
    15    7   29 1   
    16    8    9 2   
    17    8   10 1   
    18    9   30 1   
    19    9   31 1   
    20   10   11 1   
    21   10   12 1   
    22   10   13 1   
    23   11   32 1   
    24   11   33 1   
    25   12   34 1   
    26   13   14 1   
    27   13   35 1   
    28   13   36 1   
    29   14   15 1   
    30   14   37 1   
    31   14   38 1   
    32   15   16 1   
    33   15   39 1   
    34   16   17 1   
    35   16   18 1   
    36   17   24 1   
    37   18   19 2   
    38   18   40 1   
    39   19   20 1   
    40   19   41 1   
    41   20   21 1   
    42   20   22 1   
    43   20   42 1   
    44   21   43 1   
    45   22   23 1   
    46   22   24 1   
    47   23   44 1   
    48   23   45 1   
    49   23   46 1   
    50   24   25 2   
@<TRIPOS>SUBSTRUCTURE
     1 GA3         1 TEMP              0 ****  ****    0 ROOT
