@<TRIPOS>MOLECULE
GA3
   46    48     1     0     0
SMALL
bcc


@<TRIPOS>ATOM
      1 O71        -1.1700   -0.6860   -2.7620 o         1 GA3     -0.567500
      2 C7         -1.7930   -0.6100   -1.6710 c2        1 GA3      0.337000
      3 O72        -3.0480   -0.5150   -1.6690 o         1 GA3     -0.567500
      4 C6         -1.0990   -0.5920   -0.4800 c3        1 GA3     -0.160000
      5 C5          0.2240   -1.4490   -0.6190 c3        1 GA3     -0.119000
      6 C8         -0.5220    0.8240   -0.2320 c3        1 GA3     -0.009000
      7 C15        -1.0360    1.8760   -1.1820 c3        1 GA3     -0.137000
      8 C16        -1.0850    3.0930   -0.1970 c2        1 GA3     -0.083000
      9 C17        -2.0480    4.0240   -0.3240 c1        1 GA3     -0.233000
     10 C13        -0.6670    2.5570    1.2720 c3        1 GA3      0.096000
     11 C14        -1.0070    1.4290    1.1260 c3        1 GA3     -0.184000
     12 O13        -1.3920    3.2030    2.2890 oh        1 GA3     -0.320000
     13 C12         0.9090    2.7930    1.4010 c3        1 GA3     -0.167000
     14 C11         1.8220    1.7540    0.5250 c3        1 GA3     -0.145000
     15 C9          0.9730    0.7440   -0.4130 c3        1 GA3     -0.081000
     16 C10         1.3220   -0.6150   -0.1360 c3        1 GA3      0.076000
     17 O92         1.4100   -0.8640    1.3180 os        1 GA3     -0.251000
     18 C1          2.4190   -1.0150   -0.7270 c2        1 GA3     -0.144000
     19 C2          2.5860   -2.4750   -0.9110 c1        1 GA3     -0.195000
     20 C3          1.3050   -3.4980   -0.3570 c2        1 GA3      0.069000
     21 O31         0.8480   -4.1850   -1.3140 oh        1 GA3     -0.327000
     22 C4          0.2240   -2.5720    0.1900 c3        1 GA3     -0.097000
     23 C18        -1.1310   -3.2420    0.2170 c3        1 GA3     -0.190000
     24 C19         0.6410   -2.0980    1.5520 c2        1 GA3      0.307000
     25 O91        -0.1380   -2.1610    2.4810 o         1 GA3     -0.325000
     26 H6         -1.7810   -0.9150    0.1400 hc        1 GA3      0.094000
     27 H5          0.3720   -1.7010   -1.5530 hc        1 GA3      0.158000
     28 H15        -1.9270    1.6510   -1.5140 hc        1 GA3      0.125000
     29 H15A       -0.4060    2.0340   -1.9130 hc        1 GA3      0.125000
     30 H17        -2.7170    3.9400   -1.0320 DU        1 GA3      0.107000
     31 H17A       -2.0780    4.7830    0.2900 ha        1 GA3      0.110000
     32 H14        -0.6420    0.8920    1.8610 hc        1 GA3      0.102500
     33 H14A       -1.9860    1.3870    1.1590 hc        1 GA3      0.102500
     34 HO13       -0.8370    3.6890    2.7850 ho        1 GA3      0.194000
     35 H12         1.1580    2.7060    2.3430 hc        1 GA3      0.077500
     36 H12A        1.1100    3.7050    1.1090 hc        1 GA3      0.077500
     37 H11         2.3640    1.2230    1.1410 hc        1 GA3      0.082500
     38 H11A        2.4220    2.2760   -0.0460 hc        1 GA3      0.082500
     39 H9          1.1850    0.9370   -1.3480 hc        1 GA3      0.098000
     40 H1          3.1980   -0.4250   -0.7620 ha        1 GA3      0.130000
     41 H2          3.2400   -2.8150   -1.5520 ha        1 GA3      0.128000
     42 H3          1.6300   -4.0870    0.3520 h4        1 GA3      0.115000
     43 HO31        1.4190   -4.8370   -1.5100 ho        1 GA3      0.225000
     44 H18        -1.7110   -2.7800    0.8590 hc        1 GA3      0.094000
     45 H18A       -1.5330   -3.2030   -0.6760 hc        1 GA3      0.094000
     46 H18B       -1.0260   -4.1790    0.4870 hc        1 GA3      0.094000
@<TRIPOS>BOND
     1    1    2 1   
     2    2    3 1   
     3    2    4 1   
     4    4    5 1   
     5    4    6 1   
     6    4   26 1   
     7    5   16 1   
     8    5   22 1   
     9    5   27 1   
    10    6    7 1   
    11    6   11 1   
    12    6   15 1   
    13    7    8 1   
    14    7   28 1   
    15    7   29 1   
    16    8    9 1   
    17    8   10 1   
    18    9   31 1   
    19   10   11 1   
    20   10   12 1   
    21   10   13 1   
    22   11   32 1   
    23   11   33 1   
    24   12   34 1   
    25   13   14 1   
    26   13   35 1   
    27   13   36 1   
    28   14   15 1   
    29   14   37 1   
    30   14   38 1   
    31   15   16 1   
    32   15   39 1   
    33   16   17 1   
    34   16   18 1   
    35   17   24 1   
    36   18   19 1   
    37   18   40 1   
    38   19   41 1   
    39   20   21 1   
    40   20   22 1   
    41   20   42 1   
    42   21   43 1   
    43   22   23 1   
    44   22   24 1   
    45   23   44 1   
    46   23   45 1   
    47   23   46 1   
    48   24   25 1   
@<TRIPOS>SUBSTRUCTURE
     1 GA3         1 TEMP              0 ****  ****    0 ROOT
