@<TRIPOS>MOLECULE
GA3
   46    50     1     0     0
SMALL
bcc


@<TRIPOS>ATOM
      1 O71        -0.0480    0.1660    0.4480 o         1 GA3     -0.832800
      2 C7          1.1640   -0.1420    0.2820 c         1 GA3      0.917600
      3 O72         1.6510   -0.5650   -0.8050 o         1 GA3     -0.832800
      4 C6          2.1040   -0.0100    1.5120 c3        1 GA3     -0.170700
      5 C5          3.3710   -0.8270    1.3210 c3        1 GA3     -0.079700
      6 C8          2.5640    1.4270    1.7860 c3        1 GA3     -0.009000
      7 C15         2.1550    2.4730    0.7270 c3        1 GA3     -0.054200
      8 C16         2.1450    3.7840    1.4570 c2        1 GA3     -0.091400
      9 C17         1.9450    4.9850    0.9260 c2        1 GA3     -0.233000
     10 C13         2.3890    3.4970    2.9290 c3        1 GA3      0.172000
     11 C14         1.9540    2.0200    3.0680 c3        1 GA3     -0.105400
     12 O13         1.6480    4.3970    3.7370 oh        1 GA3     -0.592800
     13 C12         3.8910    3.6080    3.2400 c3        1 GA3     -0.088400
     14 C11         4.6140    2.2810    3.0950 c3        1 GA3     -0.066400
     15 C9          4.1160    1.4310    1.9390 c3        1 GA3     -0.041700
     16 C10         4.5080   -0.0340    2.0430 c3        1 GA3      0.152000
     17 O92         4.4560   -0.4930    3.4380 os        1 GA3     -0.412900
     18 C1          5.8060   -0.5200    1.4760 c2        1 GA3     -0.148200
     19 C2          5.9200   -1.8230    1.1840 c2        1 GA3     -0.199200
     20 C3          4.8200   -2.8340    1.4060 c3        1 GA3      0.184300
     21 O31         4.5370   -3.5170    0.2000 oh        1 GA3     -0.599800
     22 C4          3.5420   -2.1880    2.0200 c3        1 GA3     -0.147000
     23 C18         2.3540   -3.1040    1.9680 c3        1 GA3     -0.072100
     24 C19         3.9140   -1.7650    3.4390 c         1 GA3      0.722600
     25 O91         3.8370   -2.3220    4.5290 o         1 GA3     -0.600500
     26 H6          1.5300   -0.3800    2.4030 hc        1 GA3      0.054700
     27 H5          3.5610   -0.9210    0.2170 hc        1 GA3      0.118700
     28 H15         1.1230    2.2370    0.3460 hc        1 GA3      0.085700
     29 H15A        2.8500    2.4800   -0.1460 hc        1 GA3      0.085700
     30 H17         1.9210    5.8940    1.5400 ha        1 GA3      0.108500
     31 H17A        1.7720    5.1270   -0.1480 ha        1 GA3      0.108500
     32 H14         2.3390    1.5400    3.9960 hc        1 GA3      0.063200
     33 H14A        0.8400    1.9320    3.0460 hc        1 GA3      0.063200
     34 HO13        1.5090    3.9490    4.5800 ho        1 GA3      0.395000
     35 H12         4.3460    4.3710    2.5570 hc        1 GA3      0.038200
     36 H12A        4.0180    3.9840    4.2880 hc        1 GA3      0.038200
     37 H11         4.5120    1.7020    4.0530 hc        1 GA3      0.043200
     38 H11A        5.7100    2.4770    2.9530 hc        1 GA3      0.043200
     39 H9          4.5700    1.8230    0.9860 hc        1 GA3      0.058700
     40 H1          6.6080    0.2110    1.3210 ha        1 GA3      0.130000
     41 H2          6.8340   -2.2450    0.7400 ha        1 GA3      0.128000
     42 H3          5.1920   -3.6440    2.0990 h1        1 GA3      0.075700
     43 HO31        4.0370   -2.9130   -0.3680 ho        1 GA3      0.426000
     44 H18         2.5600   -4.0330    2.5520 hc        1 GA3      0.054700
     45 H18A        1.4540   -2.5970    2.3920 hc        1 GA3      0.054700
     46 H18B        2.1350   -3.3790    0.9060 hc        1 GA3      0.054700
@<TRIPOS>BOND
     1    1    2 1   
     2    2    3 1   
     3    2    4 1   
     4    4    5 1   
     5    4    6 1   
     6    4   26 1   
     7    5   16 1   
     8    5   22 1   
     9    5   27 1   
    10    6    7 1   
    11    6   11 1   
    12    6   15 1   
    13    7    8 1   
    14    7   28 1   
    15    7   29 1   
    16    8    9 2   
    17    8   10 1   
    18    9   30 1   
    19    9   31 1   
    20   10   11 1   
    21   10   12 1   
    22   10   13 1   
    23   11   32 1   
    24   11   33 1   
    25   12   34 1   
    26   13   14 1   
    27   13   35 1   
    28   13   36 1   
    29   14   15 1   
    30   14   37 1   
    31   14   38 1   
    32   15   16 1   
    33   15   39 1   
    34   16   17 1   
    35   16   18 1   
    36   17   24 1   
    37   18   19 2   
    38   18   40 1   
    39   19   20 1   
    40   19   41 1   
    41   20   21 1   
    42   20   22 1   
    43   20   42 1   
    44   21   43 1   
    45   22   23 1   
    46   22   24 1   
    47   23   44 1   
    48   23   45 1   
    49   23   46 1   
    50   24   25 2   
@<TRIPOS>SUBSTRUCTURE
     1 GA3         1 TEMP              0 ****  ****    0 ROOT
