@<TRIPOS>MOLECULE
GA3
   46    50     1     0     0
SMALL
bcc


@<TRIPOS>ATOM
      1 O71        -0.0430    0.1820    0.4180 o         1 GA3     -0.833300
      2 C7          1.1690   -0.1300    0.2640 c         1 GA3      0.916600
      3 O72         1.6670   -0.5360   -0.8250 o         1 GA3     -0.833300
      4 C6          2.0950   -0.0250    1.5080 c3        1 GA3     -0.169700
      5 C5          3.3640   -0.8370    1.3100 c3        1 GA3     -0.080700
      6 C8          2.5520    1.4070    1.8130 c3        1 GA3     -0.015000
      7 C15         2.1420    2.4680    0.7700 c3        1 GA3     -0.054200
      8 C16         2.1460    3.7670    1.5180 c2        1 GA3     -0.107400
      9 C17         1.9760    4.9760    0.9910 c2        1 GA3     -0.259000
     10 C13         2.3740    3.4550    2.9900 c3        1 GA3      0.170000
     11 C14         1.9380    1.9770    3.1050 c3        1 GA3     -0.062400
     12 O13         1.6100    4.2410    3.8850 oh        1 GA3     -0.585800
     13 C12         3.8760    3.5680    3.3040 c3        1 GA3     -0.092400
     14 C11         4.6000    2.2440    3.1370 c3        1 GA3     -0.063400
     15 C9          4.1040    1.4130    1.9660 c3        1 GA3     -0.041700
     16 C10         4.4990   -0.0530    2.0470 c3        1 GA3      0.152000
     17 O92         4.4490   -0.5360    3.4330 os        1 GA3     -0.410900
     18 C1          5.7980   -0.5270    1.4710 c2        1 GA3     -0.149200
     19 C2          5.9150   -1.8250    1.1570 c2        1 GA3     -0.199200
     20 C3          4.8170   -2.8410    1.3620 c3        1 GA3      0.184300
     21 O31         4.5350   -3.5050    0.1440 oh        1 GA3     -0.600800
     22 C4          3.5380   -2.2090    1.9870 c3        1 GA3     -0.147000
     23 C18         2.3510   -3.1260    1.9200 c3        1 GA3     -0.072100
     24 C19         3.9100   -1.8100    3.4130 c         1 GA3      0.722600
     25 O91         3.8390   -2.3870    4.4920 o         1 GA3     -0.599500
     26 H6          1.5120   -0.4110    2.3850 hc        1 GA3      0.056700
     27 H5          3.5590   -0.9130    0.2050 hc        1 GA3      0.118700
     28 H15         1.1050    2.2440    0.3950 hc        1 GA3      0.088200
     29 H15A        2.8290    2.4830   -0.1100 hc        1 GA3      0.088200
     30 H17         1.8150    5.1240   -0.0840 ha        1 GA3      0.103000
     31 H17A        1.9750    5.8920    1.5940 ha        1 GA3      0.103000
     32 H14         0.8240    1.8930    3.0850 hc        1 GA3      0.069200
     33 H14A        2.3230    1.4880    4.0270 hc        1 GA3      0.069200
     34 HO13        1.7430    5.1610    3.6270 ho        1 GA3      0.390000
     35 H12         3.9950    3.9180    4.3630 hc        1 GA3      0.036700
     36 H12A        4.3350    4.3430    2.6390 hc        1 GA3      0.036700
     37 H11         4.4940    1.6490    4.0850 hc        1 GA3      0.045200
     38 H11A        5.6960    2.4420    3.0000 hc        1 GA3      0.045200
     39 H9          4.5570    1.8210    1.0200 hc        1 GA3      0.056700
     40 H1          6.5990    0.2080    1.3290 ha        1 GA3      0.129000
     41 H2          6.8290   -2.2370    0.7060 ha        1 GA3      0.128000
     42 H3          5.1900   -3.6630    2.0410 h1        1 GA3      0.075700
     43 HO31        4.0320   -2.8920   -0.4130 ho        1 GA3      0.426000
     44 H18         1.4510   -2.6280    2.3560 hc        1 GA3      0.054367
     45 H18A        2.1310   -3.3820    0.8550 hc        1 GA3      0.054367
     46 H18B        2.5590   -4.0650    2.4880 hc        1 GA3      0.054367
@<TRIPOS>BOND
     1    1    2 1   
     2    2    3 1   
     3    2    4 1   
     4    4    5 1   
     5    4    6 1   
     6    4   26 1   
     7    5   16 1   
     8    5   22 1   
     9    5   27 1   
    10    6    7 1   
    11    6   11 1   
    12    6   15 1   
    13    7    8 1   
    14    7   28 1   
    15    7   29 1   
    16    8    9 2   
    17    8   10 1   
    18    9   30 1   
    19    9   31 1   
    20   10   11 1   
    21   10   12 1   
    22   10   13 1   
    23   11   32 1   
    24   11   33 1   
    25   12   34 1   
    26   13   14 1   
    27   13   35 1   
    28   13   36 1   
    29   14   15 1   
    30   14   37 1   
    31   14   38 1   
    32   15   16 1   
    33   15   39 1   
    34   16   17 1   
    35   16   18 1   
    36   17   24 1   
    37   18   19 2   
    38   18   40 1   
    39   19   20 1   
    40   19   41 1   
    41   20   21 1   
    42   20   22 1   
    43   20   42 1   
    44   21   43 1   
    45   22   23 1   
    46   22   24 1   
    47   23   44 1   
    48   23   45 1   
    49   23   46 1   
    50   24   25 2   
@<TRIPOS>SUBSTRUCTURE
     1 GA3         1 TEMP              0 ****  ****    0 ROOT
