@<TRIPOS>MOLECULE
GA4
   47    51     1     0     0
SMALL
bcc


@<TRIPOS>ATOM
      1 C1         -0.1780   -0.1720    0.0440 c3        1 GA4     -0.080400
      2 C2          1.2560   -0.6730    0.1360 c3        1 GA4     -0.114400
      3 C3          2.0070   -0.4300    1.4570 c3        1 GA4      0.156100
      4 O31         1.8930   -1.5450    2.3190 oh        1 GA4     -0.607800
      5 C4          1.5940    0.9030    2.1360 c3        1 GA4     -0.145000
      6 C5          0.0640    0.8720    2.2880 c3        1 GA4     -0.083700
      7 C6         -0.6400    1.9330    3.1220 c3        1 GA4     -0.170700
      8 C7         -1.0610    1.3640    4.5040 c         1 GA4      0.916600
      9 O71        -1.1800    0.1120    4.6300 o         1 GA4     -0.834800
     10 O72        -1.2460    2.1930    5.4370 o         1 GA4     -0.834800
     11 C8         -1.8240    2.4210    2.2800 c3        1 GA4     -0.015000
     12 C9         -1.7350    1.7640    0.8710 c3        1 GA4     -0.043700
     13 C10        -0.3490    1.1310    0.8100 c3        1 GA4      0.129800
     14 C11        -2.0200    2.7250   -0.2710 c3        1 GA4     -0.065400
     15 C12        -3.1730    3.6790   -0.0040 c3        1 GA4     -0.061400
     16 C13        -3.2390    4.1340    1.4520 c3        1 GA4     -0.040500
     17 C14        -1.8530    3.9500    2.0940 c3        1 GA4     -0.075400
     18 C15        -3.2220    2.1510    2.8770 c3        1 GA4     -0.053200
     19 C16        -4.1080    3.1850    2.2470 c2        1 GA4     -0.083400
     20 C17        -5.4290    3.2710    2.3730 c2        1 GA4     -0.265000
     21 C18         2.3760    1.1590    3.3920 c3        1 GA4     -0.077100
     22 C19         1.7770    1.9780    1.0660 c         1 GA4      0.724600
     23 O91         2.7130    2.7090    0.7600 o         1 GA4     -0.605500
     24 O92         0.6350    2.0870    0.2960 os        1 GA4     -0.414900
     25 H11        -0.4490   -0.0230   -1.0320 hc        1 GA4      0.049200
     26 H12        -0.8820   -0.9290    0.4760 hc        1 GA4      0.049200
     27 H21         1.8510   -0.1680   -0.6720 hc        1 GA4      0.048700
     28 H22         1.2680   -1.7760   -0.0660 hc        1 GA4      0.048700
     29 H3          3.1130   -0.3870    1.2320 h1        1 GA4      0.065700
     30 HO3         1.0620   -1.4730    2.8090 ho        1 GA4      0.426000
     31 H5         -0.2960   -0.1310    2.6460 hc        1 GA4      0.114700
     32 H6          0.0440    2.8010    3.3150 hc        1 GA4      0.054700
     33 H9         -2.4790    0.9210    0.8200 hc        1 GA4      0.054700
     34 H111       -2.2430    2.1290   -1.1950 hc        1 GA4      0.041700
     35 H112       -1.0960    3.3260   -0.4880 hc        1 GA4      0.041700
     36 H121       -3.0520    4.5770   -0.6650 hc        1 GA4      0.028200
     37 H122       -4.1430    3.1910   -0.2830 hc        1 GA4      0.028200
     38 H13        -3.6050    5.1870    1.5210 hc        1 GA4      0.046700
     39 H141       -1.7990    4.4590    3.0880 hc        1 GA4      0.056700
     40 H142       -1.0240    4.3240    1.4530 hc        1 GA4      0.056700
     41 H151       -3.5720    1.1110    2.6770 hc        1 GA4      0.083700
     42 H152       -3.1890    2.2960    3.9920 hc        1 GA4      0.083700
     43 H171       -6.0150    4.0650    1.8970 ha        1 GA4      0.101500
     44 H172       -6.0050    2.5530    2.9700 ha        1 GA4      0.101500
     45 H181        2.3550    0.2450    4.0370 hc        1 GA4      0.054367
     46 H182        3.4360    1.4070    3.1410 hc        1 GA4      0.054367
     47 H183        1.9290    2.0060    3.9680 hc        1 GA4      0.054367
@<TRIPOS>BOND
     1    1    2 1   
     2    1   13 1   
     3    1   25 1   
     4    1   26 1   
     5    2    3 1   
     6    2   27 1   
     7    2   28 1   
     8    3    4 1   
     9    3    5 1   
    10    3   29 1   
    11    4   30 1   
    12    5    6 1   
    13    5   21 1   
    14    5   22 1   
    15    6    7 1   
    16    6   13 1   
    17    6   31 1   
    18    7    8 1   
    19    7   11 1   
    20    7   32 1   
    21    8    9 1   
    22    8   10 1   
    23   11   12 1   
    24   11   17 1   
    25   11   18 1   
    26   12   13 1   
    27   12   14 1   
    28   12   33 1   
    29   13   24 1   
    30   14   15 1   
    31   14   34 1   
    32   14   35 1   
    33   15   16 1   
    34   15   36 1   
    35   15   37 1   
    36   16   17 1   
    37   16   19 1   
    38   16   38 1   
    39   17   39 1   
    40   17   40 1   
    41   18   19 1   
    42   18   41 1   
    43   18   42 1   
    44   19   20 2   
    45   20   43 1   
    46   20   44 1   
    47   21   45 1   
    48   21   46 1   
    49   21   47 1   
    50   22   23 2   
    51   22   24 1   
@<TRIPOS>SUBSTRUCTURE
     1 GA4         1 TEMP              0 ****  ****    0 ROOT
