@<TRIPOS>MOLECULE
GA4
   47    50     1     0     0
SMALL
bcc


@<TRIPOS>ATOM
      1 C1          1.1140    0.2920   -2.3960 c3        1 GA4     -0.159000
      2 C2          2.7870    0.2920   -2.3960 c3        1 GA4     -0.193000
      3 C3          3.4870    0.2920   -0.8020 c3        1 GA4      0.045000
      4 O31         4.2480   -0.7170   -0.6910 oh        1 GA4     -0.335000
      5 C4          2.4070    0.2510    0.3710 c3        1 GA4     -0.095000
      6 C5          1.1670   -0.3690    0.0050 c3        1 GA4     -0.123000
      7 C6          0.0590   -0.5410    1.3170 c3        1 GA4     -0.160000
      8 C7          0.0380   -1.9290    1.7690 c2        1 GA4      0.336000
      9 O71         0.1490   -2.8640    0.9340 o         1 GA4     -0.569500
     10 O72        -0.0380   -2.1890    3.0020 o         1 GA4     -0.569500
     11 C8         -1.1020   -0.1140    0.7270 c3        1 GA4     -0.015000
     12 C9         -0.8510   -0.0810   -0.8130 c3        1 GA4     -0.083000
     13 C10         0.4910    0.3250   -0.9350 c3        1 GA4      0.058000
     14 C11        -1.8200    0.7980   -1.6120 c3        1 GA4     -0.144000
     15 C12        -2.8560    1.1420   -0.9490 c3        1 GA4     -0.140000
     16 C13        -2.7920    0.7720    0.4290 c3        1 GA4     -0.084000
     17 C14        -1.2970    0.3290    0.9570 c3        1 GA4     -0.154000
     18 C15        -2.4550   -1.2010    0.9080 c3        1 GA4     -0.136000
     19 C16        -3.3750   -0.3900    0.6090 c2        1 GA4     -0.075000
     20 C17        -4.5830   -0.4580    1.2510 c1        1 GA4     -0.265000
     21 C18         3.0260   -0.3760    1.7710 c3        1 GA4     -0.195000
     22 C19         1.9700    1.5610    0.5330 c2        1 GA4      0.309000
     23 O91         2.7800    2.4590    0.6960 o         1 GA4     -0.330000
     24 O92         0.6970    1.8040   -0.3570 os        1 GA4     -0.253000
     25 H11         0.8000   -0.5130   -2.8520 hc        1 GA4      0.088500
     26 H12         0.8000    1.0740   -2.8890 hc        1 GA4      0.088500
     27 H21         3.0980   -0.5010   -2.8730 hc        1 GA4      0.088000
     28 H22         3.0980    1.0850   -2.8730 hc        1 GA4      0.088000
     29 H3          4.0250    1.1000   -0.6990 h1        1 GA4      0.105000
     30 HO3         5.0520   -0.5170   -1.0090 ho        1 GA4      0.225000
     31 H5          1.3620   -1.2570   -0.3500 hc        1 GA4      0.154000
     32 H6          0.2400   -0.0640    2.1490 hc        1 GA4      0.094000
     33 H9         -0.9240   -0.9940   -1.1510 hc        1 GA4      0.094000
     34 H111       -2.1050    0.3070   -2.4060 hc        1 GA4      0.081000
     35 H112       -1.3480    1.6050   -1.8950 hc        1 GA4      0.081000
     36 H121       -3.6380    0.7180   -1.3510 hc        1 GA4      0.067500
     37 H122       -2.9580    2.1100   -1.0090 hc        1 GA4      0.067500
     38 H13        -3.1840    1.4570    1.0040 hc        1 GA4      0.086000
     39 H141       -0.6790    1.0650    0.7840 hc        1 GA4      0.096000
     40 H142       -1.3420    0.1830    1.9210 hc        1 GA4      0.096000
     41 H151       -2.4080   -1.9400    0.2720 hc        1 GA4      0.123000
     42 H152       -2.5400   -1.5170    1.8280 hc        1 GA4      0.123000
     43 H171       -5.2950    0.1690    1.0190 DU        1 GA4      0.095000
     44 H172       -4.7460   -1.1580    1.9110 ha        1 GA4      0.108000
     45 H181        3.9400   -0.0580    1.8940 hc        1 GA4      0.093667
     46 H182        2.4770   -0.0910    2.5260 hc        1 GA4      0.093667
     47 H183        3.0260   -1.3510    1.7190 hc        1 GA4      0.093667
@<TRIPOS>BOND
     1    1    2 1   
     2    1   13 1   
     3    1   25 1   
     4    1   26 1   
     5    2    3 1   
     6    2   27 1   
     7    2   28 1   
     8    3    4 1   
     9    3    5 1   
    10    3   29 1   
    11    4   30 1   
    12    5    6 1   
    13    5   21 1   
    14    5   22 1   
    15    6    7 1   
    16    6   13 1   
    17    6   31 1   
    18    7    8 1   
    19    7   11 1   
    20    7   32 1   
    21    8    9 1   
    22    8   10 1   
    23   11   12 1   
    24   11   17 1   
    25   11   18 1   
    26   12   13 1   
    27   12   14 1   
    28   12   33 1   
    29   13   24 1   
    30   14   15 1   
    31   14   34 1   
    32   14   35 1   
    33   15   16 1   
    34   15   36 1   
    35   15   37 1   
    36   16   17 1   
    37   16   19 1   
    38   16   38 1   
    39   17   39 1   
    40   17   40 1   
    41   18   19 1   
    42   18   41 1   
    43   18   42 1   
    44   19   20 1   
    45   20   44 1   
    46   21   45 1   
    47   21   46 1   
    48   21   47 1   
    49   22   23 1   
    50   22   24 1   
@<TRIPOS>SUBSTRUCTURE
     1 GA4         1 TEMP              0 ****  ****    0 ROOT
