@<TRIPOS>MOLECULE
GA4
   47    51     1     0     0
SMALL
bcc


@<TRIPOS>ATOM
      1 C1         -0.1440   -0.1390    0.0280 c3        1 GA4     -0.080400
      2 C2          1.2890   -0.6400    0.1380 c3        1 GA4     -0.114400
      3 C3          2.0130   -0.4220    1.4780 c3        1 GA4      0.156100
      4 O31         1.8830   -1.5520    2.3160 oh        1 GA4     -0.607800
      5 C4          1.5850    0.8980    2.1730 c3        1 GA4     -0.145000
      6 C5          0.0520    0.8630    2.2950 c3        1 GA4     -0.083700
      7 C6         -0.6700    1.9070    3.1340 c3        1 GA4     -0.170700
      8 C7         -1.1170    1.3120    4.4970 c         1 GA4      0.916600
      9 O71        -1.2370    0.0570    4.5970 o         1 GA4     -0.834800
     10 O72        -1.3220    2.1230    5.4420 o         1 GA4     -0.834800
     11 C8         -1.8370    2.4100    2.2780 c3        1 GA4     -0.015000
     12 C9         -1.7190    1.7790    0.8600 c3        1 GA4     -0.043700
     13 C10        -0.3320    1.1490    0.8140 c3        1 GA4      0.129800
     14 C11        -1.9830    2.7610   -0.2700 c3        1 GA4     -0.065400
     15 C12        -3.1430    3.7090   -0.0080 c3        1 GA4     -0.061400
     16 C13        -3.2390    4.1370    1.4550 c3        1 GA4     -0.040500
     17 C14        -1.8660    3.9420    2.1210 c3        1 GA4     -0.075400
     18 C15        -3.2470    2.1270    2.8430 c3        1 GA4     -0.053200
     19 C16        -4.1210    3.1720    2.2140 c2        1 GA4     -0.083400
     20 C17        -5.4450    3.2530    2.3160 c2        1 GA4     -0.265000
     21 C18         2.3410    1.1310    3.4500 c3        1 GA4     -0.077100
     22 C19         1.7870    1.9930    1.1280 c         1 GA4      0.724600
     23 O91         2.7280    2.7310    0.8540 o         1 GA4     -0.605500
     24 O92         0.6600    2.1160    0.3370 os        1 GA4     -0.414900
     25 H11        -0.3930    0.0300   -1.0510 hc        1 GA4      0.049200
     26 H12        -0.8550   -0.9050    0.4310 hc        1 GA4      0.049200
     27 H21         1.3070   -1.7390   -0.0850 hc        1 GA4      0.048700
     28 H22         1.8990   -0.1190   -0.6480 hc        1 GA4      0.048700
     29 H3          3.1240   -0.3730    1.2760 h1        1 GA4      0.065700
     30 HO3         1.0430   -1.4910    2.7910 ho        1 GA4      0.426000
     31 H5         -0.3130   -0.1460    2.6270 hc        1 GA4      0.114700
     32 H6          0.0090    2.7730    3.3570 hc        1 GA4      0.054700
     33 H9         -2.4620    0.9370    0.7780 hc        1 GA4      0.054700
     34 H111       -1.0560    3.3680   -0.4570 hc        1 GA4      0.041700
     35 H112       -2.1870    2.1830   -1.2090 hc        1 GA4      0.041700
     36 H121       -4.1060    3.2250   -0.3150 hc        1 GA4      0.028200
     37 H122       -3.0100    4.6190   -0.6500 hc        1 GA4      0.028200
     38 H13        -3.6070    5.1870    1.5360 hc        1 GA4      0.046700
     39 H141       -1.0240    4.3290    1.5030 hc        1 GA4      0.056700
     40 H142       -1.8320    4.4320    3.1250 hc        1 GA4      0.056700
     41 H151       -3.5920    1.0900    2.6160 hc        1 GA4      0.083700
     42 H152       -3.2360    2.2510    3.9610 hc        1 GA4      0.083700
     43 H171       -6.0220    4.0560    1.8430 ha        1 GA4      0.101500
     44 H172       -6.0310    2.5240    2.8870 ha        1 GA4      0.101500
     45 H181        1.8820    1.9680    4.0320 hc        1 GA4      0.054367
     46 H182        2.3090    0.2060    4.0770 hc        1 GA4      0.054367
     47 H183        3.4050    1.3850    3.2250 hc        1 GA4      0.054367
@<TRIPOS>BOND
     1    1    2 1   
     2    1   13 1   
     3    1   25 1   
     4    1   26 1   
     5    2    3 1   
     6    2   27 1   
     7    2   28 1   
     8    3    4 1   
     9    3    5 1   
    10    3   29 1   
    11    4   30 1   
    12    5    6 1   
    13    5   21 1   
    14    5   22 1   
    15    6    7 1   
    16    6   13 1   
    17    6   31 1   
    18    7    8 1   
    19    7   11 1   
    20    7   32 1   
    21    8    9 1   
    22    8   10 1   
    23   11   12 1   
    24   11   17 1   
    25   11   18 1   
    26   12   13 1   
    27   12   14 1   
    28   12   33 1   
    29   13   24 1   
    30   14   15 1   
    31   14   34 1   
    32   14   35 1   
    33   15   16 1   
    34   15   36 1   
    35   15   37 1   
    36   16   17 1   
    37   16   19 1   
    38   16   38 1   
    39   17   39 1   
    40   17   40 1   
    41   18   19 1   
    42   18   41 1   
    43   18   42 1   
    44   19   20 2   
    45   20   43 1   
    46   20   44 1   
    47   21   45 1   
    48   21   46 1   
    49   21   47 1   
    50   22   23 2   
    51   22   24 1   
@<TRIPOS>SUBSTRUCTURE
     1 GA4         1 TEMP              0 ****  ****    0 ROOT
