@<TRIPOS>MOLECULE
GA4
   47    51     1     0     0
SMALL
bcc


@<TRIPOS>ATOM
      1 C1         -1.1390    2.0300    1.3990 c3        1 GA4     -0.080400
      2 C2         -1.0730    1.8000    2.9020 c3        1 GA4     -0.114400
      3 C3         -0.0760    0.7460    3.4130 c3        1 GA4      0.156100
      4 O31         1.1570    1.3410    3.7660 oh        1 GA4     -0.607800
      5 C4          0.0860   -0.4420    2.4280 c3        1 GA4     -0.145000
      6 C5          0.4630    0.1570    1.0630 c3        1 GA4     -0.083700
      7 C6          0.9150   -0.7520   -0.0700 c3        1 GA4     -0.170700
      8 C7          2.4560   -0.6870   -0.2550 c         1 GA4      0.916600
      9 O71         3.0730    0.3260    0.1840 o         1 GA4     -0.834800
     10 O72         3.0110   -1.6650   -0.8250 o         1 GA4     -0.834800
     11 C8          0.1350   -0.3070   -1.3120 c3        1 GA4     -0.015000
     12 C9         -0.9060    0.7690   -0.8840 c3        1 GA4     -0.043700
     13 C10        -0.9210    0.7300    0.6400 c3        1 GA4      0.129800
     14 C11        -2.2750    0.5800   -1.5150 c3        1 GA4     -0.065400
     15 C12        -2.2310    0.1780   -2.9810 c3        1 GA4     -0.061400
     16 C13        -1.0730   -0.7640   -3.3010 c3        1 GA4     -0.040500
     17 C14        -0.6220   -1.4570   -2.0040 c3        1 GA4     -0.075400
     18 C15         0.9900    0.2480   -2.4720 c3        1 GA4     -0.053200
     19 C16         0.1460    0.0400   -3.6950 c2        1 GA4     -0.083400
     20 C17         0.4240    0.4690   -4.9230 c2        1 GA4     -0.265000
     21 C18         1.0150   -1.4930    2.9640 c3        1 GA4     -0.077100
     22 C19        -1.3300   -0.9480    2.1630 c         1 GA4      0.724600
     23 O91        -2.0310   -1.8040    2.6940 o         1 GA4     -0.605500
     24 O92        -1.9050   -0.2430    1.1230 os        1 GA4     -0.414900
     25 H11        -2.1360    2.4660    1.1350 hc        1 GA4      0.049200
     26 H12        -0.3480    2.7590    1.0830 hc        1 GA4      0.049200
     27 H21        -2.0920    1.4760    3.2460 hc        1 GA4      0.048700
     28 H22        -0.8320    2.7720    3.4070 hc        1 GA4      0.048700
     29 H3         -0.4620    0.3420    4.3960 h1        1 GA4      0.065700
     30 HO3         1.6980    1.4270    2.9690 ho        1 GA4      0.426000
     31 H5          1.2300    0.9720    1.1670 hc        1 GA4      0.114700
     32 H6          0.6530   -1.8200    0.1530 hc        1 GA4      0.054700
     33 H9         -0.5160    1.7830   -1.1790 hc        1 GA4      0.054700
     34 H111       -2.8420   -0.2020   -0.9420 hc        1 GA4      0.041700
     35 H112       -2.8530    1.5370   -1.4140 hc        1 GA4      0.041700
     36 H121       -3.1990   -0.3260   -3.2400 hc        1 GA4      0.028200
     37 H122       -2.1530    1.0930   -3.6240 hc        1 GA4      0.028200
     38 H13        -1.3640   -1.4920   -4.0960 hc        1 GA4      0.046700
     39 H141       -1.4730   -1.8410   -1.3980 hc        1 GA4      0.056700
     40 H142        0.0770   -2.3010   -2.2210 hc        1 GA4      0.056700
     41 H151        1.2620    1.3190   -2.3200 hc        1 GA4      0.083700
     42 H152        1.9430   -0.3430   -2.5530 hc        1 GA4      0.083700
     43 H171        1.3300    1.0440   -5.1480 ha        1 GA4      0.101500
     44 H172       -0.2310    0.2660   -5.7790 ha        1 GA4      0.101500
     45 H181        0.5340   -2.0330    3.8160 hc        1 GA4      0.054367
     46 H182        1.2760   -2.2310    2.1670 hc        1 GA4      0.054367
     47 H183        1.9590   -1.0110    3.3210 hc        1 GA4      0.054367
@<TRIPOS>BOND
     1    1    2 1   
     2    1   13 1   
     3    1   25 1   
     4    1   26 1   
     5    2    3 1   
     6    2   27 1   
     7    2   28 1   
     8    3    4 1   
     9    3    5 1   
    10    3   29 1   
    11    4   30 1   
    12    5    6 1   
    13    5   21 1   
    14    5   22 1   
    15    6    7 1   
    16    6   13 1   
    17    6   31 1   
    18    7    8 1   
    19    7   11 1   
    20    7   32 1   
    21    8    9 1   
    22    8   10 1   
    23   11   12 1   
    24   11   17 1   
    25   11   18 1   
    26   12   13 1   
    27   12   14 1   
    28   12   33 1   
    29   13   24 1   
    30   14   15 1   
    31   14   34 1   
    32   14   35 1   
    33   15   16 1   
    34   15   36 1   
    35   15   37 1   
    36   16   17 1   
    37   16   19 1   
    38   16   38 1   
    39   17   39 1   
    40   17   40 1   
    41   18   19 1   
    42   18   41 1   
    43   18   42 1   
    44   19   20 2   
    45   20   43 1   
    46   20   44 1   
    47   21   45 1   
    48   21   46 1   
    49   21   47 1   
    50   22   23 2   
    51   22   24 1   
@<TRIPOS>SUBSTRUCTURE
     1 GA4         1 TEMP              0 ****  ****    0 ROOT
