@<TRIPOS>MOLECULE
GA9
   44    48     1     0     0
SMALL
bcc


@<TRIPOS>ATOM
      1 C1          0.0270    0.2260   -0.1000 c         1 GA9      0.740200
      2 C2          1.4790    0.0320   -0.0760 ca        1 GA9     -0.160600
      3 C3          2.1650   -0.0280    1.1180 ca        1 GA9     -0.036000
      4 C4          3.5750   -0.1070    1.1200 ca        1 GA9     -0.144000
      5 C5          4.2720   -0.0950   -0.0700 ca        1 GA9      0.063400
      6 C6          3.5930   -0.0350   -1.3250 ca        1 GA9     -0.044000
      7 C7          4.2690    0.0080   -2.5740 ca        1 GA9     -0.094000
      8 C8          3.5580    0.0600   -3.7480 ca        1 GA9     -0.130000
      9 C9          2.1440    0.0370   -3.7370 ca        1 GA9     -0.089000
     10 C10         1.4530   -0.0210   -2.5450 ca        1 GA9     -0.113300
     11 C11         2.1750   -0.0120   -1.3170 ca        1 GA9      0.014000
     12 C12        -0.0530   -0.1500   -2.5130 c3        1 GA9      0.335700
     13 C13        -0.4860   -1.6030   -2.5990 ca        1 GA9     -0.144300
     14 C14         0.3060   -2.5700   -3.2150 ca        1 GA9     -0.042500
     15 C15        -0.1180   -3.9020   -3.2990 ca        1 GA9     -0.123900
     16 C16        -1.3600   -4.2610   -2.7470 ca        1 GA9      0.168600
     17 C17        -2.1640   -3.2860   -2.1220 ca        1 GA9     -0.163000
     18 C18        -1.7270   -1.9740   -2.0540 ca        1 GA9     -0.061500
     19 C19        -0.6830    0.6680   -3.6240 ca        1 GA9     -0.144300
     20 C20        -1.0010    2.0100   -3.4090 ca        1 GA9     -0.042500
     21 C21        -1.5690    2.7850   -4.4270 ca        1 GA9     -0.123900
     22 C22        -1.8220    2.1930   -5.6760 ca        1 GA9      0.168600
     23 C23        -1.5080    0.8370   -5.8950 ca        1 GA9     -0.163000
     24 C24        -0.9470    0.0870   -4.8730 ca        1 GA9     -0.061500
     25 O1         -0.6280    0.3940   -1.2980 os        1 GA9     -0.419900
     26 O2         -0.7280    0.3550    0.8650 o         1 GA9     -0.571500
     27 O4         -2.3690    2.8460   -6.7500 oh        1 GA9     -0.487100
     28 O3         -1.8820   -5.5270   -2.7640 oh        1 GA9     -0.487100
     29 BR1         0.9940   -5.1510   -4.1440 br        1 GA9     -0.081600
     30 BR2        -1.9710    4.5820   -4.0790 br        1 GA9     -0.081600
     31 CL3         5.9700   -0.1550   -0.0240 cl        1 GA9     -0.075400
     32 H3          1.6160   -0.0010    2.0750 ha        1 GA9      0.166000
     33 H4          4.1040   -0.1650    2.0850 ha        1 GA9      0.159000
     34 H7          5.3700    0.0030   -2.5900 ha        1 GA9      0.151000
     35 H8          4.0800    0.1120   -4.7160 ha        1 GA9      0.144000
     36 H9          1.6030    0.0590   -4.6970 ha        1 GA9      0.150000
     37 H14         1.2830   -2.2890   -3.6430 ha        1 GA9      0.160000
     38 H17        -3.1320   -3.5890   -1.6950 ha        1 GA9      0.160500
     39 H18        -2.3520   -1.2090   -1.5610 ha        1 GA9      0.158000
     40 H20        -0.8090    2.4580   -2.4180 ha        1 GA9      0.160000
     41 H23        -1.7200    0.3940   -6.8790 ha        1 GA9      0.160500
     42 H24        -0.7130   -0.9770   -5.0450 ha        1 GA9      0.158000
     43 HO4        -2.5680    3.7600   -6.4900 ho        1 GA9      0.433500
     44 HO3        -1.2500   -6.1200   -3.2020 ho        1 GA9      0.433500
@<TRIPOS>BOND
     1    1    2 1   
     2    1   25 1   
     3    1   26 2   
     4    2    3 ar  
     5    2   11 ar  
     6    3    4 ar  
     7    3   32 1   
     8    4    5 ar  
     9    4   33 1   
    10    5    6 ar  
    11    5   31 1   
    12    6    7 ar  
    13    6   11 ar  
    14    7    8 ar  
    15    7   34 1   
    16    8    9 ar  
    17    8   35 1   
    18    9   10 ar  
    19    9   36 1   
    20   10   11 ar  
    21   10   12 1   
    22   12   13 1   
    23   12   19 1   
    24   12   25 1   
    25   13   14 ar  
    26   13   18 ar  
    27   14   15 ar  
    28   14   37 1   
    29   15   16 ar  
    30   15   29 1   
    31   16   17 ar  
    32   16   28 1   
    33   17   18 ar  
    34   17   38 1   
    35   18   39 1   
    36   19   20 ar  
    37   19   24 ar  
    38   20   21 ar  
    39   20   40 1   
    40   21   22 ar  
    41   21   30 1   
    42   22   23 ar  
    43   22   27 1   
    44   23   24 ar  
    45   23   41 1   
    46   24   42 1   
    47   27   43 1   
    48   28   44 1   
@<TRIPOS>SUBSTRUCTURE
     1 GA9         1 TEMP              0 ****  ****    0 ROOT
