@<TRIPOS>MOLECULE
GA9
   44    39     1     0     0
SMALL
bcc


@<TRIPOS>ATOM
      1 C1         -0.3900    0.3950    2.4420 c1        1 GA9      0.353000
      2 C2          1.1440    0.4410    2.4770 c1        1 GA9     -0.140000
      3 C3          1.8150    0.4770    3.7150 c1        1 GA9     -0.036000
      4 C4          3.2190    0.4320    3.7550 c1        1 GA9     -0.144000
      5 C5          3.9550    0.3510    2.5600 c1        1 GA9     -0.016000
      6 C6          3.2830    0.3150    1.3180 c1        1 GA9     -0.045000
      7 C7          4.0190    0.2030    0.1250 c2        1 GA9     -0.095000
      8 C8          3.3540    0.0960   -1.0980 c1        1 GA9     -0.131000
      9 C9          1.9560    0.1010   -1.1360 c1        1 GA9     -0.090000
     10 C10         1.2180    0.2130    0.0590 c1        1 GA9     -0.104000
     11 C11         1.8820    0.3490    1.2770 c1        1 GA9      0.014000
     12 C12        -0.3280    0.1560    0.0240 c3        1 GA9      0.242000
     13 C13        -0.9530   -1.2080   -0.1680 c2        1 GA9     -0.138000
     14 C14        -2.1460   -1.5180    0.4670 c2        1 GA9     -0.044000
     15 C15        -2.7010   -2.7790    0.3200 c1        1 GA9     -0.261500
     16 C16        -2.0630   -3.7300   -0.4610 c1        1 GA9      0.123000
     17 C17        -0.8710   -3.4190   -1.0960 c1        1 GA9     -0.164500
     18 C18        -0.3160   -2.1580   -0.9490 c1        1 GA9     -0.059000
     19 C19        -0.9850    1.2000   -0.8460 c2        1 GA9     -0.138000
     20 C20        -1.9040    0.8200   -1.8120 c2        1 GA9     -0.044000
     21 C21        -2.4780    1.7730   -2.6360 c1        1 GA9     -0.261500
     22 C22        -2.1340    3.1080   -2.4960 c1        1 GA9      0.123000
     23 C23        -1.2150    3.4890   -1.5310 c1        1 GA9     -0.164500
     24 C24        -0.6410    2.5350   -0.7060 c1        1 GA9     -0.059000
     25 O1         -1.0610    0.2770    1.2130 os        1 GA9     -0.258000
     26 O2         -1.0230    0.4270    3.4780 o         1 GA9     -0.295000
     27 O4         -2.6860    4.0710   -3.3590 oh        1 GA9     -0.241000
     28 O3         -2.6150   -5.0170   -0.5920 oh        1 GA9     -0.241000
     29 BR1        -4.3550   -3.2020    1.1790 br        1 GA9      0.061000
     30 BR2        -3.7320    1.2460   -3.9790 br        1 GA9      0.061000
     31 CL3         5.6100   -0.0050    2.9730 cl        1 GA9      0.003000
     32 H3          1.3050    0.5330    4.5450 ha        1 GA9      0.167000
     33 H4          3.6820    0.4340    4.6140 ha        1 GA9      0.159000
     34 H7          4.9950    0.1990    0.1520 ha        1 GA9      0.151000
     35 H8          3.8650    0.0120   -1.9250 ha        1 GA9      0.144000
     36 H9          1.4910    0.0260   -1.9920 ha        1 GA9      0.150000
     37 H14        -2.5950   -0.8490    1.0180 ha        1 GA9      0.165000
     38 H17        -0.4220   -4.0890   -1.6460 ha        1 GA9      0.160000
     39 H18         0.5240   -1.9390   -1.3960 ha        1 GA9      0.152000
     40 H20        -2.1470   -0.1210   -1.9100 ha        1 GA9      0.165000
     41 H23        -0.9730    4.4290   -1.4320 ha        1 GA9      0.160000
     42 H24         0.0060    2.8030   -0.0260 ha        1 GA9      0.152000
     43 HO4        -3.5420    4.1980   -3.1530 ho        1 GA9      0.233000
     44 HO3        -3.0490   -5.0760   -1.3660 ho        1 GA9      0.233000
@<TRIPOS>BOND
     1    1   25 1   
     2    1   26 1   
     3    2    3 1   
     4    2   11 1   
     5    3   32 1   
     6    4    5 1   
     7    4   33 1   
     8    5   31 1   
     9    6    7 1   
    10    6   11 1   
    11    7    8 1   
    12    7   34 1   
    13    8   35 1   
    14    9   10 1   
    15    9   36 1   
    16   10   12 1   
    17   12   13 1   
    18   12   19 1   
    19   12   25 1   
    20   13   14 1   
    21   13   18 1   
    22   14   15 1   
    23   14   37 1   
    24   15   29 1   
    25   16   17 1   
    26   16   28 1   
    27   17   38 1   
    28   18   39 1   
    29   19   20 1   
    30   19   24 1   
    31   20   21 1   
    32   20   40 1   
    33   21   30 1   
    34   22   23 1   
    35   22   27 1   
    36   23   41 1   
    37   24   42 1   
    38   27   43 1   
    39   28   44 1   
@<TRIPOS>SUBSTRUCTURE
     1 GA9         1 TEMP              0 ****  ****    0 ROOT
