@<TRIPOS>MOLECULE
GA9
   44    48     1     0     0
SMALL
bcc


@<TRIPOS>ATOM
      1 C1         -0.0930   -1.5580    2.3460 c         1 GA9      0.740200
      2 C2         -0.9430   -2.3960    1.4960 ca        1 GA9     -0.160600
      3 C3         -1.6440   -3.4580    2.0240 ca        1 GA9     -0.036000
      4 C4         -2.3720   -4.3180    1.1730 ca        1 GA9     -0.144000
      5 C5         -2.3610   -4.1150   -0.1920 ca        1 GA9      0.063400
      6 C6         -1.6470   -3.0240   -0.7720 ca        1 GA9     -0.044000
      7 C7         -1.5840   -2.7910   -2.1730 ca        1 GA9     -0.094000
      8 C8         -0.8840   -1.7190   -2.6680 ca        1 GA9     -0.130000
      9 C9         -0.2430   -0.8090   -1.7970 ca        1 GA9     -0.089000
     10 C10        -0.2960   -0.9920   -0.4310 ca        1 GA9     -0.113300
     11 C11        -0.9650   -2.1340    0.0970 ca        1 GA9      0.014000
     12 C12         0.2930    0.0220    0.5240 c3        1 GA9      0.335700
     13 C13        -0.7010    1.1270    0.8390 ca        1 GA9     -0.144300
     14 C14        -1.7140    1.4800   -0.0500 ca        1 GA9     -0.042500
     15 C15        -2.6100    2.5120    0.2520 ca        1 GA9     -0.123900
     16 C16        -2.4810    3.1950    1.4740 ca        1 GA9      0.168600
     17 C17        -1.4580    2.8420    2.3770 ca        1 GA9     -0.163000
     18 C18        -0.5800    1.8200    2.0560 ca        1 GA9     -0.061500
     19 C19         1.5810    0.5970   -0.0360 ca        1 GA9     -0.144300
     20 C20         2.7970   -0.0400    0.2170 ca        1 GA9     -0.042500
     21 C21         3.9930    0.4670   -0.3020 ca        1 GA9     -0.123900
     22 C22         3.9590    1.6350   -1.0840 ca        1 GA9      0.168600
     23 C23         2.7330    2.2830   -1.3370 ca        1 GA9     -0.163000
     24 C24         1.5600    1.7650   -0.8120 ca        1 GA9     -0.061500
     25 O1          0.6840   -0.5710    1.7880 os        1 GA9     -0.419900
     26 O2          0.1040   -1.6760    3.5570 o         1 GA9     -0.571500
     27 O4          5.0590    2.2250   -1.6510 oh        1 GA9     -0.487100
     28 O3         -3.2940    4.2190    1.8830 oh        1 GA9     -0.487100
     29 BR1        -3.9470    2.9380   -0.9900 br        1 GA9     -0.081600
     30 BR2         5.5940   -0.4330    0.0690 br        1 GA9     -0.081600
     31 CL3        -3.2200   -5.1940   -1.1860 cl        1 GA9     -0.075400
     32 H3         -1.6260   -3.6480    3.1110 ha        1 GA9      0.166000
     33 H4         -2.9330   -5.1560    1.6160 ha        1 GA9      0.159000
     34 H7         -2.1000   -3.4840   -2.8560 ha        1 GA9      0.151000
     35 H8         -0.8190   -1.5480   -3.7540 ha        1 GA9      0.144000
     36 H9          0.2930    0.0540   -2.2250 ha        1 GA9      0.150000
     37 H14        -1.8180    0.9400   -1.0060 ha        1 GA9      0.160000
     38 H17        -1.3760    3.3880    3.3280 ha        1 GA9      0.160500
     39 H18         0.2200    1.5370    2.7630 ha        1 GA9      0.158000
     40 H20         2.8100   -0.9480    0.8450 ha        1 GA9      0.160000
     41 H23         2.7320    3.1980   -1.9460 ha        1 GA9      0.160500
     42 H24         0.6050    2.2820   -1.0020 ha        1 GA9      0.158000
     43 HO4         5.8480    1.7170   -1.4000 ho        1 GA9      0.433500
     44 HO3        -3.9680    4.3740    1.2000 ho        1 GA9      0.433500
@<TRIPOS>BOND
     1    1    2 1   
     2    1   25 1   
     3    1   26 2   
     4    2    3 ar  
     5    2   11 ar  
     6    3    4 ar  
     7    3   32 1   
     8    4    5 ar  
     9    4   33 1   
    10    5    6 ar  
    11    5   31 1   
    12    6    7 ar  
    13    6   11 ar  
    14    7    8 ar  
    15    7   34 1   
    16    8    9 ar  
    17    8   35 1   
    18    9   10 ar  
    19    9   36 1   
    20   10   11 ar  
    21   10   12 1   
    22   12   13 1   
    23   12   19 1   
    24   12   25 1   
    25   13   14 ar  
    26   13   18 ar  
    27   14   15 ar  
    28   14   37 1   
    29   15   16 ar  
    30   15   29 1   
    31   16   17 ar  
    32   16   28 1   
    33   17   18 ar  
    34   17   38 1   
    35   18   39 1   
    36   19   20 ar  
    37   19   24 ar  
    38   20   21 ar  
    39   20   40 1   
    40   21   22 ar  
    41   21   30 1   
    42   22   23 ar  
    43   22   27 1   
    44   23   24 ar  
    45   23   41 1   
    46   24   42 1   
    47   27   43 1   
    48   28   44 1   
@<TRIPOS>SUBSTRUCTURE
     1 GA9         1 TEMP              0 ****  ****    0 ROOT
