@<TRIPOS>MOLECULE
GAA
   36    37     1     0     0
SMALL
bcc


@<TRIPOS>ATOM
      1 C1         -0.1190    0.2410    0.3060 c3        1 GAA      0.309900
      2 C2          1.3830   -0.0960    0.3480 c3        1 GAA      0.091100
      3 C3          1.9190    0.0020    1.7830 c3        1 GAA      0.076100
      4 C4          1.5710    1.3750    2.3810 c3        1 GAA      0.127100
      5 C5          0.0580    1.6020    2.2830 c3        1 GAA      0.105100
      6 C6         -0.3150    3.0340    2.6840 c3        1 GAA      0.141400
      7 C7         -2.1130   -1.0270    0.6820 ca        1 GAA      0.109100
      8 C8         -2.5420   -2.3580    0.7950 ca        1 GAA     -0.092000
      9 C9         -3.8890   -2.6410    0.5350 ca        1 GAA     -0.152200
     10 C10        -4.7900   -1.6310    0.1600 ca        1 GAA     -0.090000
     11 C11        -4.3310   -0.3200    0.0540 ca        1 GAA     -0.112000
     12 C12        -2.9990   -0.0050    0.3160 ca        1 GAA     -0.136000
     13 N1         -4.3700   -4.0450    0.6550 no        1 GAA      0.312200
     14 O1         -0.7880   -0.8000    1.0200 os        1 GAA     -0.374900
     15 O2          1.6420   -1.3690   -0.1990 oh        1 GAA     -0.586800
     16 O3          3.3320   -0.1000    1.8010 oh        1 GAA     -0.603800
     17 O4          2.2310    2.4190    1.6880 oh        1 GAA     -0.594800
     18 O5         -0.4450    1.4460    0.9490 os        1 GAA     -0.432600
     19 O6         -1.7150    3.2060    2.7020 oh        1 GAA     -0.594800
     20 O7         -5.5260   -4.2830    0.4300 o         1 GAA     -0.204000
     21 O8         -3.5900   -4.9020    0.9720 o         1 GAA     -0.204000
     22 H1         -0.4990    0.3480   -0.7480 h2        1 GAA      0.102700
     23 H2          1.9330    0.6310   -0.3160 h1        1 GAA      0.115700
     24 H3          1.4720   -0.8160    2.4130 h1        1 GAA      0.062700
     25 H4          1.8800    1.3940    3.4640 h1        1 GAA      0.062700
     26 H5         -0.4640    0.8530    2.9420 h1        1 GAA      0.072700
     27 H61         0.1710    3.7610    1.9810 h1        1 GAA      0.068700
     28 H62         0.0210    3.2260    3.7370 h1        1 GAA      0.068700
     29 H8         -1.8340   -3.1490    1.0930 ha        1 GAA      0.181000
     30 H10        -5.8470   -1.8750   -0.0440 ha        1 GAA      0.174000
     31 H11        -5.0330    0.4780   -0.2340 ha        1 GAA      0.153000
     32 H12        -2.6430    1.0360    0.2500 ha        1 GAA      0.165000
     33 HO2         1.1070   -2.0110    0.2880 ho        1 GAA      0.418000
     34 HO3         3.5680   -0.8390    1.2230 ho        1 GAA      0.427000
     35 HO4         3.1720    2.1900    1.6770 ho        1 GAA      0.426000
     36 HO6        -2.0290    3.0570    1.8000 ho        1 GAA      0.407000
@<TRIPOS>BOND
     1    1    2 1   
     2    1   14 1   
     3    1   18 1   
     4    1   22 1   
     5    2    3 1   
     6    2   15 1   
     7    2   23 1   
     8    3    4 1   
     9    3   16 1   
    10    3   24 1   
    11    4    5 1   
    12    4   17 1   
    13    4   25 1   
    14    5    6 1   
    15    5   18 1   
    16    5   26 1   
    17    6   19 1   
    18    6   27 1   
    19    6   28 1   
    20    7    8 ar  
    21    7   12 ar  
    22    7   14 1   
    23    8    9 ar  
    24    8   29 1   
    25    9   10 ar  
    26    9   13 1   
    27   10   11 ar  
    28   10   30 1   
    29   11   12 ar  
    30   11   31 1   
    31   12   32 1   
    32   13   20 1   
    33   13   21 1   
    34   15   33 1   
    35   16   34 1   
    36   17   35 1   
    37   19   36 1   
@<TRIPOS>SUBSTRUCTURE
     1 GAA         1 TEMP              0 ****  ****    0 ROOT
