@<TRIPOS>MOLECULE
GAA
   36    37     1     0     0
SMALL
bcc


@<TRIPOS>ATOM
      1 C1         -0.1150    0.2120    0.2980 c3        1 GAA      0.309900
      2 C2          1.3820   -0.1430    0.3480 c3        1 GAA      0.091100
      3 C3          1.9180   -0.0190    1.7820 c3        1 GAA      0.076100
      4 C4          1.5860    1.3710    2.3480 c3        1 GAA      0.127100
      5 C5          0.0760    1.6140    2.2440 c3        1 GAA      0.105100
      6 C6         -0.2790    3.0580    2.6130 c3        1 GAA      0.141400
      7 C7         -2.1250   -1.0240    0.7000 ca        1 GAA      0.109100
      8 C8         -2.5700   -2.3460    0.8430 ca        1 GAA     -0.092000
      9 C9         -3.9210   -2.6190    0.5880 ca        1 GAA     -0.152200
     10 C10        -4.8090   -1.6070    0.1900 ca        1 GAA     -0.090000
     11 C11        -4.3340   -0.3040    0.0540 ca        1 GAA     -0.112000
     12 C12        -2.9980    0.0000    0.3100 ca        1 GAA     -0.136000
     13 N1         -4.4190   -4.0140    0.7390 no        1 GAA      0.312200
     14 O1         -0.7980   -0.8060    1.0350 os        1 GAA     -0.374900
     15 O2          1.6260   -1.4310   -0.1700 oh        1 GAA     -0.586800
     16 O3          3.3300   -0.1380    1.8030 oh        1 GAA     -0.603800
     17 O4          2.2600    2.3910    1.6330 oh        1 GAA     -0.594800
     18 O5         -0.4270    1.4340    0.9130 os        1 GAA     -0.432600
     19 O6         -1.6770    3.2480    2.6260 oh        1 GAA     -0.594800
     20 O7         -5.5780   -4.2430    0.5180 o         1 GAA     -0.204000
     21 O8         -3.6500   -4.8730    1.0760 o         1 GAA     -0.204000
     22 H1         -0.4930    0.2990   -0.7580 h2        1 GAA      0.102700
     23 H2          1.9420    0.5620   -0.3300 h1        1 GAA      0.115700
     24 H3          1.4610   -0.8180    2.4300 h1        1 GAA      0.062700
     25 H4          1.8950    1.4100    3.4310 h1        1 GAA      0.062700
     26 H5         -0.4540    0.8850    2.9190 h1        1 GAA      0.072700
     27 H61         0.0590    3.2700    3.6610 h1        1 GAA      0.068700
     28 H62         0.2160    3.7640    1.8940 h1        1 GAA      0.068700
     29 H8         -1.8730   -3.1400    1.1590 ha        1 GAA      0.181000
     30 H10        -5.8680   -1.8420   -0.0100 ha        1 GAA      0.174000
     31 H11        -5.0260    0.4950   -0.2530 ha        1 GAA      0.153000
     32 H12        -2.6290    1.0350    0.2220 ha        1 GAA      0.165000
     33 HO2         1.0830   -2.0560    0.3320 ho        1 GAA      0.418000
     34 HO3         3.5570   -0.8930    1.2420 ho        1 GAA      0.427000
     35 HO4         3.1980    2.1510    1.6290 ho        1 GAA      0.426000
     36 HO6        -1.9930    3.0830    1.7280 ho        1 GAA      0.407000
@<TRIPOS>BOND
     1    1    2 1   
     2    1   14 1   
     3    1   18 1   
     4    1   22 1   
     5    2    3 1   
     6    2   15 1   
     7    2   23 1   
     8    3    4 1   
     9    3   16 1   
    10    3   24 1   
    11    4    5 1   
    12    4   17 1   
    13    4   25 1   
    14    5    6 1   
    15    5   18 1   
    16    5   26 1   
    17    6   19 1   
    18    6   27 1   
    19    6   28 1   
    20    7    8 ar  
    21    7   12 ar  
    22    7   14 1   
    23    8    9 ar  
    24    8   29 1   
    25    9   10 ar  
    26    9   13 1   
    27   10   11 ar  
    28   10   30 1   
    29   11   12 ar  
    30   11   31 1   
    31   12   32 1   
    32   13   20 1   
    33   13   21 1   
    34   15   33 1   
    35   16   34 1   
    36   17   35 1   
    37   19   36 1   
@<TRIPOS>SUBSTRUCTURE
     1 GAA         1 TEMP              0 ****  ****    0 ROOT
