@<TRIPOS>MOLECULE
GAA
   36    37     1     0     0
SMALL
bcc


@<TRIPOS>ATOM
      1 C1         -1.2040   -0.3210    0.8310 c3        1 GAA      0.309900
      2 C2         -2.3500   -1.2380    0.3680 c3        1 GAA      0.091100
      3 C3         -2.8900   -0.7810   -0.9940 c3        1 GAA      0.076100
      4 C4         -3.2670    0.7090   -0.9370 c3        1 GAA      0.127100
      5 C5         -2.0550    1.5200   -0.4640 c3        1 GAA      0.105100
      6 C6         -2.4350    2.9820   -0.2020 c3        1 GAA      0.141400
      7 C7          1.1490   -0.2620    0.3990 ca        1 GAA      0.109100
      8 C8          2.1710   -1.0640   -0.1310 ca        1 GAA     -0.092000
      9 C9          3.4900   -0.7970    0.2600 ca        1 GAA     -0.152200
     10 C10         3.7890    0.2350    1.1650 ca        1 GAA     -0.090000
     11 C11         2.7500    1.0110    1.6740 ca        1 GAA     -0.112000
     12 C12         1.4300    0.7760    1.2960 ca        1 GAA     -0.136000
     13 N1          4.5930   -1.6300   -0.2930 no        1 GAA      0.312200
     14 O1         -0.1230   -0.5300   -0.0810 os        1 GAA     -0.374900
     15 O2         -1.9460   -2.5870    0.3210 oh        1 GAA     -0.586800
     16 O3         -4.0750   -1.4840   -1.3290 oh        1 GAA     -0.603800
     17 O4         -4.3410    0.9330   -0.0410 oh        1 GAA     -0.594800
     18 O5         -1.5180    1.0460    0.7790 os        1 GAA     -0.432600
     19 O6         -1.2980    3.7500    0.1250 oh        1 GAA     -0.594800
     20 O7          5.7210   -1.3970    0.0460 o         1 GAA     -0.204000
     21 O8          4.3240   -2.5130   -1.0620 o         1 GAA     -0.204000
     22 H1         -0.9060   -0.5220    1.8980 h2        1 GAA      0.102700
     23 H2         -3.1740   -1.2000    1.1370 h1        1 GAA      0.115700
     24 H3         -2.1120   -0.9510   -1.7890 h1        1 GAA      0.062700
     25 H4         -3.5640    1.0530   -1.9680 h1        1 GAA      0.062700
     26 H5         -1.2460    1.4500   -1.2430 h1        1 GAA      0.072700
     27 H61        -3.2020    3.0310    0.6160 h1        1 GAA      0.068700
     28 H62        -2.8410    3.4360   -1.1430 h1        1 GAA      0.068700
     29 H8          1.9350   -1.8720   -0.8430 ha        1 GAA      0.181000
     30 H10         4.8340    0.4280    1.4630 ha        1 GAA      0.174000
     31 H11         2.9790    1.8260    2.3800 ha        1 GAA      0.153000
     32 H12         0.6120    1.4050    1.6860 ha        1 GAA      0.165000
     33 HO2        -1.1740   -2.6410   -0.2600 ho        1 GAA      0.418000
     34 HO3        -3.9100   -2.4180   -1.1370 ho        1 GAA      0.427000
     35 HO4        -5.0500    0.3290   -0.3050 ho        1 GAA      0.426000
     36 HO6        -0.9350    3.3850    0.9420 ho        1 GAA      0.407000
@<TRIPOS>BOND
     1    1    2 1   
     2    1   14 1   
     3    1   18 1   
     4    1   22 1   
     5    2    3 1   
     6    2   15 1   
     7    2   23 1   
     8    3    4 1   
     9    3   16 1   
    10    3   24 1   
    11    4    5 1   
    12    4   17 1   
    13    4   25 1   
    14    5    6 1   
    15    5   18 1   
    16    5   26 1   
    17    6   19 1   
    18    6   27 1   
    19    6   28 1   
    20    7    8 ar  
    21    7   12 ar  
    22    7   14 1   
    23    8    9 ar  
    24    8   29 1   
    25    9   10 ar  
    26    9   13 1   
    27   10   11 ar  
    28   10   30 1   
    29   11   12 ar  
    30   11   31 1   
    31   12   32 1   
    32   13   20 1   
    33   13   21 1   
    34   15   33 1   
    35   16   34 1   
    36   17   35 1   
    37   19   36 1   
@<TRIPOS>SUBSTRUCTURE
     1 GAA         1 TEMP              0 ****  ****    0 ROOT
