@<TRIPOS>MOLECULE
GAA
   36    34     1     0     0
SMALL
bcc


@<TRIPOS>ATOM
      1 C1          0.5190    0.2420   -0.3800 c3        1 GAA      0.332900
      2 C2          2.0270    0.2050   -0.3360 c3        1 GAA      0.099100
      3 C3          2.5470    0.1890    1.0530 c3        1 GAA      0.115100
      4 C4          1.9710    1.2910    1.8860 c3        1 GAA      0.087100
      5 C5          0.4560    1.3290    1.8280 c3        1 GAA      0.067100
      6 C6         -0.0380    2.5860    2.5490 c3        1 GAA      0.133400
      7 C7         -0.8760   -1.5230   -0.9330 c1        1 GAA      0.097600
      8 C8         -2.1260   -0.9410   -1.1430 c1        1 GAA     -0.071500
      9 C9         -3.0400   -1.5400   -2.0250 c1        1 GAA     -0.159300
     10 C10        -2.6950   -2.7170   -2.6910 c1        1 GAA     -0.032500
     11 C11        -1.4430   -3.2980   -2.4800 c1        1 GAA     -0.053000
     12 C12        -0.5340   -2.7030   -1.6030 c1        1 GAA     -0.053000
     13 N1         -4.2730   -0.8780   -2.3380 no        1 GAA      0.321300
     14 O1          0.0230   -0.9730    0.0650 os        1 GAA     -0.335400
     15 O2          2.4920   -0.9870   -1.0270 oh        1 GAA     -0.587800
     16 O3          3.9860    0.3340    1.0170 oh        1 GAA     -0.592800
     17 O4          2.4830    2.5400    1.4170 oh        1 GAA     -0.604800
     18 O5         -0.0510    1.3410    0.4650 os        1 GAA     -0.436600
     19 O6         -1.4910    2.5590    2.6300 oh        1 GAA     -0.586800
     20 O7         -4.7800    0.0590   -1.4850 o         1 GAA     -0.207000
     21 O8         -4.8660   -1.1470   -3.3760 o         1 GAA     -0.207000
     22 H1          0.2310    0.3810   -1.3200 h2        1 GAA      0.107700
     23 H2          2.3770    0.9930   -0.7960 h1        1 GAA      0.076700
     24 H3          2.3220   -0.6800    1.4690 h1        1 GAA      0.104700
     25 H4          2.2490    1.1630    2.8150 h1        1 GAA      0.063700
     26 H5          0.1000    0.5310    2.2950 h1        1 GAA      0.081700
     27 H61         0.3370    2.6140    3.4450 h1        1 GAA      0.056200
     28 H62         0.2490    3.3870    2.0480 h1        1 GAA      0.056200
     29 H8         -2.3670   -0.1140   -0.6730 ha        1 GAA      0.127500
     30 H10        -3.3300   -3.1350   -3.3060 ha        1 GAA      0.115500
     31 H11        -1.2020   -4.1280   -2.9510 ha        1 GAA      0.099500
     32 H12         0.3450   -3.1130   -1.4560 ha        1 GAA      0.099500
     33 HO2         2.9770   -0.7420   -1.7650 ho        1 GAA      0.427000
     34 HO3         4.2470    0.7980    1.7050 ho        1 GAA      0.424000
     35 HO4         2.9400    2.9610    2.0990 ho        1 GAA      0.417000
     36 HO6        -1.7690    3.1170    3.2980 ho        1 GAA      0.417000
@<TRIPOS>BOND
     1    1    2 1   
     2    1   14 1   
     3    1   18 1   
     4    1   22 1   
     5    2    3 1   
     6    2   15 1   
     7    2   23 1   
     8    3    4 1   
     9    3   16 1   
    10    3   24 1   
    11    4    5 1   
    12    4   17 1   
    13    4   25 1   
    14    5    6 1   
    15    5   18 1   
    16    5   26 1   
    17    6   19 1   
    18    6   27 1   
    19    6   28 1   
    20    7    8 3   
    21    7   14 1   
    22    8   29 1   
    23    9   10 3   
    24    9   13 1   
    25   10   30 1   
    26   11   12 3   
    27   11   31 1   
    28   12   32 1   
    29   13   20 1   
    30   13   21 1   
    31   15   33 1   
    32   16   34 1   
    33   17   35 1   
    34   19   36 1   
@<TRIPOS>SUBSTRUCTURE
     1 GAA         1 TEMP              0 ****  ****    0 ROOT
