@<TRIPOS>MOLECULE
GAB
   17    17     1     0     0
SMALL
bcc


@<TRIPOS>ATOM
      1 C1'         0.0410    0.1350    0.0540 c         1 GAB      0.918200
      2 O1'         1.2930    0.1290    0.0040 o         1 GAB     -0.786300
      3 O2'        -0.6890    0.2060    1.0770 o         1 GAB     -0.786300
      4 C1         -0.7050    0.0460   -1.2920 ca        1 GAB     -0.115600
      5 C2         -2.1010    0.0500   -1.2730 ca        1 GAB     -0.083000
      6 C3         -2.7990   -0.0300   -2.4860 ca        1 GAB     -0.117400
      7 C4         -2.1230   -0.1150   -3.7170 ca        1 GAB     -0.141000
      8 C5         -0.7320   -0.1170   -3.7110 ca        1 GAB     -0.127000
      9 C6         -0.0240   -0.0370   -2.5070 ca        1 GAB     -0.051000
     10 N3         -4.2630   -0.0260   -2.4640 n4        1 GAB     -0.692000
     11 H2         -2.5920    0.1180   -0.2840 ha        1 GAB      0.183000
     12 H4         -2.6700   -0.1780   -4.6680 ha        1 GAB      0.126000
     13 H5         -0.1890   -0.1830   -4.6660 ha        1 GAB      0.145000
     14 H6          1.0820   -0.0380   -2.4850 ha        1 GAB      0.187000
     15 HN31       -4.5860    0.0420   -1.4930 hn        1 GAB      0.447133
     16 HN32       -4.6130    0.7740   -2.9960 hn        1 GAB      0.447133
     17 H33        -4.6170   -0.8900   -2.8810 hn        1 GAB      0.447133
@<TRIPOS>BOND
     1    1    2 1   
     2    1    3 1   
     3    1    4 1   
     4    4    5 ar  
     5    4    9 ar  
     6    5    6 ar  
     7    5   11 1   
     8    6    7 ar  
     9    6   10 1   
    10    7    8 ar  
    11    7   12 1   
    12    8    9 ar  
    13    8   13 1   
    14    9   14 1   
    15   10   15 1   
    16   10   16 1   
    17   10   17 1   
@<TRIPOS>SUBSTRUCTURE
     1 GAB         1 TEMP              0 ****  ****    0 ROOT
