@<TRIPOS>MOLECULE
GAB
   16    16     1     0     0
SMALL
bcc


@<TRIPOS>ATOM
      1 C1'        -0.3310    0.0260   -1.9690 c         1 GAB      0.906200
      2 O1'        -1.5710    0.0720   -2.2100 o         1 GAB     -0.832800
      3 O2'         0.5640    0.0180   -2.8610 o         1 GAB     -0.832800
      4 C1          0.1130   -0.0150   -0.5130 ca        1 GAB     -0.101600
      5 C2         -0.8380   -0.0670    0.5040 ca        1 GAB     -0.150000
      6 C3         -0.4460   -0.0870    1.8610 ca        1 GAB      0.065600
      7 C4          0.9290   -0.0480    2.1700 ca        1 GAB     -0.197000
      8 C5          1.8730   -0.0040    1.1450 ca        1 GAB     -0.141000
      9 C6          1.4740    0.0130   -0.1870 ca        1 GAB     -0.132000
     10 N3         -1.4080   -0.2090    2.8920 nh        1 GAB     -0.798200
     11 H2         -1.9010   -0.0920    0.2130 ha        1 GAB      0.151000
     12 H4          1.2640   -0.0590    3.2170 ha        1 GAB      0.103000
     13 H5          2.9420    0.0200    1.4010 ha        1 GAB      0.102000
     14 H6          2.2070    0.0510   -1.0080 ha        1 GAB      0.149000
     15 HN31       -1.1500    0.3210    3.6990 hn        1 GAB      0.353300
     16 HN32       -2.3180    0.0580    2.5760 hn        1 GAB      0.353300
@<TRIPOS>BOND
     1    1    2 1   
     2    1    3 1   
     3    1    4 1   
     4    4    5 ar  
     5    4    9 ar  
     6    5    6 ar  
     7    5   11 1   
     8    6    7 ar  
     9    6   10 1   
    10    7    8 ar  
    11    7   12 1   
    12    8    9 ar  
    13    8   13 1   
    14    9   14 1   
    15   10   15 1   
    16   10   16 1   
@<TRIPOS>SUBSTRUCTURE
     1 GAB         1 TEMP              0 ****  ****    0 ROOT
