@<TRIPOS>MOLECULE
GAB
   16    16     1     0     0
SMALL
bcc


@<TRIPOS>ATOM
      1 C1'         0.0410   -0.1730    0.0190 c         1 GAB      0.906200
      2 O1'         1.3030   -0.2070   -0.0450 o         1 GAB     -0.832800
      3 O2'        -0.6130   -0.1930    1.1000 o         1 GAB     -0.832800
      4 C1         -0.7390   -0.0940   -1.2860 ca        1 GAB     -0.101600
      5 C2         -0.0630   -0.1260   -2.5040 ca        1 GAB     -0.150000
      6 C3         -0.7680   -0.0350   -3.7250 ca        1 GAB      0.065600
      7 C4         -2.1720    0.0940   -3.6900 ca        1 GAB     -0.197000
      8 C5         -2.8380    0.1170   -2.4660 ca        1 GAB     -0.141000
      9 C6         -2.1330    0.0250   -1.2710 ca        1 GAB     -0.132000
     10 N3         -0.0890   -0.1370   -4.9630 nh        1 GAB     -0.798200
     11 H2          1.0350   -0.2240   -2.4810 ha        1 GAB      0.151000
     12 H4         -2.7460    0.1700   -4.6240 ha        1 GAB      0.103000
     13 H5         -3.9330    0.2120   -2.4540 ha        1 GAB      0.102000
     14 H6         -2.6450    0.0440   -0.2960 ha        1 GAB      0.150000
     15 HN31        0.8860    0.0620   -4.8640 hn        1 GAB      0.353300
     16 HN32       -0.4970    0.4590   -5.6550 hn        1 GAB      0.353300
@<TRIPOS>BOND
     1    1    2 1   
     2    1    3 1   
     3    1    4 1   
     4    4    5 ar  
     5    4    9 ar  
     6    5    6 ar  
     7    5   11 1   
     8    6    7 ar  
     9    6   10 1   
    10    7    8 ar  
    11    7   12 1   
    12    8    9 ar  
    13    8   13 1   
    14    9   14 1   
    15   10   15 1   
    16   10   16 1   
@<TRIPOS>SUBSTRUCTURE
     1 GAB         1 TEMP              0 ****  ****    0 ROOT
