@<TRIPOS>MOLECULE
GAB
   16    13     1     0     0
SMALL
bcc


@<TRIPOS>ATOM
      1 C1'         1.3330   -0.3760    2.2810 c1        1 GAB      0.355000
      2 O1'         2.5920   -0.3760    2.2810 o         1 GAB     -0.566000
      3 O2'         0.7030   -0.3760    3.3720 os        1 GAB     -0.569000
      4 C1          0.5760   -0.3760    0.9710 c2        1 GAB     -0.081000
      5 C2          0.2000    0.8230    0.3880 c2        1 GAB     -0.150000
      6 C3         -0.4930    0.8230   -0.8120 c1        1 GAB     -0.016000
      7 C4         -0.8100   -0.3770   -1.4290 c1        1 GAB     -0.169000
      8 C5         -0.4340   -1.5760   -0.8460 c1        1 GAB     -0.169000
      9 C6          0.2590   -1.5760    0.3540 c1        1 GAB     -0.132000
     10 N3         -0.8850    2.0510   -1.4040 n3        1 GAB     -0.307000
     11 H2          0.4240    1.6680    0.8230 ha        1 GAB      0.151000
     12 H4         -1.3070   -0.3770   -2.2690 ha        1 GAB      0.102500
     13 H5         -0.6570   -2.4210   -1.2810 ha        1 GAB      0.102500
     14 H6          0.5240   -2.4210    0.7650 ha        1 GAB      0.149000
     15 HN31       -1.7290    2.3720   -1.2720 hn        1 GAB      0.148500
     16 HN32       -0.2960    2.5170   -1.9220 hn        1 GAB      0.148500
@<TRIPOS>BOND
     1    1    2 1   
     2    1    4 1   
     3    4    5 1   
     4    4    9 1   
     5    5    6 1   
     6    5   11 1   
     7    6   10 1   
     8    7    8 1   
     9    7   12 1   
    10    8   13 1   
    11    9   14 1   
    12   10   15 1   
    13   10   16 1   
@<TRIPOS>SUBSTRUCTURE
     1 GAB         1 TEMP              0 ****  ****    0 ROOT
