@<TRIPOS>MOLECULE
GAD
   18    17     1     0     0
SMALL
bcc


@<TRIPOS>ATOM
      1 C1         -0.9810   -0.4730   -0.7670 c3        1 GAD     -0.060000
      2 C2          0.7380   -0.5570   -0.7990 c3        1 GAD     -0.037000
      3 O2          1.1890   -1.8590   -1.8330 oh        1 GAD     -0.321000
      4 C3          1.0990   -0.6890   -0.0330 c3        1 GAD      0.098000
      5 O3          2.8130   -0.6920   -0.1300 oh        1 GAD     -0.336000
      6 C4          0.4730    0.5650    1.0140 c2        1 GAD     -0.398000
      7 C5         -1.3720    0.9230    0.6190 c1        1 GAD      0.057000
      8 C6         -2.1020    2.0300    1.3510 c1        1 GAD      0.384000
      9 O6A        -2.8270    1.7570    2.3440 o         1 GAD     -0.537000
     10 O6B        -1.9850    3.2230    0.9670 o         1 GAD     -0.537000
     11 O5         -1.6080    0.4720    0.5310 os        1 GAD     -0.194000
     12 H11        -1.2900   -0.0880   -1.6110 h1        1 GAD      0.081000
     13 H12        -1.3360   -1.3820   -0.6900 h1        1 GAD      0.081000
     14 H2          1.0870    0.2790   -1.1720 h1        1 GAD      0.081000
     15 HO2         1.2370   -1.5680   -2.6710 ho        1 GAD      0.182000
     16 H3          0.9150   -1.5840    0.3200 h1        1 GAD      0.111000
     17 HO3         3.1520   -0.9990    0.6300 ho        1 GAD      0.197000
     18 H4          0.8000    0.6440    1.9300 ha        1 GAD      0.146000
@<TRIPOS>BOND
     1    1    2 1   
     2    1   11 1   
     3    1   12 1   
     4    1   13 1   
     5    2    3 1   
     6    2    4 1   
     7    2   14 1   
     8    3   15 1   
     9    4    5 1   
    10    4    6 1   
    11    4   16 1   
    12    5   17 1   
    13    6    7 1   
    14    6   18 1   
    15    7   11 1   
    16    8    9 1   
    17    8   10 1   
@<TRIPOS>SUBSTRUCTURE
     1 GAD         1 TEMP              0 ****  ****    0 ROOT
