@<TRIPOS>MOLECULE
GAD
   18    18     1     0     0
SMALL
bcc


@<TRIPOS>ATOM
      1 C1          1.5500   -0.0500    0.8870 c3        1 GAD      0.090400
      2 C2          0.4050    0.2100    1.8650 c3        1 GAD      0.074100
      3 O2          0.7630   -0.2410    3.1640 oh        1 GAD     -0.593800
      4 C3         -0.8500   -0.5760    1.4300 c3        1 GAD      0.213300
      5 O3         -1.9980   -0.0510    2.0850 oh        1 GAD     -0.608800
      6 C4         -0.9910   -0.5220   -0.0500 c2        1 GAD     -0.402200
      7 C5         -0.0200   -0.1080   -0.8850 ce        1 GAD      0.081900
      8 C6         -0.1660    0.0020   -2.4170 c         1 GAD      0.933800
      9 O6A        -0.6870    1.0560   -2.8600 o         1 GAD     -0.802300
     10 O6B         0.2260   -0.9820   -3.0940 o         1 GAD     -0.802300
     11 O5          1.2240    0.3000   -0.4550 os        1 GAD     -0.309900
     12 H11         2.4390    0.5880    1.1320 h1        1 GAD      0.041700
     13 H12         1.8390   -1.1340    0.9220 h1        1 GAD      0.041700
     14 H2          0.1650    1.3080    1.8990 h1        1 GAD      0.041700
     15 HO2         1.5500    0.2540    3.4150 ho        1 GAD      0.383000
     16 H3         -0.7790   -1.6340    1.8120 h1        1 GAD      0.071700
     17 HO3        -2.2610    0.7420    1.6020 ho        1 GAD      0.398000
     18 H4         -1.9650   -0.8340   -0.4470 ha        1 GAD      0.146000
@<TRIPOS>BOND
     1    1    2 1   
     2    1   11 1   
     3    1   12 1   
     4    1   13 1   
     5    2    3 1   
     6    2    4 1   
     7    2   14 1   
     8    3   15 1   
     9    4    5 1   
    10    4    6 1   
    11    4   16 1   
    12    5   17 1   
    13    6    7 2   
    14    6   18 1   
    15    7    8 1   
    16    7   11 1   
    17    8    9 1   
    18    8   10 1   
@<TRIPOS>SUBSTRUCTURE
     1 GAD         1 TEMP              0 ****  ****    0 ROOT
