@<TRIPOS>MOLECULE
GAE
   22    21     1     0     0
SMALL
bcc


@<TRIPOS>ATOM
      1 O6A        -3.2600   -1.2850    0.8620 o         1 GAE     -0.852300
      2 C6         -3.1640   -0.1640    0.2920 c         1 GAE      0.896600
      3 O6B        -4.1220    0.4010   -0.3220 o         1 GAE     -0.852300
      4 C5         -1.8260    0.6090    0.3590 c3        1 GAE     -0.007900
      5 O5         -1.9510    1.9010   -0.2220 oh        1 GAE     -0.648800
      6 C4         -0.6800   -0.1390   -0.3420 c3        1 GAE      0.106100
      7 O4         -0.6110    0.2140   -1.7140 oh        1 GAE     -0.610800
      8 C3          0.6800    0.1390    0.3420 c3        1 GAE      0.106100
      9 O3          0.6110   -0.2140    1.7140 oh        1 GAE     -0.610800
     10 C2          1.8260   -0.6090   -0.3590 c3        1 GAE     -0.007900
     11 C1          3.1640    0.1640   -0.2920 c         1 GAE      0.896600
     12 O1A         4.1220   -0.4010    0.3220 o         1 GAE     -0.852300
     13 O1B         3.2600    1.2850   -0.8620 o         1 GAE     -0.852300
     14 O2          1.9510   -1.9010    0.2220 oh        1 GAE     -0.648800
     15 H5         -1.5530    0.7760    1.4370 h1        1 GAE      0.063700
     16 HO5        -2.7490    1.8800   -0.7740 ho        1 GAE      0.419000
     17 H4         -0.8920   -1.2440   -0.3330 h1        1 GAE      0.085700
     18 HO4        -0.5220    1.1760   -1.7430 ho        1 GAE      0.401000
     19 H3          0.8920    1.2440    0.3330 h1        1 GAE      0.085700
     20 HO3         0.5220   -1.1760    1.7430 ho        1 GAE      0.401000
     21 H2          1.5530   -0.7760   -1.4370 h1        1 GAE      0.063700
     22 HO2         2.7500   -1.8800    0.7740 ho        1 GAE      0.419000
@<TRIPOS>BOND
     1    1    2 1   
     2    2    3 1   
     3    2    4 1   
     4    4    5 1   
     5    4    6 1   
     6    4   15 1   
     7    5   16 1   
     8    6    7 1   
     9    6    8 1   
    10    6   17 1   
    11    7   18 1   
    12    8    9 1   
    13    8   10 1   
    14    8   19 1   
    15    9   20 1   
    16   10   11 1   
    17   10   14 1   
    18   10   21 1   
    19   11   12 1   
    20   11   13 1   
    21   14   22 1   
@<TRIPOS>SUBSTRUCTURE
     1 GAE         1 TEMP              0 ****  ****    0 ROOT
