@<TRIPOS>MOLECULE
GAE
   22    21     1     0     0
SMALL
bcc


@<TRIPOS>ATOM
      1 O6A        -0.0070    0.7410    0.0800 o         1 GAE     -0.856800
      2 C6          1.1000    0.1380    0.0830 c         1 GAE      0.886600
      3 O6B         1.5880   -0.4490   -0.9350 o         1 GAE     -0.856800
      4 C5          1.9540    0.0970    1.3720 c3        1 GAE     -0.005900
      5 O5          3.2970    0.4410    1.0550 oh        1 GAE     -0.622800
      6 C4          1.8970   -1.3060    2.0010 c3        1 GAE      0.134100
      7 O4          2.5480   -2.2590    1.1640 oh        1 GAE     -0.639800
      8 C3          2.6060   -1.3630    3.3670 c3        1 GAE      0.134100
      9 O3          1.9550   -0.4110    4.2040 oh        1 GAE     -0.639800
     10 C2          2.5490   -2.7670    3.9970 c3        1 GAE     -0.005900
     11 C1          3.4040   -2.8070    5.2860 c         1 GAE      0.886600
     12 O1A         2.9160   -2.2200    6.3040 o         1 GAE     -0.856800
     13 O1B         4.5100   -3.4110    5.2890 o         1 GAE     -0.856800
     14 O2          1.2070   -3.1110    4.3140 oh        1 GAE     -0.622800
     15 H5          1.6170    0.8610    2.1190 h1        1 GAE      0.081700
     16 HO5         3.5250   -0.0870    0.2770 ho        1 GAE      0.403000
     17 H4          0.8220   -1.6080    2.1340 h1        1 GAE      0.047700
     18 HO4         2.2840   -2.0440    0.2550 ho        1 GAE      0.428000
     19 H3          3.6820   -1.0610    3.2350 h1        1 GAE      0.047700
     20 HO3         2.2190   -0.6250    5.1140 ho        1 GAE      0.428000
     21 H2          2.8870   -3.5300    3.2500 h1        1 GAE      0.081700
     22 HO2         0.9790   -2.5830    5.0920 ho        1 GAE      0.403000
@<TRIPOS>BOND
     1    1    2 1   
     2    2    3 1   
     3    2    4 1   
     4    4    5 1   
     5    4    6 1   
     6    4   15 1   
     7    5   16 1   
     8    6    7 1   
     9    6    8 1   
    10    6   17 1   
    11    7   18 1   
    12    8    9 1   
    13    8   10 1   
    14    8   19 1   
    15    9   20 1   
    16   10   11 1   
    17   10   14 1   
    18   10   21 1   
    19   11   12 1   
    20   11   13 1   
    21   14   22 1   
@<TRIPOS>SUBSTRUCTURE
     1 GAE         1 TEMP              0 ****  ****    0 ROOT
