@<TRIPOS>MOLECULE
GAF
   23    23     1     0     0
SMALL
bcc


@<TRIPOS>ATOM
      1 C1         -0.7800   -0.8140   -1.4720 c3        1 GAF      0.314900
      2 C2          0.7300   -0.8150   -1.5310 c3        1 GAF      0.121600
      3 F2          1.1620   -1.9990   -2.2130 f         1 GAF     -0.228300
      4 C3          1.3360   -0.7870   -0.2050 c3        1 GAF      0.080100
      5 O3          2.7750   -0.5920   -0.3530 oh        1 GAF     -0.604800
      6 C4          0.7930    0.3070    0.6380 c3        1 GAF      0.128100
      7 O4          1.2420    1.5830    0.1050 oh        1 GAF     -0.594800
      8 C5         -0.7130    0.2990    0.6860 c3        1 GAF      0.106100
      9 O5         -1.3100    0.2650   -0.6320 os        1 GAF     -0.447600
     10 C6         -1.1780    1.5220    1.3830 c3        1 GAF      0.142400
     11 O6         -2.6220    1.5050    1.4780 oh        1 GAF     -0.598800
     12 O1         -1.2230   -2.0650   -0.9500 oh        1 GAF     -0.617800
     13 H1C1       -1.1420   -0.7030   -2.4060 h2        1 GAF      0.086700
     14 H2          1.0370   -0.0150   -2.0450 h1        1 GAF      0.090700
     15 H3          1.1640   -1.6800    0.2580 h1        1 GAF      0.077700
     16 HA          3.2040   -1.2410    0.0590 ho        1 GAF      0.424000
     17 H4          1.1250    0.2080    1.5150 h1        1 GAF      0.060700
     18 HB          1.8800    1.9840    0.7170 ho        1 GAF      0.424000
     19 H5         -1.0160   -0.5070    1.2030 h1        1 GAF      0.068700
     20 H6C1       -0.9190    2.2440    0.9220 h1        1 GAF      0.066700
     21 H6C2       -0.7960    1.5530    2.2690 h1        1 GAF      0.066700
     22 H6         -2.8920    2.1420    2.0440 ho        1 GAF      0.411000
     23 H1         -1.8570   -2.3930   -1.4690 ho        1 GAF      0.423000
@<TRIPOS>BOND
     1    1    2 1   
     2    1    9 1   
     3    1   12 1   
     4    1   13 1   
     5    2    3 1   
     6    2    4 1   
     7    2   14 1   
     8    4    5 1   
     9    4    6 1   
    10    4   15 1   
    11    5   16 1   
    12    6    7 1   
    13    6    8 1   
    14    6   17 1   
    15    7   18 1   
    16    8    9 1   
    17    8   10 1   
    18    8   19 1   
    19   10   11 1   
    20   10   20 1   
    21   10   21 1   
    22   11   22 1   
    23   12   23 1   
@<TRIPOS>SUBSTRUCTURE
     1 GAF         1 TEMP              0 ****  ****    0 ROOT
