@<TRIPOS>MOLECULE
GAF
   23    23     1     0     0
SMALL
bcc


@<TRIPOS>ATOM
      1 C1          0.0110    0.0040    0.0660 c3        1 GAF      0.314900
      2 C2          1.5560    0.0680    0.1100 c3        1 GAF      0.121600
      3 F2          2.1290   -0.9430   -0.6380 f         1 GAF     -0.228300
      4 C3          2.0200    0.0050    1.5820 c3        1 GAF      0.080100
      5 O3          3.4190    0.2060    1.6770 oh        1 GAF     -0.604800
      6 C4          1.3590    1.1490    2.3690 c3        1 GAF      0.128100
      7 O4          1.7950    2.4130    1.9020 oh        1 GAF     -0.594800
      8 C5         -0.1640    1.0660    2.2130 c3        1 GAF      0.106100
      9 O5         -0.5840    1.0220    0.8450 os        1 GAF     -0.447600
     10 C6         -0.8500    2.3020    2.8060 c3        1 GAF      0.142400
     11 O6         -2.2530    2.1670    2.7700 oh        1 GAF     -0.598800
     12 O1         -0.4090   -1.2200    0.6140 oh        1 GAF     -0.617800
     13 H1C1       -0.3770    0.1670   -0.9780 h2        1 GAF      0.086700
     14 H2          1.8680    1.0640   -0.3240 h1        1 GAF      0.090700
     15 H3          1.7360   -0.9900    2.0220 h1        1 GAF      0.077700
     16 HA          3.8360   -0.4710    1.1280 ho        1 GAF      0.424000
     17 H4          1.6270    1.0430    3.4590 h1        1 GAF      0.060700
     18 HB          2.7620    2.3980    1.9240 ho        1 GAF      0.424000
     19 H5         -0.5240    0.1270    2.7200 h1        1 GAF      0.068700
     20 H6C1       -0.5870    2.3900    3.8930 h1        1 GAF      0.066700
     21 H6C2       -0.5190    3.2190    2.2510 h1        1 GAF      0.066700
     22 H6         -2.5080    2.1120    1.8400 ho        1 GAF      0.411000
     23 H1         -1.3740   -1.2420    0.5670 ho        1 GAF      0.423000
@<TRIPOS>BOND
     1    1    2 1   
     2    1    9 1   
     3    1   12 1   
     4    1   13 1   
     5    2    3 1   
     6    2    4 1   
     7    2   14 1   
     8    4    5 1   
     9    4    6 1   
    10    4   15 1   
    11    5   16 1   
    12    6    7 1   
    13    6    8 1   
    14    6   17 1   
    15    7   18 1   
    16    8    9 1   
    17    8   10 1   
    18    8   19 1   
    19   10   11 1   
    20   10   20 1   
    21   10   21 1   
    22   11   22 1   
    23   12   23 1   
@<TRIPOS>SUBSTRUCTURE
     1 GAF         1 TEMP              0 ****  ****    0 ROOT
