@<TRIPOS>MOLECULE
GAF
   23    23     1     0     0
SMALL
bcc


@<TRIPOS>ATOM
      1 C1          0.0010    0.0110    0.0610 c3        1 GAF      0.314900
      2 C2          1.5470    0.0650    0.0900 c3        1 GAF      0.121600
      3 F2          2.1060   -0.9430   -0.6720 f         1 GAF     -0.228300
      4 C3          2.0260   -0.0120    1.5560 c3        1 GAF      0.080100
      5 O3          3.4270    0.1800    1.6390 oh        1 GAF     -0.604800
      6 C4          1.3790    1.1300    2.3590 c3        1 GAF      0.128100
      7 O4          1.8170    2.3950    1.8960 oh        1 GAF     -0.594800
      8 C5         -0.1460    1.0580    2.2180 c3        1 GAF      0.106100
      9 O5         -0.5800    1.0250    0.8540 os        1 GAF     -0.447600
     10 C6         -0.8180    2.2930    2.8270 c3        1 GAF      0.142400
     11 O6         -2.2230    2.1660    2.8050 oh        1 GAF     -0.598800
     12 O1         -0.4210   -1.2150    0.6050 oh        1 GAF     -0.617800
     13 H1C1       -0.3970    0.1840   -0.9770 h2        1 GAF      0.086700
     14 H2          1.8600    1.0620   -0.3400 h1        1 GAF      0.090700
     15 H3          1.7400   -1.0080    1.9930 h1        1 GAF      0.077700
     16 HA          3.8340   -0.4950    1.0810 ho        1 GAF      0.424000
     17 H4          1.6570    1.0150    3.4450 h1        1 GAF      0.060700
     18 HB          2.7850    2.3740    1.9080 ho        1 GAF      0.424000
     19 H5         -0.5060    0.1170    2.7220 h1        1 GAF      0.068700
     20 H6C1       -0.4880    3.2120    2.2750 h1        1 GAF      0.066700
     21 H6C2       -0.5440    2.3710    3.9120 h1        1 GAF      0.066700
     22 H6         -2.4870    2.1190    1.8770 ho        1 GAF      0.411000
     23 H1         -1.3860   -1.2320    0.5680 ho        1 GAF      0.423000
@<TRIPOS>BOND
     1    1    2 1   
     2    1    9 1   
     3    1   12 1   
     4    1   13 1   
     5    2    3 1   
     6    2    4 1   
     7    2   14 1   
     8    4    5 1   
     9    4    6 1   
    10    4   15 1   
    11    5   16 1   
    12    6    7 1   
    13    6    8 1   
    14    6   17 1   
    15    7   18 1   
    16    8    9 1   
    17    8   10 1   
    18    8   19 1   
    19   10   11 1   
    20   10   20 1   
    21   10   21 1   
    22   11   22 1   
    23   12   23 1   
@<TRIPOS>SUBSTRUCTURE
     1 GAF         1 TEMP              0 ****  ****    0 ROOT
