@<TRIPOS>MOLECULE
GAF
   23    23     1     0     0
SMALL
bcc


@<TRIPOS>ATOM
      1 C1          1.4270   -0.4820   -0.2570 c3        1 GAF      0.314900
      2 C2          0.3900   -0.5290   -1.4040 c3        1 GAF      0.121600
      3 F2          0.9970   -0.4560   -2.6430 f         1 GAF     -0.228300
      4 C3         -0.6250    0.6200   -1.2110 c3        1 GAF      0.080100
      5 O3         -1.6760    0.5260   -2.1560 oh        1 GAF     -0.604800
      6 C4         -1.2740    0.4930    0.1780 c3        1 GAF      0.128100
      7 O4         -2.0400   -0.6940    0.2810 oh        1 GAF     -0.594800
      8 C5         -0.1810    0.4660    1.2540 c3        1 GAF      0.106100
      9 O5          0.8140   -0.5350    1.0150 os        1 GAF     -0.447600
     10 C6         -0.7670    0.1320    2.6300 c3        1 GAF      0.142400
     11 O6          0.2180    0.2280    3.6360 oh        1 GAF     -0.598800
     12 O1          2.1190    0.7400   -0.3190 oh        1 GAF     -0.617800
     13 H1C1        2.1160   -1.3720   -0.2890 h2        1 GAF      0.086700
     14 H2         -0.1600   -1.5130   -1.3250 h1        1 GAF      0.090700
     15 H3         -0.0970    1.6070   -1.3080 h1        1 GAF      0.077700
     16 HA         -1.2660    0.5380   -3.0310 ho        1 GAF      0.424000
     17 H4         -1.9420    1.3830    0.3500 h1        1 GAF      0.060700
     18 HB         -2.6550   -0.6920   -0.4670 ho        1 GAF      0.424000
     19 H5          0.3290    1.4700    1.2690 h1        1 GAF      0.068700
     20 H6C1       -1.2210   -0.8940    2.6080 h1        1 GAF      0.066700
     21 H6C2       -1.5440    0.8950    2.9010 h1        1 GAF      0.066700
     22 H6          0.8890   -0.4370    3.4370 ho        1 GAF      0.411000
     23 H1          2.7660    0.7430    0.3970 ho        1 GAF      0.423000
@<TRIPOS>BOND
     1    1    2 1   
     2    1    9 1   
     3    1   12 1   
     4    1   13 1   
     5    2    3 1   
     6    2    4 1   
     7    2   14 1   
     8    4    5 1   
     9    4    6 1   
    10    4   15 1   
    11    5   16 1   
    12    6    7 1   
    13    6    8 1   
    14    6   17 1   
    15    7   18 1   
    16    8    9 1   
    17    8   10 1   
    18    8   19 1   
    19   10   11 1   
    20   10   20 1   
    21   10   21 1   
    22   11   22 1   
    23   12   23 1   
@<TRIPOS>SUBSTRUCTURE
     1 GAF         1 TEMP              0 ****  ****    0 ROOT
