@<TRIPOS>MOLECULE
GAG
   11     9     1     0     0
SMALL
bcc


@<TRIPOS>ATOM
      1 O20        -1.9770    0.0070   -0.8490 oh        1 GAG     -0.513600
      2 C2         -0.5700    0.0070   -0.8490 ce        1 GAG      0.495500
      3 C1          0.2410    0.0070    0.2670 cg        1 GAG     -0.193200
      4 COO        -0.2260   -0.0190    1.7050 c1        1 GAG      0.852000
      5 O12        -0.3990    1.0610    2.3310 o         1 GAG     -0.787000
      6 O11        -0.4500   -1.1190    2.2750 o         1 GAG     -0.787000
      7 C5          1.5470    0.0070   -0.1580 c1        1 GAG     -0.055400
      8 O4          1.5460    0.0070   -1.5120 os        1 GAG     -0.039100
      9 N3          0.2240    0.0070   -1.9410 n2        1 GAG     -0.567200
     10 H20        -2.2730    0.0440   -1.6850 ho        1 GAG      0.403000
     11 H5          2.3370   -0.0080    0.4150 DU        1 GAG      0.193000
@<TRIPOS>BOND
     1    1    2 1   
     2    1   10 1   
     3    2    3 1   
     4    2    9 2   
     5    3    7 3   
     6    4    5 2   
     7    4    6 2   
     8    7    8 1   
     9    8    9 1   
@<TRIPOS>SUBSTRUCTURE
     1 GAG         1 TEMP              0 ****  ****    0 ROOT
