@<TRIPOS>MOLECULE
GAG
   11    11     1     0     0
SMALL
bcc


@<TRIPOS>ATOM
      1 O20        -1.9590   -0.2220   -1.0360 oh        1 GAG     -0.628300
      2 C2         -0.6080   -0.1120   -1.0890 cc        1 GAG      0.559600
      3 C1          0.3090   -0.0590    0.0670 cc        1 GAG     -0.385200
      4 COO        -0.1320   -0.1200    1.4960 c         1 GAG      0.940200
      5 O12         0.7330   -0.0660    2.4090 o         1 GAG     -0.827300
      6 O11        -1.3820   -0.2250    1.6990 o         1 GAG     -0.827300
      7 C5          1.5450    0.0520   -0.5160 cd        1 GAG      0.265600
      8 O4          1.3840    0.0640   -1.9230 os        1 GAG     -0.177100
      9 N3          0.0970   -0.0340   -2.2470 nd        1 GAG     -0.459300
     10 H20        -2.1870   -0.2580   -0.0750 ho        1 GAG      0.489000
     11 H5          2.5660    0.1280   -0.1650 h4        1 GAG      0.050100
@<TRIPOS>BOND
     1    1    2 1   
     2    1   10 1   
     3    2    3 1   
     4    2    9 2   
     5    3    4 1   
     6    3    7 2   
     7    4    5 1   
     8    4    6 1   
     9    7    8 1   
    10    7   11 1   
    11    8    9 1   
@<TRIPOS>SUBSTRUCTURE
     1 GAG         1 TEMP              0 ****  ****    0 ROOT
