@<TRIPOS>MOLECULE
GAI
    9     8     1     0     0
SMALL
bcc


@<TRIPOS>ATOM
      1 C           0.0600    0.0050   -0.0260 c2        1 GAI      0.737100
      2 N1          1.3500    0.0690   -0.2480 n2        1 GAI     -0.877100
      3 N2         -0.4140   -0.2230    1.3120 nh        1 GAI     -0.908300
      4 N3         -0.9620    0.1640   -1.0180 nh        1 GAI     -0.908300
      5 HN1         1.6240    0.1270   -1.2030 hn        1 GAI      0.391400
      6 HN21        0.3300   -0.2360    1.9810 hn        1 GAI      0.391550
      7 HN22       -1.1250    0.4290    1.5770 hn        1 GAI      0.391550
      8 HN31       -0.6850   -0.1420   -1.9250 hn        1 GAI      0.391550
      9 HN32       -1.8590   -0.1890   -0.7630 hn        1 GAI      0.391550
@<TRIPOS>BOND
     1    1    2 2   
     2    1    3 1   
     3    1    4 1   
     4    2    5 1   
     5    3    6 1   
     6    3    7 1   
     7    4    8 1   
     8    4    9 1   
@<TRIPOS>SUBSTRUCTURE
     1 GAI         1 TEMP              0 ****  ****    0 ROOT
