@<TRIPOS>MOLECULE
GAI
   11    10     1     0     0
SMALL
bcc


@<TRIPOS>ATOM
      1 C           0.0940    0.0620    0.0460 c2        1 GAI      0.616100
      2 N1          1.3450    0.2560   -0.0300 n2        1 GAI     -0.574100
      3 N2         -0.7810    0.0450    1.2780 n4        1 GAI     -0.841100
      4 N3         -0.6520   -0.1890   -1.2370 n4        1 GAI     -0.841100
      5 HN1         1.9840    0.4360    0.7280 hn        1 GAI      0.561400
      6 HN21       -1.5060    0.7800    1.2360 hn        1 GAI      0.513133
      7 HN22       -0.1990    0.2270    2.1180 hn        1 GAI      0.513133
      8 HN31       -1.3630    0.5430   -1.3980 hn        1 GAI      0.513133
      9 HN32        0.0220   -0.1620   -2.0370 hn        1 GAI      0.513133
     10 H23        -1.2340   -0.8750    1.4060 hn        1 GAI      0.513133
     11 H33        -1.0950   -1.1220   -1.2290 hn        1 GAI      0.513133
@<TRIPOS>BOND
     1    1    2 2   
     2    1    3 1   
     3    1    4 1   
     4    2    5 1   
     5    3    6 1   
     6    3    7 1   
     7    3   10 1   
     8    4    8 1   
     9    4    9 1   
    10    4   11 1   
@<TRIPOS>SUBSTRUCTURE
     1 GAI         1 TEMP              0 ****  ****    0 ROOT
