@<TRIPOS>MOLECULE
GAI
   11    10     1     0     0
SMALL
bcc


@<TRIPOS>ATOM
      1 C           0.0920    0.0000    0.0400 c2        1 GAI      0.617100
      2 N1          1.3590    0.0000   -0.0350 n2        1 GAI     -0.577100
      3 N2         -0.7620   -0.0000    1.2880 n4        1 GAI     -0.842600
      4 N3         -0.6830    0.0000   -1.2480 n4        1 GAI     -0.842600
      5 HN1         2.0160    0.0000    0.7280 hn        1 GAI      0.561400
      6 HN21       -0.5400   -0.8420    1.8530 hn        1 GAI      0.513633
      7 HN22       -0.5400    0.8420    1.8530 hn        1 GAI      0.513633
      8 HN31       -1.2690   -0.8480   -1.3250 hn        1 GAI      0.513633
      9 HN32       -0.0130    0.0000   -2.0530 hn        1 GAI      0.513633
     10 H23        -1.7760   -0.0000    1.1050 hn        1 GAI      0.513633
     11 H33        -1.2690    0.8480   -1.3250 hn        1 GAI      0.513633
@<TRIPOS>BOND
     1    1    2 2   
     2    1    3 1   
     3    1    4 1   
     4    2    5 1   
     5    3    6 1   
     6    3    7 1   
     7    3   10 1   
     8    4    8 1   
     9    4    9 1   
    10    4   11 1   
@<TRIPOS>SUBSTRUCTURE
     1 GAI         1 TEMP              0 ****  ****    0 ROOT
