@<TRIPOS>MOLECULE
GAI
   11    10     1     0     0
SMALL
bcc


@<TRIPOS>ATOM
      1 C           0.0920   -0.0660    0.0390 c2        1 GAI      0.616100
      2 N1          1.3400   -0.2760   -0.0580 n2        1 GAI     -0.574100
      3 N2         -0.7640   -0.0610    1.2830 nz        1 GAI     -0.841100
      4 N3         -0.6680    0.2190   -1.2280 nz        1 GAI     -0.841100
      5 HN1         1.9860   -0.4790    0.6860 hn        1 GAI      0.561400
      6 HN21       -0.1730   -0.2660    2.1110 hn        1 GAI      0.513133
      7 HN22       -1.2040    0.8620    1.4350 hn        1 GAI      0.513133
      8 HN31       -1.3920   -0.5000   -1.3930 hn        1 GAI      0.513133
      9 HN32       -0.0050    0.1980   -2.0380 hn        1 GAI      0.513133
     10 H23        -1.4990   -0.7870    1.2390 hn        1 GAI      0.513133
     11 H33        -1.0980    1.1580   -1.1960 hn        1 GAI      0.513133
@<TRIPOS>BOND
     1    1    2 2   
     2    1    3 1   
     3    1    4 1   
     4    2    5 1   
     5    3    6 1   
     6    3    7 1   
     7    3   10 1   
     8    4    8 1   
     9    4    9 1   
    10    4   11 1   
@<TRIPOS>SUBSTRUCTURE
     1 GAI         1 TEMP              0 ****  ****    0 ROOT
