@<TRIPOS>MOLECULE
GAJ
   33    36     1     0     0
SMALL
bcc


@<TRIPOS>ATOM
      1 O2         -2.7530    2.2120    1.8430 o         1 GAJ     -0.667300
      2 S          -2.2660    0.9040    1.6760 sy        1 GAJ      1.697700
      3 O1         -2.1310    0.1480    2.8510 o         1 GAJ     -0.667300
      4 N4         -3.1050    0.1330    0.6270 ne        1 GAJ     -1.055300
      5 C14        -3.7820   -0.4600   -0.2570 cd        1 GAJ      1.039100
      6 N          -3.7480   -1.8410   -0.6840 na        1 GAJ     -0.564300
      7 N1         -4.6830   -2.0350   -1.6410 n2        1 GAJ     -0.069700
      8 N2         -5.2430   -0.9440   -1.9430 n2        1 GAJ     -0.069700
      9 N3         -4.7300    0.0720   -1.2130 na        1 GAJ     -0.564300
     10 C1         -0.7400    1.0100    0.9290 ca        1 GAJ     -0.404500
     11 C           0.1500   -0.0610    0.9620 ca        1 GAJ      0.070000
     12 C2         -0.3460    2.2030    0.2990 ca        1 GAJ      0.025000
     13 C3          0.9010    2.3320   -0.2900 ca        1 GAJ     -0.188000
     14 C4          1.7820    1.2330   -0.2540 ca        1 GAJ      0.210100
     15 O7          3.0010    1.4400   -0.8660 os        1 GAJ     -0.218200
     16 C6          3.9120    0.3930   -0.8300 ca        1 GAJ      0.145100
     17 C8          5.1500    0.6640   -1.4400 ca        1 GAJ     -0.156000
     18 C9          6.1190   -0.3310   -1.4510 ca        1 GAJ     -0.075000
     19 C10         5.8680   -1.5780   -0.8680 ca        1 GAJ     -0.163000
     20 C11         4.6420   -1.8370   -0.2680 ca        1 GAJ     -0.045000
     21 C12         3.6430   -0.8520   -0.2410 ca        1 GAJ     -0.214600
     22 C13         2.3410   -1.1150    0.3900 c         1 GAJ      0.604300
     23 C5          1.4160    0.0270    0.3670 ca        1 GAJ     -0.251600
     24 O           2.0440   -2.2080    0.8920 o         1 GAJ     -0.536100
     25 H          -3.4340   -2.6070   -0.1300 hn        1 GAJ      0.503300
     26 H3         -5.2440    0.9180   -1.1020 hn        1 GAJ      0.503300
     27 HA         -0.1230   -1.0020    1.4770 ha        1 GAJ      0.173000
     28 H2         -1.0450    3.0610    0.2920 ha        1 GAJ      0.167000
     29 HB          1.2150    3.2660   -0.7780 ha        1 GAJ      0.163000
     30 H8          5.3290    1.6500   -1.8930 ha        1 GAJ      0.158000
     31 H9          7.0940   -0.1340   -1.9240 ha        1 GAJ      0.143000
     32 H10         6.6470   -2.3560   -0.8840 ha        1 GAJ      0.144000
     33 H11         4.4300   -2.8150    0.1960 ha        1 GAJ      0.162000
@<TRIPOS>BOND
     1    1    2 2   
     2    2    3 2   
     3    2    4 1   
     4    2   10 1   
     5    4    5 2   
     6    5    6 1   
     7    5    9 1   
     8    6    7 1   
     9    6   25 1   
    10    7    8 2   
    11    8    9 1   
    12    9   26 1   
    13   10   11 ar  
    14   10   12 ar  
    15   11   23 ar  
    16   11   27 1   
    17   12   13 ar  
    18   12   28 1   
    19   13   14 ar  
    20   13   29 1   
    21   14   15 1   
    22   14   23 ar  
    23   15   16 1   
    24   16   17 ar  
    25   16   21 ar  
    26   17   18 ar  
    27   17   30 1   
    28   18   19 ar  
    29   18   31 1   
    30   19   20 ar  
    31   19   32 1   
    32   20   21 ar  
    33   20   33 1   
    34   21   22 1   
    35   22   23 1   
    36   22   24 2   
@<TRIPOS>SUBSTRUCTURE
     1 GAJ         1 TEMP              0 ****  ****    0 ROOT
