@<TRIPOS>MOLECULE
GAJ
   33    36     1     0     0
SMALL
bcc


@<TRIPOS>ATOM
      1 O2         -0.3820    0.6830    0.7920 o         1 GAJ     -0.667300
      2 S           1.0200    0.5710    0.7730 sy        1 GAJ      1.697700
      3 O1          1.6750    0.9000    1.9700 o         1 GAJ     -0.667300
      4 N4          1.4550   -0.8320    0.2830 ne        1 GAJ     -1.055300
      5 C14         1.7820   -1.9690   -0.1530 cd        1 GAJ      1.039100
      6 N           3.0840   -2.5940   -0.2370 na        1 GAJ     -0.564300
      7 N1          2.9490   -3.8410   -0.7440 n2        1 GAJ     -0.069700
      8 N2          1.7500   -4.0570   -1.0760 n2        1 GAJ     -0.069700
      9 N3          0.9820   -2.9740   -0.8210 na        1 GAJ     -0.564300
     10 C1          1.6050    1.5940   -0.4550 ca        1 GAJ     -0.404500
     11 C           2.9410    1.9880   -0.4850 ca        1 GAJ      0.070000
     12 C2          0.7290    2.0860   -1.4380 ca        1 GAJ      0.025000
     13 C3          1.1670    2.9450   -2.4330 ca        1 GAJ     -0.188000
     14 C4          2.5250    3.3230   -2.4500 ca        1 GAJ      0.210100
     15 O7          2.8810    4.1760   -3.4730 os        1 GAJ     -0.218200
     16 C6          4.2050    4.5960   -3.5130 ca        1 GAJ      0.145100
     17 C8          4.5110    5.4890   -4.5560 ca        1 GAJ     -0.156000
     18 C9          5.8140    5.9570   -4.6700 ca        1 GAJ     -0.075000
     19 C10         6.8010    5.5480   -3.7660 ca        1 GAJ     -0.163000
     20 C11         6.4890    4.6650   -2.7400 ca        1 GAJ     -0.045000
     21 C12         5.1810    4.1750   -2.5980 ca        1 GAJ     -0.214600
     22 C13         4.8400    3.2400   -1.5160 c         1 GAJ      0.604300
     23 C5          3.4240    2.8460   -1.4810 ca        1 GAJ     -0.251600
     24 O           5.6750    2.8120   -0.7060 o         1 GAJ     -0.536100
     25 H           3.8680   -2.3700    0.3360 hn        1 GAJ      0.503300
     26 H3         -0.0060   -3.0690   -0.7380 hn        1 GAJ      0.503300
     27 HA          3.6460    1.6380    0.2940 ha        1 GAJ      0.173000
     28 H2         -0.3370    1.7900   -1.4020 ha        1 GAJ      0.167000
     29 HB          0.4830    3.3380   -3.1990 ha        1 GAJ      0.163000
     30 H8          3.7220    5.7990   -5.2560 ha        1 GAJ      0.158000
     31 H9          6.0690    6.6570   -5.4810 ha        1 GAJ      0.143000
     32 H10         7.8280    5.9290   -3.8700 ha        1 GAJ      0.144000
     33 H11         7.2560    4.3340   -2.0200 ha        1 GAJ      0.162000
@<TRIPOS>BOND
     1    1    2 2   
     2    2    3 2   
     3    2    4 1   
     4    2   10 1   
     5    4    5 2   
     6    5    6 1   
     7    5    9 1   
     8    6    7 1   
     9    6   25 1   
    10    7    8 2   
    11    8    9 1   
    12    9   26 1   
    13   10   11 ar  
    14   10   12 ar  
    15   11   23 ar  
    16   11   27 1   
    17   12   13 ar  
    18   12   28 1   
    19   13   14 ar  
    20   13   29 1   
    21   14   15 1   
    22   14   23 ar  
    23   15   16 1   
    24   16   17 ar  
    25   16   21 ar  
    26   17   18 ar  
    27   17   30 1   
    28   18   19 ar  
    29   18   31 1   
    30   19   20 ar  
    31   19   32 1   
    32   20   21 ar  
    33   20   33 1   
    34   21   22 1   
    35   22   23 1   
    36   22   24 2   
@<TRIPOS>SUBSTRUCTURE
     1 GAJ         1 TEMP              0 ****  ****    0 ROOT
