@<TRIPOS>MOLECULE
GAJ
   33    36     1     0     0
SMALL
bcc


@<TRIPOS>ATOM
      1 O2         -0.3130    0.6410    0.8650 o         1 GAJ     -0.667300
      2 S           1.0870    0.5230    0.8020 sy        1 GAJ      1.697700
      3 O1          1.7780    0.8210    1.9870 o         1 GAJ     -0.667300
      4 N4          1.5000   -0.8700    0.2670 ne        1 GAJ     -1.055300
      5 C14         1.8060   -1.9990   -0.2050 cd        1 GAJ      1.039100
      6 N           3.1010   -2.6270   -0.3460 na        1 GAJ     -0.563800
      7 N1          2.9430   -3.8610   -0.8750 n2        1 GAJ     -0.069700
      8 N2          1.7330   -4.0650   -1.1730 n2        1 GAJ     -0.069700
      9 N3          0.9790   -2.9840   -0.8680 na        1 GAJ     -0.563800
     10 C1          1.6410    1.5720   -0.4180 ca        1 GAJ     -0.404500
     11 C           2.9780    1.9600   -0.4780 ca        1 GAJ      0.070000
     12 C2          0.7390    2.0910   -1.3640 ca        1 GAJ      0.025000
     13 C3          1.1530    2.9710   -2.3500 ca        1 GAJ     -0.188000
     14 C4          2.5110    3.3420   -2.3980 ca        1 GAJ      0.210100
     15 O7          2.8430    4.2180   -3.4110 os        1 GAJ     -0.218200
     16 C6          4.1670    4.6330   -3.4800 ca        1 GAJ      0.145100
     17 C8          4.4470    5.5480   -4.5100 ca        1 GAJ     -0.156000
     18 C9          5.7480    6.0130   -4.6520 ca        1 GAJ     -0.075000
     19 C10         6.7600    5.5790   -3.7870 ca        1 GAJ     -0.163000
     20 C11         6.4730    4.6730   -2.7720 ca        1 GAJ     -0.045000
     21 C12         5.1670    4.1850   -2.6040 ca        1 GAJ     -0.214600
     22 C13         4.8530    3.2270   -1.5350 c         1 GAJ      0.604300
     23 C5          3.4360    2.8390   -1.4680 ca        1 GAJ     -0.251600
     24 O           5.7080    2.7760   -0.7610 o         1 GAJ     -0.536100
     25 H           3.9050   -2.4180    0.2050 hn        1 GAJ      0.503300
     26 H3         -0.0060   -3.0780   -0.7540 hn        1 GAJ      0.503300
     27 HA          3.7030    1.5880    0.2710 ha        1 GAJ      0.173000
     28 H2         -0.3270    1.8000   -1.3030 ha        1 GAJ      0.167000
     29 HB          0.4500    3.3850   -3.0870 ha        1 GAJ      0.163000
     30 H8          3.6400    5.8790   -5.1790 ha        1 GAJ      0.158000
     31 H9          5.9840    6.7310   -5.4530 ha        1 GAJ      0.143000
     32 H10         7.7850    5.9570   -3.9120 ha        1 GAJ      0.144000
     33 H11         7.2590    4.3220   -2.0830 ha        1 GAJ      0.162000
@<TRIPOS>BOND
     1    1    2 2   
     2    2    3 2   
     3    2    4 1   
     4    2   10 1   
     5    4    5 2   
     6    5    6 1   
     7    5    9 1   
     8    6    7 1   
     9    6   25 1   
    10    7    8 2   
    11    8    9 1   
    12    9   26 1   
    13   10   11 ar  
    14   10   12 ar  
    15   11   23 ar  
    16   11   27 1   
    17   12   13 ar  
    18   12   28 1   
    19   13   14 ar  
    20   13   29 1   
    21   14   15 1   
    22   14   23 ar  
    23   15   16 1   
    24   16   17 ar  
    25   16   21 ar  
    26   17   18 ar  
    27   17   30 1   
    28   18   19 ar  
    29   18   31 1   
    30   19   20 ar  
    31   19   32 1   
    32   20   21 ar  
    33   20   33 1   
    34   21   22 1   
    35   22   23 1   
    36   22   24 2   
@<TRIPOS>SUBSTRUCTURE
     1 GAJ         1 TEMP              0 ****  ****    0 ROOT
