@<TRIPOS>MOLECULE
GAJ
   33    25     1     0     0
SMALL
bcc


@<TRIPOS>ATOM
      1 O2         -3.1150   -2.0550    1.5770 o         1 GAJ     -0.946500
      2 S          -1.7480   -2.2440    1.1750 ss        1 GAJ      2.972000
      3 O1         -1.1080   -2.4370    2.4470 o         1 GAJ     -0.946500
      4 N4         -1.5860   -3.5690    0.2190 n1        1 GAJ     -1.039000
      5 C14        -2.1370   -4.6980    0.5710 c1        1 GAJ      0.447000
      6 N          -2.0820   -5.8510   -0.1160 n1        1 GAJ     -0.293000
      7 N1         -2.7710   -6.7780    0.5720 n2        1 GAJ      0.018000
      8 N2         -3.2520   -6.1980    1.6830 n2        1 GAJ      0.016000
      9 N3         -2.8600   -4.9110    1.6830 n2        1 GAJ     -0.295000
     10 C1         -1.1160   -0.8090    0.3470 c1        1 GAJ     -0.849000
     11 C           0.0830   -0.2210    0.7340 c2        1 GAJ      0.070000
     12 C2         -1.8670   -0.2490   -0.6840 c1        1 GAJ      0.025000
     13 C3         -1.4170    0.8990   -1.3270 c1        1 GAJ     -0.188000
     14 C4         -0.2030    1.4950   -0.9370 c1        1 GAJ      0.165000
     15 O7          0.2410    2.6530   -1.5730 o         1 GAJ     -0.212500
     16 C6          1.4370    3.2520   -1.1790 c1        1 GAJ      0.212000
     17 C8          1.8800    4.4270   -1.8140 c1        1 GAJ     -0.109750
     18 C9          3.0670    5.0290   -1.4140 c1        1 GAJ     -0.109750
     19 C10         3.8190    4.4700   -0.3830 c1        1 GAJ     -0.109750
     20 C11         3.3830    3.3100    0.2460 c1        1 GAJ     -0.109750
     21 C12         2.1810    2.6990   -0.1580 c1        1 GAJ     -0.194000
     22 C13         1.7370    1.5390    0.4800 c1        1 GAJ      0.212000
     23 C5          0.5390    0.9400    0.0830 c1        1 GAJ     -0.231000
     24 O           2.3780    1.0670    1.3980 o         1 GAJ     -0.212500
     25 H          -1.6520   -5.9820   -0.9100 DU        1 GAJ      0.298500
     26 H3         -3.0520   -4.2930    2.3250 DU        1 GAJ      0.298500
     27 HA          0.5960   -0.6010    1.4720 ha        1 GAJ      0.173000
     28 H2         -2.7190   -0.6500   -0.9410 ha        1 GAJ      0.167000
     29 HB         -1.9430    1.2910   -2.0500 ha        1 GAJ      0.163000
     30 H8          1.3540    4.8190   -2.5370 ha        1 GAJ      0.151750
     31 H9          3.3740    5.8440   -1.8550 ha        1 GAJ      0.151750
     32 H10         4.6520    4.8940   -0.1020 ha        1 GAJ      0.151750
     33 H11         3.9100    2.9190    0.9680 ha        1 GAJ      0.151750
@<TRIPOS>BOND
     1    1    2 1   
     2    2    3 1   
     3    4    5 1   
     4    5    9 1   
     5    6    7 1   
     6    7    8 1   
     7    8    9 1   
     8   10   11 1   
     9   10   12 1   
    10   11   23 1   
    11   11   27 1   
    12   12   28 1   
    13   13   14 1   
    14   13   29 1   
    15   14   23 1   
    16   15   16 1   
    17   16   21 1   
    18   17   18 1   
    19   17   30 1   
    20   18   31 1   
    21   19   20 1   
    22   19   32 1   
    23   20   33 1   
    24   21   22 1   
    25   22   24 1   
@<TRIPOS>SUBSTRUCTURE
     1 GAJ         1 TEMP              0 ****  ****    0 ROOT
