@<TRIPOS>MOLECULE
GAL
   24    24     1     0     0
SMALL
bcc


@<TRIPOS>ATOM
      1 C1          0.4040    1.4040   -0.3550 c3        1 GAL      0.315900
      2 C2          1.4640    0.3660    0.0640 c3        1 GAL      0.050100
      3 C3          1.1250   -0.9970   -0.5530 c3        1 GAL      0.113100
      4 C4         -0.3070   -1.4010   -0.1570 c3        1 GAL      0.121100
      5 C5         -1.2850   -0.2770   -0.5250 c3        1 GAL      0.113100
      6 C6         -2.6840   -0.5520    0.0370 c3        1 GAL      0.142400
      7 O1          0.5620    2.6070    0.3470 oh        1 GAL     -0.596800
      8 O2          2.7440    0.7310   -0.4200 oh        1 GAL     -0.603800
      9 O3          1.9810   -2.0090   -0.0520 oh        1 GAL     -0.607800
     10 O4         -0.4090   -1.6440    1.2340 oh        1 GAL     -0.594800
     11 O5         -0.9000    0.9880    0.0190 os        1 GAL     -0.450600
     12 O6         -3.6190    0.3790   -0.4590 oh        1 GAL     -0.597800
     13 H1          0.4710    1.6500   -1.4500 h2        1 GAL      0.084700
     14 H2          1.4880    0.2770    1.1860 h1        1 GAL      0.070700
     15 H3          1.2190   -0.9430   -1.6730 h1        1 GAL      0.059700
     16 H4         -0.5900   -2.3360   -0.7180 h1        1 GAL      0.060700
     17 H5         -1.3230   -0.1860   -1.6470 h1        1 GAL      0.058700
     18 H61        -3.0410   -1.5540   -0.3210 h1        1 GAL      0.067200
     19 H62        -2.6490   -0.5310    1.1590 h1        1 GAL      0.067200
     20 HO1         0.1630    2.5000    1.2230 ho        1 GAL      0.430000
     21 HO2         2.8940    1.6450   -0.1410 ho        1 GAL      0.425000
     22 HO3         2.8860   -1.6890   -0.1700 ho        1 GAL      0.431000
     23 HO4         0.3080   -2.2530    1.4630 ho        1 GAL      0.426000
     24 HO6        -3.3340    1.2530   -0.1610 ho        1 GAL      0.413000
@<TRIPOS>BOND
     1    1    2 1   
     2    1    7 1   
     3    1   11 1   
     4    1   13 1   
     5    2    3 1   
     6    2    8 1   
     7    2   14 1   
     8    3    4 1   
     9    3    9 1   
    10    3   15 1   
    11    4    5 1   
    12    4   10 1   
    13    4   16 1   
    14    5    6 1   
    15    5   11 1   
    16    5   17 1   
    17    6   12 1   
    18    6   18 1   
    19    6   19 1   
    20    7   20 1   
    21    8   21 1   
    22    9   22 1   
    23   10   23 1   
    24   12   24 1   
@<TRIPOS>SUBSTRUCTURE
     1 GAL         1 TEMP              0 ****  ****    0 ROOT
