@<TRIPOS>MOLECULE
GAM
   20    19     1     0     0
SMALL
bcc


@<TRIPOS>ATOM
      1 CB2        -1.2780    1.3840   -1.1070 c3        1 GAM     -0.049100
      2 CB1         0.2800    0.0130    0.3000 c3        1 GAM     -0.058400
      3 CG         -0.5530    0.1960    1.5480 c3        1 GAM     -0.178400
      4 CD          0.2050   -0.1350    2.8390 c         1 GAM      0.902600
      5 OE1         0.3140    0.7710    3.7240 o         1 GAM     -0.878300
      6 OE2         0.6540   -1.3070    3.0200 o         1 GAM     -0.878300
      7 C           0.5180    0.0520   -2.1980 c         1 GAM      0.898600
      8 O           1.2440    1.0750   -2.3560 o         1 GAM     -0.862800
      9 OXT         0.5820   -0.9580   -2.9630 o         1 GAM     -0.862800
     10 CA         -0.5280    0.0480   -1.0180 c3        1 GAM      0.044200
     11 N          -1.4820   -1.0660   -1.1260 n3        1 GAM     -0.908800
     12 H21        -2.0380    1.4780   -0.2950 hc        1 GAM      0.012700
     13 H22        -0.5330    2.2110   -1.0160 hc        1 GAM      0.012700
     14 H23        -1.7940    1.4770   -2.0920 hc        1 GAM      0.012700
     15 H11         0.8310   -0.9620    0.3690 hc        1 GAM      0.046200
     16 H12         1.0480    0.8280    0.2390 hc        1 GAM      0.046200
     17 HG1        -0.9160    1.2540    1.6080 hc        1 GAM      0.016200
     18 HG2        -1.4550   -0.4690    1.5160 hc        1 GAM      0.016200
     19 HN1        -1.3300   -1.5200   -2.0120 hn        1 GAM      0.334300
     20 HN2        -1.2780   -1.7380   -0.4100 hn        1 GAM      0.334300
@<TRIPOS>BOND
     1    1   10 1   
     2    1   12 1   
     3    1   13 1   
     4    1   14 1   
     5    2    3 1   
     6    2   10 1   
     7    2   15 1   
     8    2   16 1   
     9    3    4 1   
    10    3   17 1   
    11    3   18 1   
    12    4    5 1   
    13    4    6 1   
    14    7    8 1   
    15    7    9 1   
    16    7   10 1   
    17   10   11 1   
    18   11   19 1   
    19   11   20 1   
@<TRIPOS>SUBSTRUCTURE
     1 GAM         1 TEMP              0 ****  ****    0 ROOT
