@<TRIPOS>MOLECULE
GAO
   36    35     1     0     0
SMALL
bcc


@<TRIPOS>ATOM
      1 OP3         1.8530    6.0190    0.3160 o         1 GAO     -0.925833
      2 P           1.2500    4.7200    0.7420 p5        1 GAO      1.562500
      3 OP1        -0.2020    4.9050    0.9870 o         1 GAO     -0.925833
      4 OP2         1.9370    4.2350    2.0460 o         1 GAO     -0.925833
      5 O5'         1.4610    3.6340   -0.4090 os        1 GAO     -0.729000
      6 C5'         0.8460    2.3680   -0.2650 c3        1 GAO      0.065000
      7 C4'         1.6780    1.3050   -0.9990 c3        1 GAO     -0.053000
      8 O4'         1.4160   -0.1000   -0.3790 os        1 GAO     -0.265000
      9 C3'         1.3060    1.2100   -2.1960 c3        1 GAO      0.024000
     10 O3'         2.4480    0.8230   -3.0520 oh        1 GAO     -0.407000
     11 C2'         0.1670    0.0510   -2.2260 c3        1 GAO     -0.013000
     12 O2'        -1.1370    0.6130   -1.8030 oh        1 GAO     -0.344000
     13 C1'         0.5480   -0.8430   -1.4060 c3        1 GAO      0.134000
     14 N9         -0.6160   -1.4630   -0.7440 n3        1 GAO     -0.141000
     15 C8         -1.3970   -2.1280   -1.6130 c1        1 GAO     -0.095000
     16 N7         -2.1530   -2.9990   -0.9130 n2        1 GAO     -0.104000
     17 C5         -1.8360   -2.8700    0.3990 c1        1 GAO     -0.258000
     18 C6         -2.4050   -3.5220    1.6600 c1        1 GAO      0.396000
     19 O6         -3.1860   -4.4220    1.5680 o         1 GAO     -0.387000
     20 N1         -1.9230   -3.1490    2.9130 n3        1 GAO     -0.341000
     21 C2         -0.8980   -2.1590    3.0170 c2        1 GAO      0.169000
     22 N2         -0.2990   -1.9000    4.2730 n3        1 GAO     -0.305000
     23 N3         -0.3640   -1.5490    1.8300 n1        1 GAO     -0.150000
     24 C4         -0.8890   -1.9240    0.5050 c1        1 GAO      0.072000
     25 H5'         0.7930    2.1410    0.6740 h1        1 GAO      0.049000
     26 H5''       -0.0920    2.3980   -0.6600 h1        1 GAO      0.049000
     27 H4'         2.5950    1.5160   -0.9580 h1        1 GAO      0.130000
     28 H3'         0.9430    2.0310   -2.4890 h1        1 GAO      0.135000
     29 HO3'        2.4430    1.3050   -3.7790 ho        1 GAO      0.316000
     30 H2'         0.0990   -0.3080   -3.0810 h1        1 GAO      0.122000
     31 HO2'       -1.5970    0.8410   -2.5070 ho        1 GAO      0.220000
     32 H1'         1.0890   -1.5380   -1.8770 h2        1 GAO      0.088000
     33 H8         -1.4190   -1.9970   -2.5830 DU        1 GAO      0.214000
     34 H1         -2.2160   -3.5930    3.6740 hn        1 GAO      0.236000
     35 H21         0.4140   -1.4150    4.3200 hn        1 GAO      0.193000
     36 H22        -0.6560   -2.2370    5.0140 hn        1 GAO      0.193000
@<TRIPOS>BOND
     1    1    2 1   
     2    2    3 1   
     3    2    4 1   
     4    2    5 1   
     5    5    6 1   
     6    6    7 1   
     7    6   25 1   
     8    6   26 1   
     9    7    8 1   
    10    7    9 1   
    11    7   27 1   
    12    8   13 1   
    13    9   10 1   
    14    9   11 1   
    15    9   28 1   
    16   10   29 1   
    17   11   12 1   
    18   11   13 1   
    19   11   30 1   
    20   12   31 1   
    21   13   14 1   
    22   13   32 1   
    23   14   15 1   
    24   14   24 1   
    25   15   16 1   
    26   16   17 1   
    27   17   24 1   
    28   18   19 1   
    29   18   20 1   
    30   20   21 1   
    31   20   34 1   
    32   21   22 1   
    33   21   23 1   
    34   22   35 1   
    35   22   36 1   
@<TRIPOS>SUBSTRUCTURE
     1 GAO         1 TEMP              0 ****  ****    0 ROOT
