@<TRIPOS>MOLECULE
GAO
   36    38     1     0     0
SMALL
bcc


@<TRIPOS>ATOM
      1 OP3        -0.0430    0.6460    6.0520 o         1 GAO     -0.929500
      2 P          -0.0070    1.0250    4.6060 p5        1 GAO      1.331900
      3 OP1        -1.0710    1.9370    4.0690 o         1 GAO     -0.929500
      4 OP2         1.3580    1.2520    3.9830 o         1 GAO     -0.929500
      5 O5'        -0.3890   -0.4660    3.7750 os        1 GAO     -0.552200
      6 C5'        -0.4710   -0.3320    2.4190 c3        1 GAO      0.227400
      7 C4'         0.8230   -0.8500    1.7420 c3        1 GAO      0.053100
      8 O4'         0.5010   -1.4890    0.4770 os        1 GAO     -0.432600
      9 C3'         1.8610    0.2530    1.4690 c3        1 GAO      0.129100
     10 O3'         3.0410    0.0310    2.2050 oh        1 GAO     -0.665800
     11 C2'         2.1980    0.1420   -0.0340 c3        1 GAO      0.097100
     12 O2'         2.2810    1.3780   -0.6990 oh        1 GAO     -0.600800
     13 C1'         1.1070   -0.8210   -0.6130 c3        1 GAO      0.215800
     14 N9          0.0750   -0.1910   -1.4320 na        1 GAO     -0.173900
     15 C8         -1.1000    0.4610   -1.0020 cc        1 GAO      0.443400
     16 N7         -1.8800    0.8850   -2.0220 nd        1 GAO     -0.628000
     17 C5         -1.2040    0.4930   -3.1760 cd        1 GAO      0.193800
     18 C6         -1.5350    0.6760   -4.5720 c         1 GAO      0.645000
     19 O6         -2.5270    1.2340   -5.0740 o         1 GAO     -0.644500
     20 N1         -0.5880    0.1210   -5.4710 n         1 GAO     -0.497400
     21 C2          0.5880   -0.5200   -5.0310 cd        1 GAO      0.595800
     22 N2          1.4880   -0.9550   -6.0720 nh        1 GAO     -0.866800
     23 N3          0.9160   -0.7200   -3.7470 nc        1 GAO     -0.618100
     24 C4          0.0230   -0.1900   -2.8260 cc        1 GAO      0.064800
     25 H5'        -0.6490    0.7440    2.1280 h1        1 GAO     -0.003300
     26 H5''       -1.3200   -0.9640    2.0210 h1        1 GAO     -0.003300
     27 H4'         1.2700   -1.6660    2.3720 h1        1 GAO      0.084700
     28 H3'         1.4450    1.2700    1.7260 h1        1 GAO      0.118700
     29 HO3'        2.8430    0.3690    3.1100 ho        1 GAO      0.502000
     30 H2'         3.2030   -0.3390   -0.1880 h1        1 GAO      0.082700
     31 HO2'        1.6480    1.9790   -0.2820 ho        1 GAO      0.415000
     32 H1'         1.5820   -1.6200   -1.2560 h2        1 GAO      0.072700
     33 H8         -1.3180    0.5730    0.0770 h5        1 GAO      0.116100
     34 H1         -0.7250    0.2830   -6.4430 hn        1 GAO      0.322500
     35 H21         2.3890   -1.1800   -5.6950 hn        1 GAO      0.381300
     36 H22         1.1050   -1.7470   -6.5500 hn        1 GAO      0.381300
@<TRIPOS>BOND
     1    1    2 1   
     2    2    3 1   
     3    2    4 1   
     4    2    5 1   
     5    5    6 1   
     6    6    7 1   
     7    6   25 1   
     8    6   26 1   
     9    7    8 1   
    10    7    9 1   
    11    7   27 1   
    12    8   13 1   
    13    9   10 1   
    14    9   11 1   
    15    9   28 1   
    16   10   29 1   
    17   11   12 1   
    18   11   13 1   
    19   11   30 1   
    20   12   31 1   
    21   13   14 1   
    22   13   32 1   
    23   14   15 1   
    24   14   24 1   
    25   15   16 2   
    26   15   33 1   
    27   16   17 1   
    28   17   18 1   
    29   17   24 2   
    30   18   19 2   
    31   18   20 1   
    32   20   21 1   
    33   20   34 1   
    34   21   22 1   
    35   21   23 2   
    36   22   35 1   
    37   22   36 1   
    38   23   24 1   
@<TRIPOS>SUBSTRUCTURE
     1 GAO         1 TEMP              0 ****  ****    0 ROOT
