@<TRIPOS>MOLECULE
GAP
   45    47     1     0     0
SMALL
bcc


@<TRIPOS>ATOM
      1 N           1.5990    1.4040    1.5840 n3        1 GAP     -0.944800
      2 CA          2.7000    1.8200    0.7580 c3        1 GAP      0.090800
      3 C           4.0060    1.0980    1.0430 c         1 GAP      0.714100
      4 O           4.9760    1.0650    0.2940 o         1 GAP     -0.473000
      5 PA          4.3960    0.7190    3.7040 p5        1 GAP      1.734500
      6 O1A         3.0110    0.3570    4.3580 oh        1 GAP     -0.748400
      7 O2A         4.9750    2.0340    3.9230 o         1 GAP     -0.839300
      8 O3A         4.1170    0.3400    2.1730 os        1 GAP     -0.669500
      9 C5'         6.4280   -0.8700    3.3560 c3        1 GAP      0.178400
     10 O5'         5.3410   -0.4830    4.1650 os        1 GAP     -0.587200
     11 C4'         7.7770   -0.5780    4.0150 c3        1 GAP      0.110100
     12 O4'         8.2180    0.7280    3.5940 os        1 GAP     -0.422600
     13 C3'         7.7760   -0.6120    5.5540 c3        1 GAP      0.089100
     14 O3'         8.6650   -1.6400    5.9520 oh        1 GAP     -0.594800
     15 C2'         8.3410    0.7570    5.9980 c3        1 GAP      0.087100
     16 O2'         9.3360    0.6570    6.9790 oh        1 GAP     -0.572800
     17 C1'         8.9180    1.3650    4.6770 c3        1 GAP      0.216800
     18 N9          8.7940    2.8000    4.5540 na        1 GAP     -0.250000
     19 C8          7.6280    3.5880    4.4180 cc        1 GAP      0.536700
     20 N7          7.8740    4.9080    4.2790 nd        1 GAP     -0.610100
     21 C5          9.2640    5.0230    4.3040 ca        1 GAP     -0.120200
     22 C6         10.1610    6.0970    4.2110 ca        1 GAP      0.498200
     23 N6          9.6100    7.4550    4.0530 n4        1 GAP     -0.812300
     24 N1         11.5080    5.9230    4.2620 nb        1 GAP     -0.682000
     25 C2         11.9500    4.6440    4.4110 ca        1 GAP      0.665900
     26 N3         11.2230    3.4970    4.5200 nb        1 GAP     -0.620000
     27 C4          9.8850    3.6840    4.4670 ca        1 GAP      0.460800
     28 H1          0.8930    2.1100    1.6250 hn        1 GAP      0.379300
     29 H2A         2.3460   -0.0620    3.8100 ho        1 GAP      0.509000
     30 H3          1.2070    0.5410    1.2670 hn        1 GAP      0.379300
     31 HA1         2.9050    2.9180    0.9310 h1        1 GAP      0.082200
     32 HA2         2.5150    1.6780   -0.3500 h1        1 GAP      0.082200
     33 H5'1        6.3450   -1.9870    3.2220 h1        1 GAP      0.081700
     34 H5'2        6.3680   -0.3540    2.3570 h1        1 GAP      0.081700
     35 H4'         8.5330   -1.3150    3.6150 h1        1 GAP      0.100700
     36 H3'         6.7460   -0.7820    5.9660 h1        1 GAP      0.099700
     37 HO'3        8.3950   -1.9270    6.8350 ho        1 GAP      0.430000
     38 H2'         7.5410    1.4050    6.4490 h1        1 GAP      0.105700
     39 HO'2        9.9450   -0.0540    6.7250 ho        1 GAP      0.428000
     40 H1'        10.0170    1.1030    4.5800 h2        1 GAP      0.109700
     41 H8          6.6080    3.1380    4.4190 h5        1 GAP      0.169800
     42 H61         9.0370    7.6700    4.8790 hn        1 GAP      0.475133
     43 H62         9.0120    7.4670    3.2170 hn        1 GAP      0.475133
     44 H2         13.0580    4.5220    4.4480 h5        1 GAP      0.096100
     45 H63        10.3580    8.1530    3.9580 hn        1 GAP      0.475133
@<TRIPOS>BOND
     1    1    2 1   
     2    1   28 1   
     3    1   30 1   
     4    2    3 1   
     5    2   31 1   
     6    2   32 1   
     7    3    4 2   
     8    3    8 1   
     9    5    6 1   
    10    5    7 2   
    11    5    8 1   
    12    5   10 1   
    13    6   29 1   
    14    9   10 1   
    15    9   11 1   
    16    9   33 1   
    17    9   34 1   
    18   11   12 1   
    19   11   13 1   
    20   11   35 1   
    21   12   17 1   
    22   13   14 1   
    23   13   15 1   
    24   13   36 1   
    25   14   37 1   
    26   15   16 1   
    27   15   17 1   
    28   15   38 1   
    29   16   39 1   
    30   17   18 1   
    31   17   40 1   
    32   18   19 1   
    33   18   27 1   
    34   19   20 2   
    35   19   41 1   
    36   20   21 1   
    37   21   22 ar  
    38   21   27 ar  
    39   22   23 1   
    40   22   24 ar  
    41   23   42 1   
    42   23   43 1   
    43   23   45 1   
    44   24   25 ar  
    45   25   26 ar  
    46   25   44 1   
    47   26   27 ar  
@<TRIPOS>SUBSTRUCTURE
     1 GAP         1 TEMP              0 ****  ****    0 ROOT
