@<TRIPOS>MOLECULE
GAP
   44    46     1     0     0
SMALL
bcc


@<TRIPOS>ATOM
      1 N           2.7620   -0.3050    0.6220 n8        1 GAP     -0.941800
      2 CA          2.5210    1.1140    0.6260 c3        1 GAP      0.085800
      3 C           2.0450    1.5880    1.9940 c         1 GAP      0.718100
      4 O           0.9090    1.9440    2.2800 o         1 GAP     -0.466000
      5 PA          3.7740    0.7770    3.9260 p5        1 GAP      1.708500
      6 O1A         3.0070   -0.5870    3.7080 oh        1 GAP     -0.763400
      7 O2A         4.0450    1.2790    5.2580 o         1 GAP     -0.793300
      8 O3A         2.9970    1.7780    2.9460 os        1 GAP     -0.638500
      9 C5'         6.2940    1.1570    3.4560 c3        1 GAP      0.164400
     10 O5'         5.1150    0.4700    3.1020 os        1 GAP     -0.601200
     11 C4'         7.3010    0.1910    4.0910 c3        1 GAP      0.104100
     12 O4'         8.6240    0.6390    3.7760 os        1 GAP     -0.406600
     13 C3'         7.1940    0.0940    5.6270 c3        1 GAP      0.064100
     14 O3'         7.0530   -1.2800    5.9410 oh        1 GAP     -0.593800
     15 C2'         8.5360    0.6340    6.1760 c3        1 GAP      0.081100
     16 O2'         9.3030   -0.3850    6.7680 oh        1 GAP     -0.577800
     17 C1'         9.2700    1.2140    4.9250 c3        1 GAP      0.213800
     18 N9          9.2690    2.6530    4.8720 na        1 GAP     -0.286000
     19 C8          8.2110    3.5430    5.2050 cc        1 GAP      0.396700
     20 N7          8.4670    4.8210    4.9050 nd        1 GAP     -0.534100
     21 C5          9.7430    4.8120    4.3180 ca        1 GAP     -0.239200
     22 C6         10.5780    5.8510    3.7880 ca        1 GAP      0.763200
     23 N6         10.1410    7.1490    3.7720 nv        1 GAP     -0.958500
     24 N1         11.8120    5.5130    3.2790 nb        1 GAP     -0.795000
     25 C2         12.1630    4.2010    3.3040 ca        1 GAP      0.689900
     26 N3         11.4860    3.1210    3.7640 nb        1 GAP     -0.733000
     27 C4         10.2620    3.4490    4.2730 ca        1 GAP      0.475800
     28 H1          3.4020   -0.5580   -0.1030 hn        1 GAP      0.374300
     29 H2A         1.9110   -0.8210    0.5230 hn        1 GAP      0.374300
     30 H3          3.3020   -1.1570    2.9970 ho        1 GAP      0.505000
     31 HA1         1.7340    1.4420   -0.1150 h1        1 GAP      0.073200
     32 HA2         3.4770    1.6620    0.3900 h1        1 GAP      0.073200
     33 H5'1        6.7410    1.5580    2.5020 h1        1 GAP      0.067200
     34 H5'2        6.0450    2.0040    4.1520 h1        1 GAP      0.067200
     35 H4'         7.2060   -0.8260    3.6170 h1        1 GAP      0.110700
     36 H3'         6.3300    0.6820    6.0380 h1        1 GAP      0.099700
     37 HO'3        6.9990   -1.3410    6.9040 ho        1 GAP      0.423000
     38 H2'         8.3910    1.3930    6.9900 h1        1 GAP      0.107700
     39 HO'2        9.3350   -1.1290    6.1480 ho        1 GAP      0.423000
     40 H1'        10.3420    0.8550    4.8640 h2        1 GAP      0.134700
     41 H8          7.2940    3.1780    5.6880 h5        1 GAP      0.076800
     42 H61         9.2850    7.3680    4.2180 hn        1 GAP      0.448800
     43 H62        10.7390    7.8780    3.4730 hn        1 GAP      0.448800
     44 H2         13.1670    3.9820    2.8790 h5        1 GAP      0.053100
@<TRIPOS>BOND
     1    1    2 1   
     2    1   28 1   
     3    1   29 1   
     4    2    3 1   
     5    2   31 1   
     6    2   32 1   
     7    3    4 2   
     8    3    8 1   
     9    5    6 1   
    10    5    7 2   
    11    5    8 1   
    12    5   10 1   
    13    6   30 1   
    14    9   10 1   
    15    9   11 1   
    16    9   33 1   
    17    9   34 1   
    18   11   12 1   
    19   11   13 1   
    20   11   35 1   
    21   12   17 1   
    22   13   14 1   
    23   13   15 1   
    24   13   36 1   
    25   14   37 1   
    26   15   16 1   
    27   15   17 1   
    28   15   38 1   
    29   16   39 1   
    30   17   18 1   
    31   17   40 1   
    32   18   19 1   
    33   18   27 1   
    34   19   20 2   
    35   19   41 1   
    36   20   21 1   
    37   21   22 ar  
    38   21   27 ar  
    39   22   23 1   
    40   22   24 ar  
    41   23   42 1   
    42   23   43 1   
    43   24   25 ar  
    44   25   26 ar  
    45   25   44 1   
    46   26   27 ar  
@<TRIPOS>SUBSTRUCTURE
     1 GAP         1 TEMP              0 ****  ****    0 ROOT
