@<TRIPOS>MOLECULE
GAP
   44    41     1     0     0
SMALL
bcc


@<TRIPOS>ATOM
      1 N          -7.1570   -4.3290   -2.0370 n4        1 GAP     -1.146600
      2 CA         -5.9500   -3.7370   -2.4270 c3        1 GAP      0.089800
      3 C          -5.4760   -2.7310   -1.3330 c         1 GAP      0.714100
      4 O          -6.2310   -2.3770   -0.4780 o         1 GAP     -0.478000
      5 PA         -3.6650   -1.3200   -0.1750 p4        1 GAP      1.937100
      6 O1A        -3.7200   -2.1730    1.1220 o         1 GAP     -0.771300
      7 O2A        -4.5480   -0.1100   -0.0190 os        1 GAP     -0.792000
      8 O3A        -4.1700   -2.1870   -1.3920 os        1 GAP     -0.657500
      9 C5'        -1.4610   -0.2060    0.6270 c3        1 GAP      0.173400
     10 O5'        -2.1750   -0.8550   -0.4370 os        1 GAP     -0.599200
     11 C4'         0.0430   -0.5260    0.4990 c3        1 GAP      0.080100
     12 O4'         0.6660    0.4390   -0.0830 os        1 GAP     -0.406600
     13 C3'         0.6910   -0.6370    1.8940 c3        1 GAP      0.121100
     14 O3'         1.0150   -1.9090    2.1530 oh        1 GAP     -0.599800
     15 C2'         1.9580    0.2250    1.8300 c3        1 GAP      0.086100
     16 O2'         3.1770   -0.5670    2.3800 oh        1 GAP     -0.597800
     17 C1'         2.1200    0.4900    0.5820 c3        1 GAP      0.226800
     18 N9          2.6850    1.7950    0.4260 n3        1 GAP     -0.141400
     19 C8          1.9790    2.9790    0.6300 c1        1 GAP      0.190400
     20 N7          2.7650    3.9960    0.2670 ne        1 GAP     -0.384400
     21 C5          3.9640    3.4770   -0.1670 cg        1 GAP     -0.184000
     22 C6          5.1250    4.0880   -0.6430 c1        1 GAP      0.629600
     23 N6          5.6650    5.4380   -0.6640 n3        1 GAP     -0.818400
     24 N1          6.1840    3.3370   -1.0030 n1        1 GAP     -0.593800
     25 C2          6.1240    1.9530   -0.8990 c1        1 GAP      0.415300
     26 N3          4.9800    1.3480   -0.4290 n1        1 GAP     -0.567800
     27 C4          3.8990    2.1150   -0.0630 c1        1 GAP      0.006700
     28 H1         -7.0700   -4.6790   -1.1500 hn        1 GAP      0.420133
     29 H2A        -7.7670   -3.7560   -2.0530 hn        1 GAP      0.420133
     30 H3         -7.3710   -5.0390   -2.6420 hn        1 GAP      0.420133
     31 HA1        -6.0920   -3.2260   -3.3360 hx        1 GAP      0.079700
     32 HA2        -5.2650   -4.4380   -2.5460 hx        1 GAP      0.079700
     33 H5'1       -1.5890    0.6950    0.5730 h1        1 GAP      0.061700
     34 H5'2       -1.7940   -0.5370    1.5000 h1        1 GAP      0.061700
     35 H4'         0.1630   -1.3240    0.0230 h1        1 GAP      0.100700
     36 H3'         0.0700   -0.2860    2.5920 h1        1 GAP      0.105700
     37 HO'3        0.6250   -2.1680    2.9150 ho        1 GAP      0.432000
     38 H2'         1.8350    1.0460    2.3340 h1        1 GAP      0.091700
     39 HO'2        3.3920   -0.2570    3.1860 ho        1 GAP      0.441000
     40 H1'         2.7390   -0.2250    0.1420 h2        1 GAP      0.102700
     41 H8          1.0180    3.0520    0.9270 DU        1 GAP      0.214000
     42 H61         5.2670    6.0810   -0.2010 hn        1 GAP      0.452300
     43 H62         6.4330    5.6540   -1.2510 hn        1 GAP      0.452300
     44 H2          6.9190    1.3910   -1.1690 ha        1 GAP      0.131500
@<TRIPOS>BOND
     1    1    2 1   
     2    1   28 1   
     3    1   29 1   
     4    1   30 1   
     5    2    3 1   
     6    2   31 1   
     7    2   32 1   
     8    3    4 2   
     9    3    8 1   
    10    5    6 2   
    11    5    8 1   
    12    5   10 1   
    13    9   10 1   
    14    9   11 1   
    15    9   33 1   
    16    9   34 1   
    17   11   12 1   
    18   11   13 1   
    19   11   35 1   
    20   12   17 1   
    21   13   14 1   
    22   13   15 1   
    23   13   36 1   
    24   14   37 1   
    25   15   16 1   
    26   15   17 1   
    27   15   38 1   
    28   16   39 1   
    29   17   18 1   
    30   17   40 1   
    31   18   19 2   
    32   18   27 1   
    33   19   20 2   
    34   20   21 1   
    35   21   27 3   
    36   22   23 1   
    37   22   24 3   
    38   23   42 1   
    39   23   43 1   
    40   25   26 3   
    41   25   44 1   
@<TRIPOS>SUBSTRUCTURE
     1 GAP         1 TEMP              0 ****  ****    0 ROOT
