@<TRIPOS>MOLECULE
GAP
   44    46     1     0     0
SMALL
bcc


@<TRIPOS>ATOM
      1 N           2.1590   -0.6200    1.1450 n3        1 GAP     -0.938800
      2 CA          1.8420    0.7800    1.0420 c3        1 GAP      0.084800
      3 C           1.5260    1.3770    2.4060 c         1 GAP      0.718100
      4 O           0.4150    1.6950    2.8140 o         1 GAP     -0.467000
      5 PA          3.5540    0.8910    4.1460 p5        1 GAP      1.704500
      6 O1A         2.8740   -0.5350    4.1530 oh        1 GAP     -0.763400
      7 O2A         3.9420    1.5460    5.3770 o         1 GAP     -0.782300
      8 O3A         2.5820    1.7300    3.1850 os        1 GAP     -0.635500
      9 C5'         5.9940    1.2960    3.3610 c3        1 GAP      0.161400
     10 O5'         4.7890    0.5910    3.1650 os        1 GAP     -0.602200
     11 C4'         7.1080    0.3090    3.7320 c3        1 GAP      0.073100
     12 O4'         8.3220    0.7360    3.0960 os        1 GAP     -0.410600
     13 C3'         7.3620    0.2040    5.2510 c3        1 GAP      0.119100
     14 O3'         7.2960   -1.1330    5.6830 oh        1 GAP     -0.573800
     15 C2'         8.7360    0.8700    5.4790 c3        1 GAP      0.085100
     16 O2'         9.6120   -0.0800    6.0440 oh        1 GAP     -0.593800
     17 C1'         9.2570    1.2440    4.0520 c3        1 GAP      0.223800
     18 N9          9.4540    2.6620    3.8550 na        1 GAP     -0.292000
     19 C8          9.0050    3.4740    2.7840 cc        1 GAP      0.420700
     20 N7          9.4530    4.7360    2.8470 nd        1 GAP     -0.545100
     21 C5         10.2500    4.7860    4.0010 ca        1 GAP     -0.229200
     22 C6         11.0130    5.8340    4.6190 ca        1 GAP      0.768200
     23 N6         11.0490    7.0820    4.0610 nh        1 GAP     -0.958500
     24 N1         11.7110    5.5530    5.7730 nb        1 GAP     -0.795000
     25 C2         11.6370    4.2870    6.2620 ca        1 GAP      0.693900
     26 N3         10.9660    3.2070    5.7950 nb        1 GAP     -0.762000
     27 C4         10.2690    3.4810    4.6500 ca        1 GAP      0.453800
     28 H1          3.1270   -1.1560    3.4690 ho        1 GAP      0.504000
     29 H2A         2.6600   -0.9330    0.3380 hn        1 GAP      0.373300
     30 H3          1.3360   -1.1730    1.2720 hn        1 GAP      0.373300
     31 HA1         0.9480    0.9960    0.3860 h1        1 GAP      0.071700
     32 HA2         2.7290    1.3360    0.6210 h1        1 GAP      0.071700
     33 H5'1        6.2590    1.7850    2.3810 h1        1 GAP      0.067200
     34 H5'2        5.8530    2.0770    4.1580 h1        1 GAP      0.067200
     35 H4'         6.8830   -0.7020    3.2900 h1        1 GAP      0.102700
     36 H3'         6.5630    0.7330    5.8440 h1        1 GAP      0.119700
     37 HO'3        8.1230   -1.5730    5.4430 ho        1 GAP      0.423000
     38 H2'         8.6290    1.7660    6.1460 h1        1 GAP      0.090700
     39 HO'2       10.3320    0.4140    6.4590 ho        1 GAP      0.437000
     40 H1'        10.2340    0.7120    3.8340 h2        1 GAP      0.102700
     41 H8          8.3570    3.0560    2.0040 h5        1 GAP      0.081800
     42 H61        11.5480    7.8180    4.4950 hn        1 GAP      0.451300
     43 H62        10.5110    7.2610    3.2510 hn        1 GAP      0.451300
     44 H2         12.2220    4.1180    7.1930 h5        1 GAP      0.052100
@<TRIPOS>BOND
     1    1    2 1   
     2    1   29 1   
     3    1   30 1   
     4    2    3 1   
     5    2   31 1   
     6    2   32 1   
     7    3    4 2   
     8    3    8 1   
     9    5    6 1   
    10    5    7 2   
    11    5    8 1   
    12    5   10 1   
    13    6   28 1   
    14    9   10 1   
    15    9   11 1   
    16    9   33 1   
    17    9   34 1   
    18   11   12 1   
    19   11   13 1   
    20   11   35 1   
    21   12   17 1   
    22   13   14 1   
    23   13   15 1   
    24   13   36 1   
    25   14   37 1   
    26   15   16 1   
    27   15   17 1   
    28   15   38 1   
    29   16   39 1   
    30   17   18 1   
    31   17   40 1   
    32   18   19 1   
    33   18   27 1   
    34   19   20 2   
    35   19   41 1   
    36   20   21 1   
    37   21   22 ar  
    38   21   27 ar  
    39   22   23 1   
    40   22   24 ar  
    41   23   42 1   
    42   23   43 1   
    43   24   25 ar  
    44   25   26 ar  
    45   25   44 1   
    46   26   27 ar  
@<TRIPOS>SUBSTRUCTURE
     1 GAP         1 TEMP              0 ****  ****    0 ROOT
