@<TRIPOS>MOLECULE
GAP
   44    46     1     0     0
SMALL
bcc


@<TRIPOS>ATOM
      1 N          -5.9950    0.7910   -0.9200 n3        1 GAP     -0.938800
      2 CA         -5.6870    1.9790   -0.1690 c3        1 GAP      0.084800
      3 C          -5.3400    1.6450    1.2760 c         1 GAP      0.718100
      4 O          -6.0510    1.8470    2.2520 o         1 GAP     -0.467000
      5 PA         -3.3460   -0.1970    1.3700 p5        1 GAP      1.704500
      6 O1A        -4.5500   -1.1530    1.0040 oh        1 GAP     -0.763400
      7 O2A        -2.4030   -0.5400    2.4120 o         1 GAP     -0.782300
      8 O3A        -4.0720    1.2250    1.5240 os        1 GAP     -0.635500
      9 C5'        -1.2760    0.1290   -0.1610 c3        1 GAP      0.161400
     10 O5'        -2.6710   -0.0530   -0.0800 os        1 GAP     -0.602200
     11 C4'        -0.6480   -1.0660   -0.8890 c3        1 GAP      0.073100
     12 O4'         0.4150   -0.5800   -1.7230 os        1 GAP     -0.410600
     13 C3'        -0.0740   -2.1390    0.0600 c3        1 GAP      0.119100
     14 O3'        -0.5960   -3.4090   -0.2370 oh        1 GAP     -0.573800
     15 C2'         1.4590   -2.0390   -0.0940 c3        1 GAP      0.085100
     16 O2'         1.9500   -3.2800   -0.5500 oh        1 GAP     -0.593800
     17 C1'         1.6940   -0.9680   -1.2120 c3        1 GAP      0.223800
     18 N9          2.4260    0.1940   -0.7620 na        1 GAP     -0.292000
     19 C8          2.1100    1.5620   -0.9490 cc        1 GAP      0.420700
     20 N7          3.0610    2.3950   -0.5020 nd        1 GAP     -0.545100
     21 C5          4.0730    1.5630   -0.0000 ca        1 GAP     -0.229200
     22 C6          5.3480    1.8290    0.6050 ca        1 GAP      0.768200
     23 N6          5.7730    3.1160    0.7810 nh        1 GAP     -0.958500
     24 N1          6.1310    0.7640    0.9930 nb        1 GAP     -0.795000
     25 C2          5.6470   -0.4870    0.7750 ca        1 GAP      0.693900
     26 N3          4.4780   -0.8880    0.2230 nb        1 GAP     -0.762000
     27 C4          3.6940    0.1650   -0.1620 ca        1 GAP      0.453800
     28 H1         -5.9120    0.9580   -1.9030 hn        1 GAP      0.373300
     29 H2A        -4.7820   -1.2480    0.0800 ho        1 GAP      0.504000
     30 H3         -6.9110    0.4500   -0.7070 hn        1 GAP      0.373300
     31 HA1        -6.5360    2.7230   -0.1280 h1        1 GAP      0.071700
     32 HA2        -4.7930    2.4920   -0.6270 h1        1 GAP      0.071700
     33 H5'1       -0.8480    0.2540    0.8720 h1        1 GAP      0.067200
     34 H5'2       -1.0940    1.0580   -0.7720 h1        1 GAP      0.067200
     35 H4'        -1.3970   -1.5160   -1.5990 h1        1 GAP      0.102700
     36 H3'        -0.3760   -1.9520    1.1300 h1        1 GAP      0.119700
     37 HO'3       -0.1390   -3.7540   -1.0170 ho        1 GAP      0.423000
     38 H2'         1.9320   -1.7520    0.8820 h1        1 GAP      0.090700
     39 HO'2        2.8950   -3.3010   -0.3430 ho        1 GAP      0.437000
     40 H1'         2.2460   -1.4250   -2.0890 h2        1 GAP      0.102700
     41 H8          1.1640    1.8540   -1.4230 h5        1 GAP      0.081800
     42 H61         6.6370    3.3100    1.2230 hn        1 GAP      0.451300
     43 H62         5.1730    3.8590    0.5220 hn        1 GAP      0.451300
     44 H2          6.3230   -1.3060    1.1060 h5        1 GAP      0.052100
@<TRIPOS>BOND
     1    1    2 1   
     2    1   28 1   
     3    1   30 1   
     4    2    3 1   
     5    2   31 1   
     6    2   32 1   
     7    3    4 2   
     8    3    8 1   
     9    5    6 1   
    10    5    7 2   
    11    5    8 1   
    12    5   10 1   
    13    6   29 1   
    14    9   10 1   
    15    9   11 1   
    16    9   33 1   
    17    9   34 1   
    18   11   12 1   
    19   11   13 1   
    20   11   35 1   
    21   12   17 1   
    22   13   14 1   
    23   13   15 1   
    24   13   36 1   
    25   14   37 1   
    26   15   16 1   
    27   15   17 1   
    28   15   38 1   
    29   16   39 1   
    30   17   18 1   
    31   17   40 1   
    32   18   19 1   
    33   18   27 1   
    34   19   20 2   
    35   19   41 1   
    36   20   21 1   
    37   21   22 ar  
    38   21   27 ar  
    39   22   23 1   
    40   22   24 ar  
    41   23   42 1   
    42   23   43 1   
    43   24   25 ar  
    44   25   26 ar  
    45   25   44 1   
    46   26   27 ar  
@<TRIPOS>SUBSTRUCTURE
     1 GAP         1 TEMP              0 ****  ****    0 ROOT
