@<TRIPOS>MOLECULE
GAQ
   17    16     1     0     0
SMALL
bcc


@<TRIPOS>ATOM
      1 O5         -0.0100    0.0750    0.0320 o         1 GAQ     -0.525100
      2 C5          1.2190    0.0100    0.0270 c         1 GAQ      0.562900
      3 C4          2.0690   -0.0150    1.2580 c3        1 GAQ     -0.198400
      4 C3          1.2630    0.0470    2.5360 c3        1 GAQ     -0.075400
      5 C2          2.1650    0.0190    3.7490 c3        1 GAQ     -0.084400
      6 C1          1.3420    0.0820    5.0250 c3        1 GAQ      0.132400
      7 O1          2.2560    0.0520    6.1100 oh        1 GAQ     -0.602800
      8 H55         1.7910   -0.0350   -0.9290 h4        1 GAQ     -0.008800
      9 H41         2.6860   -0.9540    1.2390 hc        1 GAQ      0.068700
     10 H42         2.7810    0.8520    1.2110 hc        1 GAQ      0.068700
     11 H31         0.6420    0.9820    2.5390 hc        1 GAQ      0.053700
     12 H32         0.5480   -0.8170    2.5670 hc        1 GAQ      0.053700
     13 H21         2.7820   -0.9170    3.7550 hc        1 GAQ      0.053700
     14 H22         2.8760    0.8850    3.7270 hc        1 GAQ      0.053700
     15 H1          0.7380    1.0290    5.0590 h1        1 GAQ      0.022700
     16 H11         0.6430   -0.7950    5.0880 h1        1 GAQ      0.022700
     17 HO1         1.7280    0.0920    6.9150 ho        1 GAQ      0.400000
@<TRIPOS>BOND
     1    1    2 2   
     2    2    3 1   
     3    2    8 1   
     4    3    4 1   
     5    3    9 1   
     6    3   10 1   
     7    4    5 1   
     8    4   11 1   
     9    4   12 1   
    10    5    6 1   
    11    5   13 1   
    12    5   14 1   
    13    6    7 1   
    14    6   15 1   
    15    6   16 1   
    16    7   17 1   
@<TRIPOS>SUBSTRUCTURE
     1 GAQ         1 TEMP              0 ****  ****    0 ROOT
