@<TRIPOS>MOLECULE
GAQ
   17    16     1     0     0
SMALL
bcc


@<TRIPOS>ATOM
      1 O5          1.3930   -2.7330   -0.1410 o         1 GAQ     -0.523100
      2 C5          1.3970   -1.5120    0.0150 c         1 GAQ      0.562900
      3 C4          0.5540   -0.5570   -0.7700 c3        1 GAQ     -0.199400
      4 C3         -0.3510   -1.2460   -1.7660 c3        1 GAQ     -0.072400
      5 C2         -1.1640   -0.2430   -2.5510 c3        1 GAQ     -0.120400
      6 C1         -2.0830   -0.9460   -3.5370 c3        1 GAQ      0.127400
      7 O1         -2.9100   -0.0290   -4.2270 oh        1 GAQ     -0.596800
      8 H55         2.0520   -1.0300    0.7770 h4        1 GAQ     -0.007800
      9 H41        -0.0590    0.0470   -0.0480 hc        1 GAQ      0.067200
     10 H42         1.2390    0.1560   -1.3020 hc        1 GAQ      0.067200
     11 H31         0.2690   -1.8700   -2.4630 hc        1 GAQ      0.056200
     12 H32        -1.0340   -1.9510   -1.2210 hc        1 GAQ      0.056200
     13 H21        -1.7810    0.3840   -1.8560 hc        1 GAQ      0.045200
     14 H22        -0.4820    0.4520   -3.1070 hc        1 GAQ      0.045200
     15 H1         -2.8020   -1.6240   -3.0020 h1        1 GAQ      0.047200
     16 H11        -1.4820   -1.5500   -4.2680 h1        1 GAQ      0.047200
     17 HO1        -2.3300    0.5880   -4.6890 ho        1 GAQ      0.396000
@<TRIPOS>BOND
     1    1    2 2   
     2    2    3 1   
     3    2    8 1   
     4    3    4 1   
     5    3    9 1   
     6    3   10 1   
     7    4    5 1   
     8    4   11 1   
     9    4   12 1   
    10    5    6 1   
    11    5   13 1   
    12    5   14 1   
    13    6    7 1   
    14    6   15 1   
    15    6   16 1   
    16    7   17 1   
@<TRIPOS>SUBSTRUCTURE
     1 GAQ         1 TEMP              0 ****  ****    0 ROOT
