@<TRIPOS>MOLECULE
GAR
   31    31     1     0     0
SMALL
bcc


@<TRIPOS>ATOM
      1 C1         -0.2770   -2.0950   -0.4670 c3        1 GAR      0.058100
      2 O6         -0.6680   -3.2650   -1.1780 oh        1 GAR     -0.632800
      3 C2          1.0360   -2.3560    0.3060 c3        1 GAR      0.085100
      4 O8          1.5630   -3.6440    0.0490 oh        1 GAR     -0.627800
      5 C3          2.0150   -1.2540   -0.2130 c3        1 GAR      0.266500
      6 O4          1.4750   -0.8370   -1.4880 os        1 GAR     -0.465600
      7 C5          0.0420   -0.9850   -1.4790 c3        1 GAR      0.098100
      8 C10        -0.6190    0.3800   -1.1490 c3        1 GAR      0.198400
      9 O12        -1.6230    0.3150   -0.2180 os        1 GAR     -0.572200
     10 N19         2.1210   -0.1610    0.7200 n         1 GAR     -0.534900
     11 C21         3.1570    0.7300    0.6850 c         1 GAR      0.632100
     12 O22         4.2330    0.5190    0.0600 o         1 GAR     -0.730100
     13 C23         2.9980    2.0010    1.5400 c3        1 GAR      0.036800
     14 N24         3.9090    3.0670    1.2040 n3        1 GAR     -0.895800
     15 P15        -1.2170    0.7820    1.3960 p5        1 GAR      1.325900
     16 O16        -0.0790    1.7580    1.1990 o         1 GAR     -0.923833
     17 O17        -2.5130    1.2840    1.9440 o         1 GAR     -0.923833
     18 O18        -0.6580   -0.5320    1.8920 o         1 GAR     -0.923833
     19 H1         -1.0740   -1.7380    0.2620 h1        1 GAR      0.173700
     20 HO6        -0.9840   -3.8760   -0.5040 ho        1 GAR      0.388000
     21 H2          0.8560   -2.2940    1.4150 h1        1 GAR      0.149700
     22 HO8         1.5160   -3.7750   -0.9070 ho        1 GAR      0.393000
     23 H3          3.0370   -1.6610   -0.4570 h2        1 GAR      0.070700
     24 H5         -0.2170   -1.3080   -2.5220 h1        1 GAR      0.035700
     25 H101        0.1880    1.0980   -0.8210 h1        1 GAR      0.010200
     26 H102       -1.0570    0.7570   -2.1220 h1        1 GAR      0.010200
     27 H19         1.2300    0.1540    1.1310 hn        1 GAR      0.404500
     28 H231        3.1910    1.7030    2.6090 h1        1 GAR      0.116700
     29 H232        1.9170    2.3590    1.4680 h1        1 GAR      0.116700
     30 H241        4.8160    2.6840    0.9980 hn        1 GAR      0.330300
     31 H242        3.5870    3.5290    0.3740 hn        1 GAR      0.330300
@<TRIPOS>BOND
     1    1    2 1   
     2    1    3 1   
     3    1    7 1   
     4    1   19 1   
     5    2   20 1   
     6    3    4 1   
     7    3    5 1   
     8    3   21 1   
     9    4   22 1   
    10    5    6 1   
    11    5   10 1   
    12    5   23 1   
    13    6    7 1   
    14    7    8 1   
    15    7   24 1   
    16    8    9 1   
    17    8   25 1   
    18    8   26 1   
    19    9   15 1   
    20   10   11 1   
    21   10   27 1   
    22   11   12 2   
    23   11   13 1   
    24   13   14 1   
    25   13   28 1   
    26   13   29 1   
    27   14   30 1   
    28   14   31 1   
    29   15   16 1   
    30   15   17 1   
    31   15   18 1   
@<TRIPOS>SUBSTRUCTURE
     1 GAR         1 TEMP              0 ****  ****    0 ROOT
