@<TRIPOS>MOLECULE
GAS
   50    50     1     0     0
SMALL
bcc


@<TRIPOS>ATOM
      1 C1          1.4160    0.0270   -0.0980 ca        1 GAS     -0.129750
      2 C2          2.7790    0.2270    0.1180 ca        1 GAS     -0.120750
      3 C3          3.2620    0.4290    1.4110 ca        1 GAS     -0.112500
      4 C4          2.3770    0.4310    2.4900 ca        1 GAS     -0.120750
      5 C5          1.0140    0.2280    2.2760 ca        1 GAS     -0.129750
      6 C6          0.5260    0.0250    0.9810 ca        1 GAS     -0.116000
      7 C7         -0.9570   -0.1900    0.7920 c3        1 GAS      0.033000
      8 N7         -1.3110   -1.2210   -0.1860 n3        1 GAS     -0.366000
      9 C1A        -1.6440    1.1160    0.4630 ca        1 GAS     -0.116000
     10 C2A        -2.6100    1.6240    1.3410 ca        1 GAS     -0.129750
     11 C3A        -3.2340    2.8400    1.0670 ca        1 GAS     -0.120750
     12 C4A        -2.9060    3.5530   -0.0870 ca        1 GAS     -0.112500
     13 C5A        -1.9460    3.0480   -0.9660 ca        1 GAS     -0.120750
     14 C6A        -1.3170    1.8340   -0.6920 ca        1 GAS     -0.129750
     15 C8         -4.6820   -1.6710    1.0130 c1        1 GAS      0.074000
     16 N8         -5.6380   -2.5020    0.9150 n2        1 GAS     -0.233000
     17 C9         -6.5430   -3.3600    1.1180 c2        1 GAS      0.088000
     18 C10       -10.8450   -3.1630    2.4560 c1        1 GAS      0.431000
     19 O1        -11.9560   -3.2210    2.8650 o         1 GAS     -0.215000
     20 O2         -9.7260   -3.1030    2.0430 o         1 GAS     -0.215000
     21 N11        -4.1040   -0.8830   -0.0890 n4        1 GAS     -0.063000
     22 C1B        -4.7330   -0.9300   -1.4030 ca        1 GAS     -0.123000
     23 C2B        -4.3250   -1.8970   -2.3400 ca        1 GAS     -0.116500
     24 C3B        -4.9290   -1.9470   -3.5920 ca        1 GAS     -0.078500
     25 C4B        -5.9400   -1.0330   -3.9230 ca        1 GAS      0.043000
     26 C7B        -6.5560   -1.0880   -5.2030 c1        1 GAS     -0.134000
     27 N7B        -7.0600   -1.1330   -6.2500 n1        1 GAS      0.041000
     28 C5B        -6.3410   -0.0640   -2.9930 ca        1 GAS     -0.078500
     29 C6B        -5.7420   -0.0090   -1.7370 ca        1 GAS     -0.116500
     30 H1          1.0580   -0.1180   -1.1280 ha        1 GAS      0.134000
     31 H2          3.4750    0.2270   -0.7350 ha        1 GAS      0.147250
     32 H3          4.3380    0.5890    1.5800 ha        1 GAS      0.149500
     33 H4          2.7530    0.5930    3.5110 ha        1 GAS      0.147250
     34 H5          0.3230    0.2320    3.1330 ha        1 GAS      0.134000
     35 H7         -1.3720   -0.5620    1.7840 h1        1 GAS      0.116000
     36 HN7        -0.9750   -0.9720   -1.0990 hn        1 GAS      0.170500
     37 H2A        -2.8490    1.0850    2.2720 ha        1 GAS      0.134000
     38 H3A        -3.9730    3.2480    1.7740 ha        1 GAS      0.147250
     39 H4A        -3.3900    4.5190   -0.2950 ha        1 GAS      0.149500
     40 H5A        -1.6740    3.6150   -1.8690 ha        1 GAS      0.147250
     41 H6A        -0.5380    1.4550   -1.3730 ha        1 GAS      0.134000
     42 H91        -6.3260   -4.4460    1.0330 h4        1 GAS      0.179000
     43 H92        -7.5760   -3.0530    1.3990 h4        1 GAS      0.179000
     44 HN1        -3.0680   -1.1870   -0.1620 hn        1 GAS      0.294500
     45 H2B        -3.5240   -2.6160   -2.1000 ha        1 GAS      0.157000
     46 H3B        -4.6070   -2.7040   -4.3270 ha        1 GAS      0.173500
     47 H5B        -7.1310    0.6610   -3.2550 ha        1 GAS      0.173500
     48 H6B        -6.0660    0.7660   -1.0230 ha        1 GAS      0.157000
     49 H72        -0.8980   -2.0960    0.0810 hn        1 GAS      0.170500
     50 H112       -4.0920    0.0920    0.2580 hn        1 GAS      0.294500
@<TRIPOS>BOND
     1    1    2 1   
     2    1    6 1   
     3    1   30 1   
     4    2    3 1   
     5    2   31 1   
     6    3    4 1   
     7    3   32 1   
     8    4    5 1   
     9    4   33 1   
    10    5    6 1   
    11    5   34 1   
    12    6    7 1   
    13    7    8 1   
    14    7    9 1   
    15    7   35 1   
    16    8   36 1   
    17    8   49 1   
    18    9   10 1   
    19    9   14 1   
    20   10   11 1   
    21   10   37 1   
    22   11   12 1   
    23   11   38 1   
    24   12   13 1   
    25   12   39 1   
    26   13   14 1   
    27   13   40 1   
    28   14   41 1   
    29   15   16 1   
    30   15   21 1   
    31   16   17 1   
    32   17   42 1   
    33   17   43 1   
    34   18   19 1   
    35   18   20 1   
    36   21   22 1   
    37   21   44 1   
    38   21   50 1   
    39   22   23 1   
    40   22   29 1   
    41   23   24 1   
    42   23   45 1   
    43   24   25 1   
    44   24   46 1   
    45   25   26 1   
    46   25   28 1   
    47   26   27 1   
    48   28   29 1   
    49   28   47 1   
    50   29   48 1   
@<TRIPOS>SUBSTRUCTURE
     1 GAS         1 TEMP              0 ****  ****    0 ROOT
