@<TRIPOS>MOLECULE
GAS
   49    51     1     0     0
SMALL
bcc


@<TRIPOS>ATOM
      1 C1          0.1830    0.9100   -0.3560 ca        1 GAS     -0.105250
      2 C2          1.5540    0.6790   -0.4670 ca        1 GAS     -0.126750
      3 C3          2.1720   -0.2710    0.3450 ca        1 GAS     -0.103000
      4 C4          1.4170   -0.9930    1.2680 ca        1 GAS     -0.126750
      5 C5          0.0440   -0.7720    1.3770 ca        1 GAS     -0.105250
      6 C6         -0.5790    0.1840    0.5670 ca        1 GAS     -0.146800
      7 C7         -2.0600    0.3880    0.7320 c3        1 GAS      0.250100
      8 N7         -2.7330    0.5210   -0.6290 ny        1 GAS     -0.722000
      9 C1A        -2.4140    1.5600    1.6000 ca        1 GAS     -0.146800
     10 C2A        -3.4980    1.4290    2.4790 ca        1 GAS     -0.105250
     11 C3A        -3.8430    2.4920    3.3150 ca        1 GAS     -0.126750
     12 C4A        -3.1170    3.6800    3.2750 ca        1 GAS     -0.103000
     13 C5A        -2.0380    3.8120    2.3970 ca        1 GAS     -0.126750
     14 C6A        -1.6870    2.7560    1.5600 ca        1 GAS     -0.105250
     15 C8         -4.0830   -0.1590   -0.5980 c2        1 GAS      0.594100
     16 N8         -5.1000    0.6100   -0.3390 n2        1 GAS     -0.512900
     17 C9         -6.3570    0.0560    0.0060 c3        1 GAS     -0.075200
     18 C10        -6.3140   -0.7440    1.3880 c         1 GAS      0.931600
     19 O1         -7.3910   -0.8000    2.0060 o         1 GAS     -0.782300
     20 O2         -5.2020   -1.2510    1.7110 o         1 GAS     -0.782300
     21 N11        -3.9610   -1.5770   -0.7740 nu        1 GAS     -0.716600
     22 C1B        -4.3020   -2.1110   -2.0280 ca        1 GAS      0.162600
     23 C2B        -4.6360   -3.4840   -2.1290 ca        1 GAS     -0.188000
     24 C3B        -4.8610   -4.0620   -3.3700 ca        1 GAS     -0.053000
     25 C4B        -4.7720   -3.2930   -4.5400 ca        1 GAS     -0.053000
     26 C7B        -4.9980   -3.8910   -5.8070 cg        1 GAS      0.235800
     27 N7B        -5.1810   -4.3810   -6.8470 n1        1 GAS     -0.363800
     28 C5B        -4.4640   -1.9300   -4.4490 ca        1 GAS     -0.053000
     29 C6B        -4.2330   -1.3430   -3.2120 ca        1 GAS     -0.188000
     30 H1         -0.2790    1.6800   -0.9920 ha        1 GAS      0.151000
     31 H2          2.1480    1.2520   -1.1950 ha        1 GAS      0.145500
     32 H3          3.2550   -0.4500    0.2570 ha        1 GAS      0.142500
     33 H4          1.9010   -1.7420    1.9130 ha        1 GAS      0.145500
     34 H5         -0.5480   -1.3480    2.1070 ha        1 GAS      0.151000
     35 H7         -2.5030   -0.5480    1.2140 hx        1 GAS      0.146700
     36 HN7        -2.1470    0.0780   -1.3430 hn        1 GAS      0.447300
     37 H2A        -4.0920    0.4900    2.5030 ha        1 GAS      0.151000
     38 H3A        -4.6970    2.3840    4.0010 ha        1 GAS      0.145500
     39 H4A        -3.3910    4.5170    3.9360 ha        1 GAS      0.142500
     40 H5A        -1.4630    4.7490    2.3680 ha        1 GAS      0.145500
     41 H6A        -0.8250    2.8600    0.8850 ha        1 GAS      0.151000
     42 H91        -7.0790    0.9090    0.1140 h1        1 GAS      0.083200
     43 H92        -6.7560   -0.6780   -0.7450 h1        1 GAS      0.083200
     44 HN1        -4.3170   -2.0780    0.0350 hn        1 GAS      0.488800
     45 H2B        -4.7220   -4.1020   -1.2200 ha        1 GAS      0.140500
     46 H3B        -5.1180   -5.1310   -3.4340 ha        1 GAS      0.149000
     47 H5B        -4.4080   -1.3170   -5.3630 ha        1 GAS      0.149000
     48 H6B        -4.0130   -0.2660   -3.1650 ha        1 GAS      0.140500
     49 H72        -2.8490    1.5150   -0.8500 hn        1 GAS      0.447300
@<TRIPOS>BOND
     1    1    2 ar  
     2    1    6 ar  
     3    1   30 1   
     4    2    3 ar  
     5    2   31 1   
     6    3    4 ar  
     7    3   32 1   
     8    4    5 ar  
     9    4   33 1   
    10    5    6 ar  
    11    5   34 1   
    12    6    7 1   
    13    7    8 1   
    14    7    9 1   
    15    7   35 1   
    16    8   15 1   
    17    8   36 1   
    18    8   49 1   
    19    9   10 ar  
    20    9   14 ar  
    21   10   11 ar  
    22   10   37 1   
    23   11   12 ar  
    24   11   38 1   
    25   12   13 ar  
    26   12   39 1   
    27   13   14 ar  
    28   13   40 1   
    29   14   41 1   
    30   15   16 2   
    31   15   21 1   
    32   16   17 1   
    33   17   18 1   
    34   17   42 1   
    35   17   43 1   
    36   18   19 1   
    37   18   20 1   
    38   21   22 1   
    39   21   44 1   
    40   22   23 ar  
    41   22   29 ar  
    42   23   24 ar  
    43   23   45 1   
    44   24   25 ar  
    45   24   46 1   
    46   25   26 1   
    47   25   28 ar  
    48   26   27 3   
    49   28   29 ar  
    50   28   47 1   
    51   29   48 1   
@<TRIPOS>SUBSTRUCTURE
     1 GAS         1 TEMP              0 ****  ****    0 ROOT
