@<TRIPOS>MOLECULE
GAS
   49    50     1     0     0
SMALL
bcc


@<TRIPOS>ATOM
      1 C1          0.4010   -0.1410    0.6680 ca        1 GAS     -0.109500
      2 C2          1.7290   -0.0040    1.0700 ca        1 GAS     -0.126250
      3 C3          2.0340    0.2720    2.4030 ca        1 GAS     -0.113000
      4 C4          1.0060    0.4070    3.3360 ca        1 GAS     -0.126250
      5 C5         -0.3220    0.2650    2.9390 ca        1 GAS     -0.109500
      6 C6         -0.6330   -0.0070    1.6010 ca        1 GAS     -0.116300
      7 C7         -2.0920   -0.1370    1.2230 c3        1 GAS      0.234100
      8 N7         -2.2990   -1.2840    0.2780 n4        1 GAS     -0.687000
      9 C1A        -2.6150    1.1610    0.6680 ca        1 GAS     -0.116300
     10 C2A        -3.6870    1.7920    1.3080 ca        1 GAS     -0.109500
     11 C3A        -4.1620    3.0150    0.8330 ca        1 GAS     -0.126250
     12 C4A        -3.5770    3.6080   -0.2850 ca        1 GAS     -0.113000
     13 C5A        -2.5140    2.9760   -0.9310 ca        1 GAS     -0.126250
     14 C6A        -2.0340    1.7560   -0.4570 ca        1 GAS     -0.109500
     15 C8         -3.6720   -1.9350    0.2270 ce        1 GAS      0.105200
     16 N8         -4.6570   -1.2610    0.9830 ne        1 GAS     -0.679000
     17 C9         -5.9120   -1.4800    0.8590 c2        1 GAS      0.389100
     18 C10        -3.3730   -3.9020    1.4450 c1        1 GAS      0.941000
     19 O1         -4.3950   -4.4280    1.1160 o         1 GAS     -0.515000
     20 O2         -2.2980   -3.6550    1.9190 o         1 GAS     -0.515000
     21 N11        -3.9190   -2.4800   -1.0820 nh        1 GAS     -0.330200
     22 C1B        -4.5530   -1.7660   -2.1020 ca        1 GAS      0.037800
     23 C2B        -5.2050   -2.4670   -3.1520 ca        1 GAS     -0.207500
     24 C3B        -5.7420   -1.7880   -4.2340 ca        1 GAS     -0.050500
     25 C4B        -5.6620   -0.3900   -4.3070 ca        1 GAS     -0.080000
     26 C7B        -6.2120    0.3020   -5.4160 cg        1 GAS      0.246800
     27 N7B        -6.6620    0.8710   -6.3260 n1        1 GAS     -0.386800
     28 C5B        -5.0360    0.3170   -3.2720 ca        1 GAS     -0.050500
     29 C6B        -4.4900   -0.3540   -2.1870 ca        1 GAS     -0.207500
     30 H1          0.1880   -0.3490   -0.3910 ha        1 GAS      0.136000
     31 H2          2.5380   -0.1130    0.3320 ha        1 GAS      0.139750
     32 H3          3.0830    0.3800    2.7170 ha        1 GAS      0.139500
     33 H4          1.2420    0.6230    4.3880 ha        1 GAS      0.139750
     34 H5         -1.1290    0.3660    3.6820 ha        1 GAS      0.136000
     35 H7         -2.6670   -0.3940    2.1690 hx        1 GAS      0.128700
     36 HN7        -1.9960   -0.9910   -0.6550 hn        1 GAS      0.422800
     37 H2A        -4.1650    1.3180    2.1800 ha        1 GAS      0.136000
     38 H3A        -5.0050    3.5070    1.3410 ha        1 GAS      0.139750
     39 H4A        -3.9530    4.5720   -0.6580 ha        1 GAS      0.139500
     40 H5A        -2.0500    3.4410   -1.8140 ha        1 GAS      0.139750
     41 H6A        -1.1840    1.2730   -0.9630 ha        1 GAS      0.136000
     42 H91        -6.5820   -0.9920    1.5880 h4        1 GAS     -0.018200
     43 H92        -6.4060   -2.1230    0.1090 h4        1 GAS     -0.018200
     44 HN1        -4.2050   -3.4370   -1.0090 hn        1 GAS      0.276700
     45 H2B        -5.2850   -3.5640   -3.1130 ha        1 GAS      0.140000
     46 H3B        -6.2400   -2.3510   -5.0390 ha        1 GAS      0.140000
     47 H5B        -4.9780    1.4160   -3.3170 ha        1 GAS      0.140000
     48 H6B        -4.0160    0.2320   -1.3830 ha        1 GAS      0.140000
     49 H72        -1.6940   -2.0530    0.5940 hn        1 GAS      0.422800
@<TRIPOS>BOND
     1    1    2 ar  
     2    1    6 ar  
     3    1   30 1   
     4    2    3 ar  
     5    2   31 1   
     6    3    4 ar  
     7    3   32 1   
     8    4    5 ar  
     9    4   33 1   
    10    5    6 ar  
    11    5   34 1   
    12    6    7 1   
    13    7    8 1   
    14    7    9 1   
    15    7   35 1   
    16    8   15 1   
    17    8   36 1   
    18    8   49 1   
    19    9   10 ar  
    20    9   14 ar  
    21   10   11 ar  
    22   10   37 1   
    23   11   12 ar  
    24   11   38 1   
    25   12   13 ar  
    26   12   39 1   
    27   13   14 ar  
    28   13   40 1   
    29   14   41 1   
    30   15   16 1   
    31   15   21 2   
    32   16   17 2   
    33   17   42 1   
    34   17   43 1   
    35   18   19 2   
    36   18   20 2   
    37   21   22 1   
    38   21   44 1   
    39   22   23 ar  
    40   22   29 ar  
    41   23   24 ar  
    42   23   45 1   
    43   24   25 ar  
    44   24   46 1   
    45   25   26 1   
    46   25   28 ar  
    47   26   27 3   
    48   28   29 ar  
    49   28   47 1   
    50   29   48 1   
@<TRIPOS>SUBSTRUCTURE
     1 GAS         1 TEMP              0 ****  ****    0 ROOT
