@<TRIPOS>MOLECULE
GAS
   48    50     1     0     0
SMALL
bcc


@<TRIPOS>ATOM
      1 C1         -2.2020    1.8730    2.0460 ca        1 GAS     -0.114750
      2 C2         -3.0850    2.6380    2.8080 ca        1 GAS     -0.135500
      3 C3         -3.0220    2.6050    4.2000 ca        1 GAS     -0.136000
      4 C4         -2.0680    1.8060    4.8300 ca        1 GAS     -0.135500
      5 C5         -1.1810    1.0450    4.0710 ca        1 GAS     -0.114750
      6 C6         -1.2450    1.0670    2.6710 ca        1 GAS     -0.083300
      7 C7         -0.2630    0.2040    1.9010 c3        1 GAS      0.279100
      8 N7          0.2630    0.8970    0.7360 nh        1 GAS     -0.767200
      9 C1A        -0.9110   -1.1330    1.6000 ca        1 GAS     -0.083300
     10 C2A        -0.2870   -2.3100    2.0280 ca        1 GAS     -0.114750
     11 C3A        -0.8690   -3.5490    1.7580 ca        1 GAS     -0.135500
     12 C4A        -2.0710   -3.6210    1.0550 ca        1 GAS     -0.136000
     13 C5A        -2.6900   -2.4510    0.6170 ca        1 GAS     -0.135500
     14 C6A        -2.1100   -1.2120    0.8850 ca        1 GAS     -0.114750
     15 C8          1.4090    0.3140    0.0740 c2        1 GAS      0.743100
     16 N8          2.1950   -0.5210    0.7000 n2        1 GAS     -0.637900
     17 C9          3.3920   -1.0480    0.1330 c3        1 GAS     -0.016200
     18 C10         4.5890   -0.0680   -0.0750 c         1 GAS      0.917600
     19 O1          4.4290    0.9240   -0.8480 o         1 GAS     -0.826300
     20 O2          5.6670   -0.3580    0.4990 o         1 GAS     -0.826300
     21 N11         1.6500    0.8380   -1.2500 nh        1 GAS     -0.748600
     22 C1B         0.8190    0.6240   -2.3170 ca        1 GAS      0.250600
     23 C2B         1.1610    1.1840   -3.5870 ca        1 GAS     -0.241000
     24 C3B         0.3190    1.0480   -4.6730 ca        1 GAS     -0.037500
     25 C4B        -0.8940    0.3470   -4.5600 ca        1 GAS     -0.136000
     26 C7B        -1.7580    0.2240   -5.6750 cg        1 GAS      0.270800
     27 N7B        -2.4700    0.1240   -6.5910 n1        1 GAS     -0.435800
     28 C5B        -1.2290   -0.2380   -3.3310 ca        1 GAS     -0.037500
     29 C6B        -0.3960   -0.1130   -2.2320 ca        1 GAS     -0.241000
     30 H1         -2.2690    1.9220    0.9490 ha        1 GAS      0.137250
     31 H2         -3.8300    3.2720    2.3060 ha        1 GAS      0.124500
     32 H3         -3.7190    3.2080    4.7990 ha        1 GAS      0.122000
     33 H4         -2.0090    1.7800    5.9270 ha        1 GAS      0.124500
     34 H5         -0.4230    0.4260    4.5740 ha        1 GAS      0.137250
     35 H7          0.6210    0.0180    2.5920 h1        1 GAS      0.105700
     36 HN7        -0.4620    1.1280    0.0830 hn        1 GAS      0.380800
     37 H2A         0.6770   -2.2570    2.5580 ha        1 GAS      0.137250
     38 H3A        -0.3710   -4.4700    2.0930 ha        1 GAS      0.124500
     39 H4A        -2.5270   -4.5980    0.8410 ha        1 GAS      0.122000
     40 H5A        -3.6340   -2.5040    0.0560 ha        1 GAS      0.124500
     41 H6A        -2.6020   -0.2890    0.5410 ha        1 GAS      0.137250
     42 H91         3.2040   -1.5300   -0.8690 h1        1 GAS      0.042200
     43 H92         3.7320   -1.8460    0.8510 h1        1 GAS      0.042200
     44 HN1         2.6080    1.1390   -1.4150 hn        1 GAS      0.517800
     45 H2B         2.1130    1.7260   -3.6990 ha        1 GAS      0.146000
     46 H3B         0.6010    1.4940   -5.6390 ha        1 GAS      0.127500
     47 H5B        -2.1630   -0.8120   -3.2390 ha        1 GAS      0.127500
     48 H6B        -0.6740   -0.6240   -1.2970 ha        1 GAS      0.146000
@<TRIPOS>BOND
     1    1    2 ar  
     2    1    6 ar  
     3    1   30 1   
     4    2    3 ar  
     5    2   31 1   
     6    3    4 ar  
     7    3   32 1   
     8    4    5 ar  
     9    4   33 1   
    10    5    6 ar  
    11    5   34 1   
    12    6    7 1   
    13    7    8 1   
    14    7    9 1   
    15    7   35 1   
    16    8   15 1   
    17    8   36 1   
    18    9   10 ar  
    19    9   14 ar  
    20   10   11 ar  
    21   10   37 1   
    22   11   12 ar  
    23   11   38 1   
    24   12   13 ar  
    25   12   39 1   
    26   13   14 ar  
    27   13   40 1   
    28   14   41 1   
    29   15   16 2   
    30   15   21 1   
    31   16   17 1   
    32   17   18 1   
    33   17   42 1   
    34   17   43 1   
    35   18   19 1   
    36   18   20 1   
    37   21   22 1   
    38   21   44 1   
    39   22   23 ar  
    40   22   29 ar  
    41   23   24 ar  
    42   23   45 1   
    43   24   25 ar  
    44   24   46 1   
    45   25   26 1   
    46   25   28 ar  
    47   26   27 3   
    48   28   29 ar  
    49   28   47 1   
    50   29   48 1   
@<TRIPOS>SUBSTRUCTURE
     1 GAS         1 TEMP              0 ****  ****    0 ROOT
