@<TRIPOS>MOLECULE
GAS
   48    42     1     0     0
SMALL
bcc


@<TRIPOS>ATOM
      1 C1          2.5880    1.6940    0.0630 c1        1 GAS     -0.105000
      2 C2          4.0060    1.7570    0.0250 c1        1 GAS     -0.140667
      3 C3          4.7860    1.0470    1.0060 c1        1 GAS     -0.140667
      4 C4          4.1980    0.3520    1.9240 c1        1 GAS     -0.140667
      5 C5          2.7430    0.2840    1.9680 c1        1 GAS     -0.140667
      6 C6          1.9770    0.9690    1.0190 c1        1 GAS     -0.044000
      7 C7          0.4340    0.8770    1.0680 c3        1 GAS      0.080000
      8 N7         -0.0950    0.9900   -0.2340 n3        1 GAS     -0.284000
      9 C1A        -0.1060    1.9750    1.9310 c2        1 GAS     -0.087000
     10 C2A         0.4120    3.2330    1.8430 c1        1 GAS     -0.122000
     11 C3A        -0.0860    4.2590    2.6810 c1        1 GAS     -0.140667
     12 C4A        -1.1160    3.9770    3.6030 c1        1 GAS     -0.140667
     13 C5A        -1.6480    2.6720    3.6880 c1        1 GAS     -0.133000
     14 C6A        -1.1690    1.6890    2.8840 c2        1 GAS     -0.117000
     15 C8         -0.6080   -0.2050   -0.9230 c2        1 GAS      0.128000
     16 N8         -1.5460   -1.0340   -0.2960 n1        1 GAS     -0.237000
     17 C9         -2.0050   -0.7390    0.9910 c2        1 GAS     -0.172000
     18 C10        -2.5730   -1.9480    1.5900 c2        1 GAS      0.330000
     19 O1         -3.7210   -1.8980    2.1800 o         1 GAS     -0.575000
     20 O2         -1.9340   -2.9770    1.5990 o         1 GAS     -0.575000
     21 N11        -0.1420   -0.5220   -2.2480 n3        1 GAS     -0.238000
     22 C1B        -0.6820   -1.6850   -2.9540 c2        1 GAS      0.104000
     23 C2B        -0.6340   -1.7360   -4.3530 c2        1 GAS     -0.210000
     24 C3B        -1.1150   -2.8430   -5.0250 c1        1 GAS     -0.067000
     25 C4B        -1.6480   -3.9130   -4.3090 c1        1 GAS     -0.092000
     26 C7B        -2.1260   -5.1310   -5.0330 c1        1 GAS     -0.064000
     27 N7B        -2.4970   -6.0790   -5.5980 n1        1 GAS     -0.099000
     28 C5B        -1.6980   -3.8640   -2.8870 c1        1 GAS     -0.056000
     29 C6B        -1.2220   -2.7690   -2.2240 c1        1 GAS     -0.175000
     30 H1          2.0210    2.2060   -0.6460 ha        1 GAS      0.149000
     31 H2          4.4650    2.2970   -0.6840 ha        1 GAS      0.120500
     32 H3          5.7300    1.0890    0.9830 ha        1 GAS      0.120500
     33 H4          4.7390   -0.2170    2.5370 ha        1 GAS      0.120500
     34 H5          2.2780   -0.2660    2.6970 ha        1 GAS      0.120500
     35 H7          0.1850    0.0540    1.4310 h1        1 GAS      0.098000
     36 HN7        -0.1410    1.8640   -0.6720 hn        1 GAS      0.232000
     37 H2A         1.0700    3.4420    1.1470 ha        1 GAS      0.133000
     38 H3A         0.3030    5.2100    2.6160 ha        1 GAS      0.120500
     39 H4A        -1.4210    4.6750    4.2350 ha        1 GAS      0.120500
     40 H5A        -2.3520    2.4760    4.3200 ha        1 GAS      0.133000
     41 H6A        -1.4670    0.8300    2.9890 ha        1 GAS      0.204000
     42 H91        -1.3000   -0.4400    1.5080 ha        1 GAS      0.085500
     43 H92        -2.6910   -0.0500    0.9450 ha        1 GAS      0.085500
     44 HN1         0.4050   -0.0130   -2.6370 hn        1 GAS      0.204000
     45 H2B        -0.1440   -0.9120   -4.9200 ha        1 GAS      0.128000
     46 H3B        -1.1760   -2.8310   -6.0480 ha        1 GAS      0.125000
     47 H5B        -2.0780   -4.5610   -2.4110 ha        1 GAS      0.143000
     48 H6B        -1.1940   -3.2830   -1.3720 ha        1 GAS      0.212000
@<TRIPOS>BOND
     1    1    6 1   
     2    1   30 1   
     3    2    3 1   
     4    2   31 1   
     5    3   32 1   
     6    4    5 1   
     7    4   33 1   
     8    5   34 1   
     9    6    7 1   
    10    7    8 1   
    11    7    9 1   
    12    7   35 1   
    13    8   15 1   
    14    8   36 1   
    15    9   10 1   
    16    9   14 1   
    17   10   37 1   
    18   11   12 1   
    19   11   38 1   
    20   12   39 1   
    21   13   14 1   
    22   13   40 1   
    23   14   41 1   
    24   15   16 1   
    25   15   21 1   
    26   17   18 1   
    27   17   42 1   
    28   17   43 1   
    29   18   19 1   
    30   18   20 1   
    31   21   22 1   
    32   21   44 1   
    33   22   23 1   
    34   22   29 1   
    35   23   24 1   
    36   23   45 1   
    37   24   46 1   
    38   25   26 1   
    39   25   28 1   
    40   26   27 1   
    41   28   47 1   
    42   29   48 1   
@<TRIPOS>SUBSTRUCTURE
     1 GAS         1 TEMP              0 ****  ****    0 ROOT
