@<TRIPOS>MOLECULE
GAT
   36    37     1     0     0
SMALL
bcc


@<TRIPOS>ATOM
      1 C1         -0.0710    0.2580    0.1920 c3        1 GAT      0.309900
      2 C2          1.4420   -0.0250    0.2360 c3        1 GAT      0.090100
      3 C3          1.9420   -0.0440    1.6880 c3        1 GAT      0.077100
      4 C4          1.5310    1.2510    2.4070 c3        1 GAT      0.127100
      5 C5          0.0140    1.4370    2.2860 c3        1 GAT      0.105100
      6 C6         -0.4200    2.8090    2.8130 c3        1 GAT      0.142400
      7 C7         -2.0030   -1.1260    0.3470 ca        1 GAT      0.056100
      8 C8         -2.9740   -0.1280    0.2110 ca        1 GAT     -0.113500
      9 C9         -4.2630   -0.4720   -0.1710 ca        1 GAT     -0.173500
     10 C10        -4.6100   -1.8240   -0.4080 ca        1 GAT      0.129600
     11 C11        -3.6090   -2.8150   -0.2650 ca        1 GAT     -0.173500
     12 C12        -2.3170   -2.4700    0.1070 ca        1 GAT     -0.113500
     13 N1         -5.9310   -2.1820   -0.6950 nv        1 GAT     -0.818200
     14 O1         -0.7150   -0.8590    0.8000 os        1 GAT     -0.378900
     15 O2          1.7600   -1.2370   -0.4120 oh        1 GAT     -0.593800
     16 O3          3.3580   -0.1030    1.7340 oh        1 GAT     -0.606800
     17 O4          2.1750    2.3800    1.8440 oh        1 GAT     -0.595800
     18 O5         -0.4440    1.3960    0.9300 os        1 GAT     -0.432600
     19 O6         -1.8260    2.9250    2.8330 oh        1 GAT     -0.597800
     20 H1         -0.4360    0.4500   -0.8550 h2        1 GAT      0.101700
     21 H2          1.9820    0.7760   -0.3440 h1        1 GAT      0.110700
     22 H3          1.5110   -0.9340    2.2250 h1        1 GAT      0.062700
     23 H4          1.8100    1.1710    3.4960 h1        1 GAT      0.058700
     24 H5         -0.4970    0.6100    2.8540 h1        1 GAT      0.074700
     25 H61         0.0390    3.6160    2.1820 h1        1 GAT      0.065200
     26 H62        -0.0970    2.9210    3.8810 h1        1 GAT      0.065200
     27 H8         -2.7080    0.9220    0.4100 ha        1 GAT      0.146500
     28 H9         -5.0210    0.3190   -0.2740 ha        1 GAT      0.136500
     29 H11        -3.8520   -3.8740   -0.4410 ha        1 GAT      0.136500
     30 H12        -1.5440   -3.2430    0.2250 ha        1 GAT      0.146500
     31 HN11       -6.0280   -3.0520   -1.1700 hn        1 GAT      0.390300
     32 HN12       -6.4780   -1.4520   -1.0940 hn        1 GAT      0.390300
     33 HO2         1.1980   -1.9260   -0.0300 ho        1 GAT      0.418000
     34 HO3         3.6320   -0.7630    1.0820 ho        1 GAT      0.425000
     35 HO4         3.1200    2.1750    1.8210 ho        1 GAT      0.423000
     36 HO6        -2.1330    2.7980    1.9260 ho        1 GAT      0.409000
@<TRIPOS>BOND
     1    1    2 1   
     2    1   14 1   
     3    1   18 1   
     4    1   20 1   
     5    2    3 1   
     6    2   15 1   
     7    2   21 1   
     8    3    4 1   
     9    3   16 1   
    10    3   22 1   
    11    4    5 1   
    12    4   17 1   
    13    4   23 1   
    14    5    6 1   
    15    5   18 1   
    16    5   24 1   
    17    6   19 1   
    18    6   25 1   
    19    6   26 1   
    20    7    8 ar  
    21    7   12 ar  
    22    7   14 1   
    23    8    9 ar  
    24    8   27 1   
    25    9   10 ar  
    26    9   28 1   
    27   10   11 ar  
    28   10   13 1   
    29   11   12 ar  
    30   11   29 1   
    31   12   30 1   
    32   13   31 1   
    33   13   32 1   
    34   15   33 1   
    35   16   34 1   
    36   17   35 1   
    37   19   36 1   
@<TRIPOS>SUBSTRUCTURE
     1 GAT         1 TEMP              0 ****  ****    0 ROOT
