@<TRIPOS>MOLECULE
GAT
   36    37     1     0     0
SMALL
bcc


@<TRIPOS>ATOM
      1 C1         -0.4440    0.7150   -0.5900 c3        1 GAT      0.309900
      2 C2         -1.2630    0.4850   -1.8730 c3        1 GAT      0.090100
      3 C3         -0.7290   -0.7320   -2.6420 c3        1 GAT      0.077100
      4 C4          0.7810   -0.5810   -2.8880 c3        1 GAT      0.127100
      5 C5          1.4910   -0.3430   -1.5500 c3        1 GAT      0.105100
      6 C6          2.9670    0.0100   -1.7590 c3        1 GAT      0.142400
      7 C7         -0.5790   -0.1600    1.6220 ca        1 GAT      0.058100
      8 C8          0.4770    0.5720    2.1760 ca        1 GAT     -0.115500
      9 C9          0.5650    0.7150    3.5540 ca        1 GAT     -0.171500
     10 C10        -0.4000    0.1240    4.4040 ca        1 GAT      0.126600
     11 C11        -1.4510   -0.6230    3.8200 ca        1 GAT     -0.171500
     12 C12        -1.5460   -0.7560    2.4420 ca        1 GAT     -0.115500
     13 N1         -0.3640    0.3440    5.7860 nh        1 GAT     -0.816200
     14 O1         -0.6830   -0.4070    0.2570 os        1 GAT     -0.379900
     15 O2         -2.6360    0.3250   -1.5890 oh        1 GAT     -0.592800
     16 O3         -1.3410   -0.8340   -3.9170 oh        1 GAT     -0.607800
     17 O4          1.0580    0.5090   -3.7500 oh        1 GAT     -0.594800
     18 O5          0.9430    0.7620   -0.8200 os        1 GAT     -0.432600
     19 O6          3.6490    0.0960   -0.5270 oh        1 GAT     -0.598800
     20 H1         -0.6960    1.6930   -0.0950 h2        1 GAT      0.103700
     21 H2         -1.1970    1.4050   -2.5200 h1        1 GAT      0.110700
     22 H3         -0.9280   -1.6700   -2.0520 h1        1 GAT      0.061700
     23 H4          1.1740   -1.5290   -3.3530 h1        1 GAT      0.058700
     24 H5          1.3860   -1.2680   -0.9170 h1        1 GAT      0.073700
     25 H61         3.4740   -0.8160   -2.3240 h1        1 GAT      0.065200
     26 H62         3.0470    0.9750   -2.3270 h1        1 GAT      0.065200
     27 H8          1.2330    1.0260    1.5160 ha        1 GAT      0.147000
     28 H9          1.3960    1.2960    3.9810 ha        1 GAT      0.136500
     29 H11        -2.2120   -1.0980    4.4580 ha        1 GAT      0.136500
     30 H12        -2.3640   -1.3350    1.9900 ha        1 GAT      0.147000
     31 HN11       -0.8360   -0.3490    6.3230 hn        1 GAT      0.389300
     32 HN12        0.5400    0.5660    6.1410 hn        1 GAT      0.389300
     33 HO2        -2.7140   -0.3630   -0.9130 ho        1 GAT      0.418000
     34 HO3        -2.2860   -0.6740   -3.7870 ho        1 GAT      0.425000
     35 HO4         0.4940    0.3930   -4.5290 ho        1 GAT      0.423000
     36 HO6         3.2100    0.7810   -0.0080 ho        1 GAT      0.409000
@<TRIPOS>BOND
     1    1    2 1   
     2    1   14 1   
     3    1   18 1   
     4    1   20 1   
     5    2    3 1   
     6    2   15 1   
     7    2   21 1   
     8    3    4 1   
     9    3   16 1   
    10    3   22 1   
    11    4    5 1   
    12    4   17 1   
    13    4   23 1   
    14    5    6 1   
    15    5   18 1   
    16    5   24 1   
    17    6   19 1   
    18    6   25 1   
    19    6   26 1   
    20    7    8 ar  
    21    7   12 ar  
    22    7   14 1   
    23    8    9 ar  
    24    8   27 1   
    25    9   10 ar  
    26    9   28 1   
    27   10   11 ar  
    28   10   13 1   
    29   11   12 ar  
    30   11   29 1   
    31   12   30 1   
    32   13   31 1   
    33   13   32 1   
    34   15   33 1   
    35   16   34 1   
    36   17   35 1   
    37   19   36 1   
@<TRIPOS>SUBSTRUCTURE
     1 GAT         1 TEMP              0 ****  ****    0 ROOT
