@<TRIPOS>MOLECULE
GAT
   36    37     1     0     0
SMALL
bcc


@<TRIPOS>ATOM
      1 C1         -0.0650    0.2460    0.1930 c3        1 GAT      0.309900
      2 C2          1.4470   -0.0390    0.2520 c3        1 GAT      0.090100
      3 C3          1.9380   -0.0390    1.7070 c3        1 GAT      0.077100
      4 C4          1.5240    1.2660    2.4050 c3        1 GAT      0.127100
      5 C5          0.0080    1.4530    2.2720 c3        1 GAT      0.105100
      6 C6         -0.4270    2.8330    2.7770 c3        1 GAT      0.142400
      7 C7         -2.0000   -1.1330    0.3530 ca        1 GAT      0.056100
      8 C8         -2.9670   -0.1350    0.1890 ca        1 GAT     -0.113500
      9 C9         -4.2540   -0.4820   -0.1980 ca        1 GAT     -0.173500
     10 C10        -4.6030   -1.8370   -0.4120 ca        1 GAT      0.129600
     11 C11        -3.6070   -2.8280   -0.2410 ca        1 GAT     -0.173500
     12 C12        -2.3170   -2.4800    0.1360 ca        1 GAT     -0.113500
     13 N1         -5.9230   -2.1960   -0.7050 nh        1 GAT     -0.818200
     14 O1         -0.7160   -0.8610    0.8120 os        1 GAT     -0.378900
     15 O2          1.7670   -1.2600   -0.3780 oh        1 GAT     -0.593800
     16 O3          3.3530   -0.1000    1.7630 oh        1 GAT     -0.606800
     17 O4          2.1730    2.3860    1.8320 oh        1 GAT     -0.595800
     18 O5         -0.4410    1.3950    0.9130 os        1 GAT     -0.432600
     19 O6         -1.8330    2.9510    2.7880 oh        1 GAT     -0.597800
     20 H1         -0.4220    0.4250   -0.8580 h2        1 GAT      0.101700
     21 H2          1.9920    0.7530   -0.3350 h1        1 GAT      0.110700
     22 H3          1.5010   -0.9210    2.2530 h1        1 GAT      0.062700
     23 H4          1.7950    1.2000    3.4970 h1        1 GAT      0.058700
     24 H5         -0.5090    0.6340    2.8480 h1        1 GAT      0.074700
     25 H61         0.0360    3.6300    2.1380 h1        1 GAT      0.065200
     26 H62        -0.1090    2.9580    3.8460 h1        1 GAT      0.065200
     27 H8         -2.7000    0.9190    0.3710 ha        1 GAT      0.146500
     28 H9         -5.0080    0.3100   -0.3230 ha        1 GAT      0.136500
     29 H11        -3.8510   -3.8890   -0.3990 ha        1 GAT      0.136500
     30 H12        -1.5470   -3.2520    0.2760 ha        1 GAT      0.146500
     31 HN11       -6.0180   -3.0740   -1.1640 hn        1 GAT      0.390300
     32 HN12       -6.4630   -1.4720   -1.1230 hn        1 GAT      0.390300
     33 HO2         1.2010   -1.9430    0.0090 ho        1 GAT      0.418000
     34 HO3         3.6300   -0.7690    1.1220 ho        1 GAT      0.425000
     35 HO4         3.1180    2.1790    1.8180 ho        1 GAT      0.423000
     36 HO6        -2.1350    2.8110    1.8820 ho        1 GAT      0.409000
@<TRIPOS>BOND
     1    1    2 1   
     2    1   14 1   
     3    1   18 1   
     4    1   20 1   
     5    2    3 1   
     6    2   15 1   
     7    2   21 1   
     8    3    4 1   
     9    3   16 1   
    10    3   22 1   
    11    4    5 1   
    12    4   17 1   
    13    4   23 1   
    14    5    6 1   
    15    5   18 1   
    16    5   24 1   
    17    6   19 1   
    18    6   25 1   
    19    6   26 1   
    20    7    8 ar  
    21    7   12 ar  
    22    7   14 1   
    23    8    9 ar  
    24    8   27 1   
    25    9   10 ar  
    26    9   28 1   
    27   10   11 ar  
    28   10   13 1   
    29   11   12 ar  
    30   11   29 1   
    31   12   30 1   
    32   13   31 1   
    33   13   32 1   
    34   15   33 1   
    35   16   34 1   
    36   17   35 1   
    37   19   36 1   
@<TRIPOS>SUBSTRUCTURE
     1 GAT         1 TEMP              0 ****  ****    0 ROOT
