@<TRIPOS>MOLECULE
GAT
   37    38     1     0     0
SMALL
bcc


@<TRIPOS>ATOM
      1 C1          0.1080    0.2020   -0.0040 c3        1 GAT      0.303900
      2 C2          1.6190   -0.0080    0.2090 c3        1 GAT      0.091100
      3 C3          1.9460   -0.0840    1.7100 c3        1 GAT      0.115100
      4 C4          1.3890    1.1680    2.4100 c3        1 GAT      0.122100
      5 C5         -0.1150    1.2830    2.1350 c3        1 GAT      0.144100
      6 C6         -0.6690    2.6140    2.6510 c3        1 GAT      0.139400
      7 C7         -1.8710   -1.1630    0.1610 ca        1 GAT      0.215100
      8 C8         -2.7200   -0.1630   -0.3480 ca        1 GAT     -0.159500
      9 C9         -4.0590   -0.4440   -0.5760 ca        1 GAT     -0.060000
     10 C10        -4.5580   -1.7290   -0.2960 ca        1 GAT     -0.142400
     11 C11        -3.7110   -2.7370    0.2110 ca        1 GAT     -0.060000
     12 C12        -2.3760   -2.4560    0.4360 ca        1 GAT     -0.159500
     13 N1         -5.9720   -2.0210   -0.5110 n4        1 GAT     -0.688000
     14 O1         -0.5500   -0.9940    0.4520 os        1 GAT     -0.331900
     15 O2          2.0640   -1.2170   -0.3670 oh        1 GAT     -0.579800
     16 O3          3.3450   -0.0670    1.9110 oh        1 GAT     -0.597800
     17 O4          2.0190    2.3440    1.9380 oh        1 GAT     -0.593800
     18 O5         -0.4290    1.2610    0.7320 os        1 GAT     -0.417600
     19 O6         -2.0490    2.4090    2.9100 oh        1 GAT     -0.614800
     20 H1         -0.1440    0.4130   -1.0810 h2        1 GAT      0.089700
     21 H2          2.1440    0.8830   -0.2400 h1        1 GAT      0.091700
     22 H3          1.4950   -1.0160    2.1470 h1        1 GAT      0.072700
     23 H4          1.5580    1.0690    3.5200 h1        1 GAT      0.071700
     24 H5         -0.6420    0.4160    2.6230 h1        1 GAT      0.073700
     25 H61        -0.5230    3.4150    1.8800 h1        1 GAT      0.058200
     26 H62        -0.1320    2.8940    3.5960 h1        1 GAT      0.058200
     27 H8         -2.3360    0.8560   -0.5300 ha        1 GAT      0.189500
     28 H9         -4.7140    0.3530   -0.9670 ha        1 GAT      0.154500
     29 H11        -4.0930   -3.7480    0.4300 ha        1 GAT      0.154500
     30 H12        -1.6940   -3.2260    0.8340 ha        1 GAT      0.189500
     31 HN11       -6.3610   -1.3760   -1.2070 hn        1 GAT      0.458800
     32 HN12       -6.4830   -1.9110    0.3720 hn        1 GAT      0.458800
     33 HO2         2.0980   -1.0850   -1.3230 ho        1 GAT      0.415000
     34 HO3         3.7040   -0.8390    1.4530 ho        1 GAT      0.434000
     35 HO4         2.9700    2.2250    2.0750 ho        1 GAT      0.433000
     36 HO6        -2.3940    3.2520    3.2280 ho        1 GAT      0.413000
     37 H13        -6.0820   -2.9850   -0.8440 hn        1 GAT      0.458800
@<TRIPOS>BOND
     1    1    2 1   
     2    1   14 1   
     3    1   18 1   
     4    1   20 1   
     5    2    3 1   
     6    2   15 1   
     7    2   21 1   
     8    3    4 1   
     9    3   16 1   
    10    3   22 1   
    11    4    5 1   
    12    4   17 1   
    13    4   23 1   
    14    5    6 1   
    15    5   18 1   
    16    5   24 1   
    17    6   19 1   
    18    6   25 1   
    19    6   26 1   
    20    7    8 ar  
    21    7   12 ar  
    22    7   14 1   
    23    8    9 ar  
    24    8   27 1   
    25    9   10 ar  
    26    9   28 1   
    27   10   11 ar  
    28   10   13 1   
    29   11   12 ar  
    30   11   29 1   
    31   12   30 1   
    32   13   31 1   
    33   13   32 1   
    34   13   37 1   
    35   15   33 1   
    36   16   34 1   
    37   17   35 1   
    38   19   36 1   
@<TRIPOS>SUBSTRUCTURE
     1 GAT         1 TEMP              0 ****  ****    0 ROOT
