@<TRIPOS>MOLECULE
GAU
   19    18     1     0     0
SMALL
bcc


@<TRIPOS>ATOM
      1 N           1.7170    1.5450   -0.4340 n3        1 GAU     -0.895800
      2 CA          1.4330    0.2750    0.2030 c3        1 GAU      0.163500
      3 CB          0.0630   -0.3120   -0.1670 c3        1 GAU     -0.067400
      4 CG         -1.0950    0.5580    0.2480 c3        1 GAU     -0.189400
      5 CD         -2.4230   -0.2140    0.1410 c         1 GAU      0.905600
      6 OE2        -3.4360    0.4120   -0.2850 o         1 GAU     -0.853800
      7 OE1        -2.4460   -1.4290    0.4950 o         1 GAU     -0.853800
      8 C           2.4740   -0.8350   -0.0820 c3        1 GAU      0.082400
      9 OXT         3.7610   -0.3440    0.2670 oh        1 GAU     -0.615800
     10 H           2.7050    1.7080   -0.4440 hn        1 GAU      0.339800
     11 H2          1.3750    1.5540   -1.3740 hn        1 GAU      0.339800
     12 HA          1.4560    0.4730    1.3150 h1        1 GAU      0.063700
     13 HB2         0.0180   -0.4960   -1.2720 hc        1 GAU      0.045700
     14 HB3        -0.0480   -1.3090    0.3410 hc        1 GAU      0.045700
     15 HG2        -0.9710    0.8810    1.3120 hc        1 GAU      0.029200
     16 HG3        -1.1470    1.4780   -0.3850 hc        1 GAU      0.029200
     17 HO1         2.2280   -1.7400    0.5330 h1        1 GAU      0.022700
     18 HO2         2.4660   -1.1180   -1.1690 h1        1 GAU      0.022700
     19 HXT         4.3680   -1.0860    0.1780 ho        1 GAU      0.386000
@<TRIPOS>BOND
     1    1    2 1   
     2    1   10 1   
     3    1   11 1   
     4    2    3 1   
     5    2    8 1   
     6    2   12 1   
     7    3    4 1   
     8    3   13 1   
     9    3   14 1   
    10    4    5 1   
    11    4   15 1   
    12    4   16 1   
    13    5    6 1   
    14    5    7 1   
    15    8    9 1   
    16    8   17 1   
    17    8   18 1   
    18    9   19 1   
@<TRIPOS>SUBSTRUCTURE
     1 GAU         1 TEMP              0 ****  ****    0 ROOT
