@<TRIPOS>MOLECULE
GAU
   19    18     1     0     0
SMALL
bcc


@<TRIPOS>ATOM
      1 N          -1.7360   -0.0960   -0.7140 n3        1 GAU     -0.895800
      2 CA         -0.3140   -0.0960   -0.7140 c3        1 GAU      0.163500
      3 CB          0.1900   -0.0960    0.7110 c3        1 GAU     -0.067400
      4 CG          0.3840    1.3300    1.1770 c3        1 GAU     -0.189400
      5 CD          0.8370    1.3310    2.6210 c         1 GAU      0.905600
      6 OE2        -0.0150    1.3460    3.5480 o         1 GAU     -0.853800
      7 OE1         2.0660    1.3170    2.8950 o         1 GAU     -0.853800
      8 C           0.1900   -1.3300   -1.4260 c3        1 GAU      0.082400
      9 OXT        -0.0060   -1.1840   -2.8150 oh        1 GAU     -0.615800
     10 H          -2.0410   -0.8950   -1.0320 hn        1 GAU      0.339800
     11 H2         -2.0410    0.5790   -1.2460 hn        1 GAU      0.339800
     12 HA          0.0120    0.7010   -1.1740 h1        1 GAU      0.063700
     13 HB2         1.0410   -0.5720    0.7550 hc        1 GAU      0.045700
     14 HB3        -0.4610   -0.5410    1.2870 hc        1 GAU      0.045700
     15 HG2        -0.4590    1.8150    1.1010 hc        1 GAU      0.029200
     16 HG3         1.0610    1.7640    0.6240 hc        1 GAU      0.029200
     17 HO1        -0.3010   -2.1120   -1.1090 h1        1 GAU      0.022700
     18 HO2         1.1420   -1.4470   -1.2420 h1        1 GAU      0.022700
     19 HXT         0.4510   -1.8110   -3.2460 ho        1 GAU      0.386000
@<TRIPOS>BOND
     1    1    2 1   
     2    1   10 1   
     3    1   11 1   
     4    2    3 1   
     5    2    8 1   
     6    2   12 1   
     7    3    4 1   
     8    3   13 1   
     9    3   14 1   
    10    4    5 1   
    11    4   15 1   
    12    4   16 1   
    13    5    6 1   
    14    5    7 1   
    15    8    9 1   
    16    8   17 1   
    17    8   18 1   
    18    9   19 1   
@<TRIPOS>SUBSTRUCTURE
     1 GAU         1 TEMP              0 ****  ****    0 ROOT
