@<TRIPOS>MOLECULE
GAV
   46    48     1     0     0
SMALL
bcc


@<TRIPOS>ATOM
      1 O6          0.0000    0.0000    0.0000 o         1 GAV     -0.761500
      2 C6          1.2190    0.0000    0.0000 c         1 GAV      0.589000
      3 C5          1.9430    0.0000    1.2150 cc        1 GAV      0.023800
      4 C4          3.3420   -0.0010    1.1600 cd        1 GAV     -0.045200
      5 N3          3.9590   -0.0000   -0.0270 nd        1 GAV     -0.605100
      6 C2          3.2740   -0.0010   -1.1480 cc        1 GAV     -0.340200
      7 N2          3.9510    0.0000   -2.3430 nz        1 GAV      0.342400
      8 N1          1.9120   -0.0050   -1.1610 ns        1 GAV     -0.015400
      9 N7          1.5920   -0.0010    2.5240 nc        1 GAV     -0.515000
     10 C8          2.6650   -0.0010    3.2590 cd        1 GAV      0.163400
     11 N9          3.7730   -0.0010    2.4590 na        1 GAV      0.200100
     12 C1'         5.1660   -0.0010    2.9110 c3        1 GAV      0.171800
     13 C2'         5.7250    1.4440    2.9590 c3        1 GAV      0.120100
     14 O2'         6.2400    1.8340    1.6840 oh        1 GAV     -0.544800
     15 C3'         6.8630    1.3170    4.0000 c3        1 GAV      0.121100
     16 O3'         8.1230    1.1550    3.3460 oh        1 GAV     -0.560800
     17 O4'         5.2570   -0.4430    4.2820 os        1 GAV     -0.374600
     18 C4'         6.5030    0.0510    4.8010 c3        1 GAV      0.144100
     19 C5'         6.3490    0.3980    6.2830 c3        1 GAV      0.293400
     20 O5'         6.1320   -0.7990    7.0320 os        1 GAV     -0.464200
     21 PA          5.9260   -0.8080    8.6290 p5        1 GAV      0.994500
     22 S1A         4.1320    0.2100    9.1170 sh        1 GAV     -0.344200
     23 O2A         7.0700   -0.1310    9.2780 o         1 GAV     -0.592300
     24 O3A         5.8380   -2.3300    9.1500 os        1 GAV     -0.459800
     25 PB          5.6430   -3.0070   10.5970 p5        1 GAV      0.999800
     26 O1B         4.0850   -2.9730   11.0000 o         1 GAV     -0.642500
     27 O2B         6.4290   -2.2570   11.6030 o         1 GAV     -0.642500
     28 O3B         6.1520   -4.5340   10.5490 os        1 GAV     -0.494800
     29 PG          6.5110   -5.6290   11.6730 p5        1 GAV      0.920900
     30 O1G         7.9350   -5.2710   12.3350 o         1 GAV     -0.405167
     31 O3G         6.5860   -7.0880   10.9950 o         1 GAV     -0.405167
     32 O2G         5.4650   -5.6240   12.7190 o         1 GAV     -0.405167
     33 H1          1.4210   -0.0050   -2.0330 hn        1 GAV      0.121500
     34 H2N1        3.7910    0.8670   -2.8160 hn        1 GAV      0.099133
     35 H2N2        3.6250   -0.7560   -2.9110 hn        1 GAV      0.099133
     36 H8          2.6790   -0.0040    4.3420 h5        1 GAV      0.025100
     37 H1'         5.7800   -0.6240    2.2710 h2        1 GAV      0.047700
     38 H2'         4.9670    2.1360    3.3030 h1        1 GAV      0.025700
     39 HA          6.1840    2.7710    1.5960 ho        1 GAV      0.371000
     40 H3'         6.8760    2.1830    4.6510 h1        1 GAV      0.005700
     41 HB          8.7310    1.7990    3.6700 ho        1 GAV      0.377000
     42 H4'         7.2760   -0.6970    4.6710 h1        1 GAV      0.042700
     43 H5'1        5.5030    1.0630    6.4110 h1        1 GAV     -0.007300
     44 H5'2        7.2490    0.8860    6.6350 h1        1 GAV     -0.007300
     45 H1A         3.1660   -0.6740    9.3330 hs        1 GAV      0.236800
     46 H23         4.9310   -0.1100   -2.1710 hn        1 GAV      0.099133
@<TRIPOS>BOND
     1    1    2 2   
     2    2    3 1   
     3    2    8 1   
     4    3    4 2   
     5    3    9 1   
     6    4    5 1   
     7    4   11 1   
     8    5    6 2   
     9    6    7 1   
    10    6    8 1   
    11    7   34 1   
    12    7   35 1   
    13    7   46 1   
    14    8   33 1   
    15    9   10 2   
    16   10   11 1   
    17   10   36 1   
    18   11   12 1   
    19   12   13 1   
    20   12   17 1   
    21   12   37 1   
    22   13   14 1   
    23   13   15 1   
    24   13   38 1   
    25   14   39 1   
    26   15   16 1   
    27   15   18 1   
    28   15   40 1   
    29   16   41 1   
    30   17   18 1   
    31   18   19 1   
    32   18   42 1   
    33   19   20 1   
    34   19   43 1   
    35   19   44 1   
    36   20   21 1   
    37   21   22 1   
    38   21   23 2   
    39   21   24 1   
    40   22   45 1   
    41   24   25 1   
    42   25   26 1   
    43   25   27 1   
    44   25   28 1   
    45   28   29 1   
    46   29   30 1   
    47   29   31 1   
    48   29   32 1   
@<TRIPOS>SUBSTRUCTURE
     1 GAV         1 TEMP              0 ****  ****    0 ROOT
