@<TRIPOS>MOLECULE
GAX
   50    51     1     0     0
SMALL
bcc


@<TRIPOS>ATOM
      1 N6         -0.2560   -0.6600   -0.2450 n2        1 GAX     -0.286000
      2 C2          1.2210   -4.8540   -4.6310 c2        1 GAX     -0.037000
      3 N2          0.8500   -7.0880   -1.6920 ns        1 GAX     -0.314000
      4 N3          1.2220   -8.5590    0.0740 n2        1 GAX     -0.277000
      5 C4          2.6730   -3.0880   -5.5820 c3        1 GAX     -0.731000
      6 N4          2.8780   -1.4050   -3.4570 n3        1 GAX     -0.803000
      7 C5          1.5020   -2.6660   -6.3740 c2        1 GAX     -0.051000
      8 C6          0.3210   -3.3280   -6.3150 c2        1 GAX     -0.200000
      9 O1          4.8900   -2.1580   -4.7510 o         1 GAX     -0.906500
     10 O2          3.3470   -0.6460   -5.7860 o         1 GAX     -0.906500
     11 O3          2.0980   -5.1600   -1.9750 o         1 GAX     -0.428000
     12 C7          1.3430   -6.0350   -2.4820 c2        1 GAX      0.396000
     13 C8          1.3710   -7.3670   -0.4030 c2        1 GAX     -0.041000
     14 C10         2.4300   -6.7980    3.0300 c1        1 GAX     -0.112000
     15 C9          2.2800   -6.4820    1.8750 c1        1 GAX     -0.482000
     16 S2          2.1330   -5.9700    0.3790 ss        1 GAX      0.535000
     17 C3          2.4240   -4.2010   -4.6510 c2        1 GAX     -0.073000
     18 C1          0.1230   -4.4690   -5.4920 c1        1 GAX     -0.086000
     19 S1          3.5700   -1.6980   -4.8810 s6        1 GAX      2.791000
     20 C14         1.5590   -0.8250   -3.3300 c3        1 GAX     -0.043000
     21 C13         0.4710   -1.7910   -2.8070 c3        1 GAX     -0.048000
     22 N5          0.7650   -2.3930   -1.5360 n7        1 GAX     -0.272000
     23 C12         4.0560   -2.6190   -1.6790 c2        1 GAX     -0.206000
     24 C11         3.6200   -1.4920   -2.2530 c2        1 GAX     -0.062000
     25 C15         0.4240   -1.8420   -0.3360 c2        1 GAX      0.185000
     26 C19         0.8910   -2.6030    0.9020 c3        1 GAX     -0.185000
     27 C18         0.2310   -2.1250    2.1430 c2        1 GAX     -0.161000
     28 C17        -0.5430   -1.0270    2.1420 c2        1 GAX     -0.202000
     29 C16        -0.6780   -0.2110    0.9260 c1        1 GAX     -0.059000
     30 H2          0.3610   -7.8380   -2.1420 hn        1 GAX      0.252000
     31 H10         1.5500   -8.6990    1.0060 hn        1 GAX      0.180000
     32 H9          2.5640   -7.0700    4.0480 ha        1 GAX      0.230000
     33 H1          0.1550   -6.4980   -4.1180 hn        1 GAX      0.253000
     34 H3          3.2680   -4.4930   -4.0000 ha        1 GAX      0.167000
     35 H5          3.4130   -3.5140   -6.3460 h1        1 GAX      0.218000
     36 H6          1.6570   -1.7920   -7.0350 ha        1 GAX      0.169000
     37 H1A        -0.5400   -3.0020   -6.9250 ha        1 GAX      0.162000
     38 H141        1.2300   -0.4610   -4.3460 h1        1 GAX      0.120500
     39 H142        1.6080    0.0680   -2.6390 h1        1 GAX      0.120500
     40 H131       -0.4890   -1.2020   -2.7490 h1        1 GAX      0.120500
     41 H132        0.3300   -2.6320   -3.5500 h1        1 GAX      0.120500
     42 H121        1.4130   -3.1560   -1.5390 hn        1 GAX      0.255000
     43 H122        3.8800   -3.6320   -2.0710 ha        1 GAX      0.142000
     44 H111        4.6540   -2.5710   -0.7580 ha        1 GAX      0.142000
     45 H112        3.8020   -0.5000   -1.7880 h4        1 GAX      0.146000
     46 H19         0.7030   -3.7080    0.7770 hc        1 GAX      0.132500
     47 H18         2.0050   -2.4680    1.0040 hc        1 GAX      0.132500
     48 H17         0.4400   -2.7210    3.0440 ha        1 GAX      0.127000
     49 H16        -1.0620   -0.6610    3.0380 ha        1 GAX      0.149000
     50 N1          0.9820   -6.0040   -3.8380 ns        1 GAX     -0.274000
@<TRIPOS>BOND
     1    1   25 1   
     2    1   29 1   
     3    2   17 1   
     4    2   18 1   
     5    2   50 1   
     6    3   12 1   
     7    3   13 1   
     8    3   30 1   
     9    4   13 1   
    10    4   31 1   
    11    5    7 1   
    12    5   17 1   
    13    5   19 1   
    14    5   35 1   
    15    6   19 1   
    16    6   20 1   
    17    6   24 1   
    18    7    8 1   
    19    7   36 1   
    20    8   18 1   
    21    8   37 1   
    22    9   19 1   
    23   10   19 1   
    24   11   12 1   
    25   12   50 1   
    26   13   16 1   
    27   14   15 1   
    28   14   32 1   
    29   15   16 1   
    30   17   34 1   
    31   20   21 1   
    32   20   38 1   
    33   20   39 1   
    34   21   22 1   
    35   21   40 1   
    36   21   41 1   
    37   22   25 1   
    38   22   42 1   
    39   23   24 1   
    40   23   43 1   
    41   23   44 1   
    42   24   45 1   
    43   25   26 1   
    44   26   27 1   
    45   26   46 1   
    46   26   47 1   
    47   27   28 1   
    48   27   48 1   
    49   28   29 1   
    50   28   49 1   
    51   33   50 1   
@<TRIPOS>SUBSTRUCTURE
     1 GAX         1 TEMP              0 ****  ****    0 ROOT
