@<TRIPOS>MOLECULE
GAX
   50    46     1     0     0
SMALL
bcc


@<TRIPOS>ATOM
      1 N6          0.4060    1.6650    3.8760 n1        1 GAX     -0.166000
      2 N1         -1.2240   -2.0010   -3.6440 n         1 GAX     -0.315000
      3 C2         -0.0150   -1.9560   -2.9100 c2        1 GAX      0.046000
      4 N2         -3.5960   -2.4950   -3.7240 n         1 GAX     -0.255000
      5 N3         -5.9210   -3.6070   -3.7710 n2        1 GAX     -0.127000
      6 C4          1.8100   -0.7310   -1.9630 c1        1 GAX     -0.797000
      7 N4          2.4350    1.3950   -0.2830 n3        1 GAX     -0.833000
      8 C5          2.3440   -1.9390   -1.4160 c2        1 GAX     -0.037000
      9 C6          1.6820   -3.1580   -1.6260 c1        1 GAX     -0.134000
     10 O1          4.1430    0.4480   -1.8930 o         1 GAX     -0.537900
     11 O2          2.5360    1.6690   -2.8270 o         1 GAX     -0.537900
     12 O3         -2.3960   -2.7940   -1.8820 o         1 GAX     -0.355000
     13 C7         -2.4170   -2.4550   -3.0140 c2        1 GAX      0.376000
     14 C8         -4.8020   -2.9540   -3.0970 c2        1 GAX     -0.216000
     15 C10        -7.0340   -3.8980   -2.7050 c1        1 GAX     -0.124000
     16 C9         -6.5730   -3.4230   -1.4330 c1        1 GAX     -0.487000
     17 S2         -5.1570   -2.8140   -1.6330 ss        1 GAX      0.608000
     18 C3          0.6270   -0.7690   -2.7070 c2        1 GAX     -0.070000
     19 C1          0.5340   -3.1900   -2.3490 c1        1 GAX     -0.072000
     20 S1          2.7650    0.7150   -1.7450 s4        1 GAX      2.060800
     21 C14         1.5580    2.4750   -0.2080 c3        1 GAX     -0.009000
     22 C13         0.9470    2.6310    1.1670 c3        1 GAX     -0.086000
     23 N5          1.9380    2.6520    2.2100 n3        1 GAX     -0.203000
     24 C12         2.8090    1.5770    2.1470 c3        1 GAX     -0.086000
     25 C11         3.4300    1.4160    0.7520 c3        1 GAX     -0.009000
     26 C15         1.2760    2.6800    3.5150 c1        1 GAX      0.048000
     27 C19         1.5570    3.6720    4.3850 c1        1 GAX     -0.147000
     28 C18         0.9930    3.6770    5.6030 c1        1 GAX     -0.140000
     29 C17         0.0990    2.6360    5.9740 c1        1 GAX     -0.140000
     30 C16        -0.1730    1.6640    5.1160 c1        1 GAX     -0.060000
     31 H2         -3.6190   -2.1940   -4.5900 hn        1 GAX      0.218000
     32 H10        -7.8310   -4.2950   -2.8620 DU        1 GAX      0.184500
     33 H9         -7.0410   -3.4730   -0.6310 DU        1 GAX      0.184500
     34 H1         -1.2490   -1.7070   -4.5160 hn        1 GAX      0.231000
     35 H3          0.2390    0.1040   -3.1050 ha        1 GAX      0.152000
     36 H5          3.1450   -1.9190   -0.9160 ha        1 GAX      0.149000
     37 H6          2.0290   -3.9490   -1.2690 ha        1 GAX      0.145000
     38 H1A         0.0640   -4.0520   -2.4910 ha        1 GAX      0.175000
     39 H141        0.8180    2.3420   -0.8860 h1        1 GAX      0.099250
     40 H142        2.0330    3.2690   -0.4230 h1        1 GAX      0.099250
     41 H131        0.3410    1.8930    1.3270 h1        1 GAX      0.091500
     42 H132        0.3820    3.5650    1.2000 h1        1 GAX      0.091500
     43 H121        3.5550    1.7170    2.8230 h1        1 GAX      0.091500
     44 H122        2.3170    0.7550    2.3810 h1        1 GAX      0.091500
     45 H111        4.0620    2.1810    0.5790 h1        1 GAX      0.099250
     46 H112        3.9430    0.5570    0.7230 h1        1 GAX      0.099250
     47 H19         2.1610    4.3770    4.1310 ha        1 GAX      0.157000
     48 H18         1.2170    4.4690    6.2970 ha        1 GAX      0.143500
     49 H17        -0.3510    2.6360    6.9410 ha        1 GAX      0.143500
     50 H16        -0.7970    0.9360    5.3700 ha        1 GAX      0.161000
@<TRIPOS>BOND
     1    1   30 1   
     2    2    3 1   
     3    2   13 1   
     4    2   34 1   
     5    3   18 1   
     6    3   19 1   
     7    4   13 1   
     8    4   14 1   
     9    4   31 1   
    10    5   14 1   
    11    5   15 1   
    12    6    8 1   
    13    6   18 1   
    14    7   20 1   
    15    7   21 1   
    16    7   25 1   
    17    8    9 1   
    18    8   36 1   
    19    9   37 1   
    20   10   20 1   
    21   11   20 1   
    22   12   13 1   
    23   14   17 1   
    24   15   16 1   
    25   16   17 1   
    26   18   35 1   
    27   19   38 1   
    28   21   22 1   
    29   21   39 1   
    30   21   40 1   
    31   22   23 1   
    32   22   41 1   
    33   22   42 1   
    34   23   24 1   
    35   23   26 1   
    36   24   25 1   
    37   24   43 1   
    38   24   44 1   
    39   25   45 1   
    40   25   46 1   
    41   26   27 1   
    42   27   47 1   
    43   28   29 1   
    44   28   48 1   
    45   29   49 1   
    46   30   50 1   
@<TRIPOS>SUBSTRUCTURE
     1 GAX         1 TEMP              0 ****  ****    0 ROOT
