@<TRIPOS>MOLECULE
GAX
   50    51     1     0     0
SMALL
bcc


@<TRIPOS>ATOM
      1 N6          0.8570    1.2560    1.0660 n2        1 GAX     -0.275000
      2 C2          2.9740   -6.3510   -6.6800 cu        1 GAX     -0.158000
      3 N2          1.2570   -8.1030   -2.2300 n         1 GAX     -0.330000
      4 N3          0.9900   -9.1680   -0.1680 n2        1 GAX     -0.281000
      5 C4          2.4330   -3.9330   -6.8320 c3        1 GAX     -0.765000
      6 N4          1.9240   -1.6900   -2.9770 n2        1 GAX     -0.231000
      7 C5          1.0740   -4.5270   -6.9660 c2        1 GAX     -0.046000
      8 C6          0.7430   -5.8160   -6.6960 c2        1 GAX     -0.238000
      9 O1          3.7330   -2.3220   -5.3150 o         1 GAX     -0.909500
     10 O2          1.4720   -1.7470   -5.9360 o         1 GAX     -0.909500
     11 O3          1.5930   -5.8510   -2.5940 o         1 GAX     -0.382000
     12 C7          1.4550   -7.0060   -3.0410 c2        1 GAX      0.252000
     13 C8          1.1890   -8.0670   -0.8170 c2        1 GAX     -0.047000
     14 C10         1.2100   -6.8220    2.6080 c1        1 GAX     -0.124000
     15 C9          1.2860   -6.6970    1.4100 c1        1 GAX     -0.473000
     16 S2          1.4010   -6.4340   -0.1520 ss        1 GAX      0.520000
     17 C3          3.4980   -4.9570   -6.5290 cx        1 GAX     -0.133000
     18 C1          1.7080   -6.7840   -6.2290 c1        1 GAX      0.077000
     19 S1          2.4170   -2.7030   -5.5640 s6        1 GAX      2.825000
     20 C14         1.8610   -0.2650   -2.8020 c3        1 GAX     -0.128000
     21 C13         1.1040    0.2320   -1.5540 c3        1 GAX     -0.055000
     22 N5          1.3050   -0.5900   -0.3720 n3        1 GAX     -0.235000
     23 C12         1.4600   -2.0200   -0.5460 c3        1 GAX     -0.060000
     24 C11         1.7340   -2.4550   -1.9660 c2        1 GAX     -0.065000
     25 C15         1.1520   -0.0660    0.8870 c2        1 GAX      0.189000
     26 C19         1.3260   -1.0250    2.0610 c3        1 GAX     -0.179000
     27 C18         1.1660   -0.3660    3.3820 c2        1 GAX     -0.161000
     28 C17         0.8950    0.9450    3.4820 c2        1 GAX     -0.200000
     29 C16         0.7170    1.7700    2.2780 c1        1 GAX     -0.052000
     30 H2          1.1570   -8.9980   -2.6640 hn        1 GAX      0.256000
     31 H10         0.9520   -9.0840    0.8260 hn        1 GAX      0.174000
     32 H9          1.1440   -6.9270    3.6630 ha        1 GAX      0.228000
     33 H1          1.4780   -7.2510   -4.1400 h5        1 GAX      0.197000
     34 H3          4.2510   -4.6530   -5.7690 h1        1 GAX      0.179000
     35 H5          2.6750   -3.4330   -7.8180 h1        1 GAX      0.205000
     36 H6          0.2940   -3.7980   -7.2620 ha        1 GAX      0.162000
     37 H1A        -0.3030   -6.1590   -6.7690 ha        1 GAX      0.176000
     38 H141        1.9930   -3.4820   -4.7330 hs        1 GAX     -0.464000
     39 H142        2.9190    0.1290   -2.7860 h1        1 GAX      0.130500
     40 H131        1.3470    0.1630   -3.7120 h1        1 GAX      0.130500
     41 H132        1.4410    1.2870   -1.3450 h1        1 GAX      0.125000
     42 H121       -0.0010    0.2590   -1.7790 h1        1 GAX      0.125000
     43 H122        0.5260   -2.5500   -0.1900 h1        1 GAX      0.112500
     44 H111        2.3280   -2.3800    0.0840 h1        1 GAX      0.112500
     45 H112        1.7770   -3.5580   -2.1070 h4        1 GAX      0.194000
     46 H19         0.5760   -1.8600    1.9760 hc        1 GAX      0.127000
     47 H18         2.3550   -1.4820    2.0150 hc        1 GAX      0.127000
     48 H17         1.2880   -1.0310    4.2510 ha        1 GAX      0.127000
     49 H16         0.7820    1.4580    4.4470 ha        1 GAX      0.151000
     50 N1          3.9000   -5.9970   -7.5090 n2        1 GAX      0.003000
@<TRIPOS>BOND
     1    1   25 1   
     2    1   29 1   
     3    2   17 1   
     4    2   18 1   
     5    2   50 1   
     6    3   12 1   
     7    3   13 1   
     8    3   30 1   
     9    4   13 1   
    10    4   31 1   
    11    5    7 1   
    12    5   17 1   
    13    5   19 1   
    14    5   35 1   
    15    6   20 1   
    16    6   24 1   
    17    7    8 1   
    18    7   36 1   
    19    8   18 1   
    20    8   37 1   
    21    9   19 1   
    22   10   19 1   
    23   11   12 1   
    24   12   33 1   
    25   13   16 1   
    26   14   15 1   
    27   14   32 1   
    28   15   16 1   
    29   17   34 1   
    30   17   50 1   
    31   19   38 1   
    32   20   21 1   
    33   20   39 1   
    34   20   40 1   
    35   21   22 1   
    36   21   41 1   
    37   21   42 1   
    38   22   23 1   
    39   22   25 1   
    40   23   24 1   
    41   23   43 1   
    42   23   44 1   
    43   24   45 1   
    44   25   26 1   
    45   26   27 1   
    46   26   46 1   
    47   26   47 1   
    48   27   28 1   
    49   27   48 1   
    50   28   29 1   
    51   28   49 1   
@<TRIPOS>SUBSTRUCTURE
     1 GAX         1 TEMP              0 ****  ****    0 ROOT
