@<TRIPOS>MOLECULE
GAX
   50    51     1     0     0
SMALL
bcc


@<TRIPOS>ATOM
      1 N6         -0.2750    0.1500   -0.1260 n2        1 GAX     -0.288000
      2 C2          1.8280   -5.4110   -4.8560 c2        1 GAX     -0.012000
      3 N2          1.2620   -8.6270   -3.1030 n         1 GAX     -0.322000
      4 N3          1.2900  -10.6230   -1.9150 n2        1 GAX     -0.292000
      5 C4          3.0430   -3.2700   -4.5440 c3        1 GAX     -0.724000
      6 N4          1.7740   -2.5290   -2.2920 n3        1 GAX     -0.781000
      7 C5          2.1020   -2.6840   -5.5150 c2        1 GAX     -0.061000
      8 C6          1.1480   -3.4290   -6.1230 c2        1 GAX     -0.193000
      9 O1          4.2680   -2.8770   -2.3370 o         1 GAX     -0.919000
     10 O2          3.3490   -0.9800   -3.4490 o         1 GAX     -0.919000
     11 O3          2.3540   -6.7120   -2.4090 o         1 GAX     -0.393000
     12 C7          1.7620   -7.3350   -3.3300 c2        1 GAX      0.394000
     13 C8          1.5680   -9.3580   -1.9280 c2        1 GAX     -0.045000
     14 C10         2.3860  -10.1560    1.5230 c1        1 GAX     -0.127000
     15 C9          2.3180   -9.4280    0.5640 c1        1 GAX     -0.480000
     16 S2          2.2770   -8.3830   -0.6330 ss        1 GAX      0.574000
     17 C3          2.8240   -4.6960   -4.2450 c2        1 GAX     -0.112000
     18 C1          0.9800   -4.8200   -5.8710 c1        1 GAX     -0.078000
     19 S1          3.1860   -2.3240   -3.0400 s6        1 GAX      2.789000
     20 C14         0.5640   -1.8320   -2.6600 c3        1 GAX     -0.050000
     21 C13         0.6690   -0.2950   -2.8090 c3        1 GAX     -0.046000
     22 N5          1.4100    0.3940   -1.7900 n3        1 GAX     -0.276000
     23 C12         0.9350   -3.4780   -0.1840 c2        1 GAX     -0.214000
     24 C11         1.6830   -3.5280   -1.2930 c2        1 GAX     -0.077000
     25 C15         0.9420    0.6180   -0.5300 c2        1 GAX      0.186000
     26 C19         1.8720    1.3920    0.4000 c3        1 GAX     -0.182000
     27 C18         1.2310    1.7360    1.6940 c2        1 GAX     -0.157000
     28 C17        -0.0070    1.3100    1.9960 c2        1 GAX     -0.203000
     29 C16        -0.7380    0.4180    1.0860 c1        1 GAX     -0.056000
     30 H2          0.8650   -9.1410   -3.8620 hn        1 GAX      0.251000
     31 H10         1.4820  -11.0960   -1.0580 hn        1 GAX      0.176000
     32 H9          2.4490  -10.7910    2.3720 ha        1 GAX      0.226000
     33 H1          0.9210   -7.1850   -5.2290 hn        1 GAX      0.253000
     34 H3          3.5190   -5.1440   -3.5090 ha        1 GAX      0.186000
     35 H5          4.0740   -3.2050   -5.0280 h1        1 GAX      0.211000
     36 H6          2.2430   -1.6090   -5.7290 ha        1 GAX      0.153000
     37 H1A         0.4590   -2.9750   -6.8560 ha        1 GAX      0.158000
     38 H141       -0.2400   -2.0530   -1.8980 h1        1 GAX      0.120000
     39 H142        0.2090   -2.2260   -3.6600 h1        1 GAX      0.120000
     40 H131        1.1630   -0.0510   -3.7960 h1        1 GAX      0.120000
     41 H132       -0.3920    0.0900   -2.8310 h1        1 GAX      0.120000
     42 H121        2.3590    0.6210   -2.0060 hn        1 GAX      0.253000
     43 H122        0.2730   -2.6460    0.0930 ha        1 GAX      0.143500
     44 H111        0.9530   -4.3210    0.5200 ha        1 GAX      0.143500
     45 H112        2.3190   -4.4170   -1.5140 h4        1 GAX      0.170000
     46 H19         2.7950    0.7770    0.5980 hc        1 GAX      0.130000
     47 H18         2.2000    2.3430   -0.1060 hc        1 GAX      0.130000
     48 H17         1.8460    2.3470    2.3720 ha        1 GAX      0.130000
     49 H16        -0.5110    1.5670    2.9380 ha        1 GAX      0.151000
     50 N1          1.5980   -6.7810   -4.6120 n         1 GAX     -0.282000
@<TRIPOS>BOND
     1    1   25 1   
     2    1   29 1   
     3    2   17 1   
     4    2   18 1   
     5    2   50 1   
     6    3   12 1   
     7    3   13 1   
     8    3   30 1   
     9    4   13 1   
    10    4   31 1   
    11    5    7 1   
    12    5   17 1   
    13    5   19 1   
    14    5   35 1   
    15    6   19 1   
    16    6   20 1   
    17    6   24 1   
    18    7    8 1   
    19    7   36 1   
    20    8   18 1   
    21    8   37 1   
    22    9   19 1   
    23   10   19 1   
    24   11   12 1   
    25   12   50 1   
    26   13   16 1   
    27   14   15 1   
    28   14   32 1   
    29   15   16 1   
    30   17   34 1   
    31   20   21 1   
    32   20   38 1   
    33   20   39 1   
    34   21   22 1   
    35   21   40 1   
    36   21   41 1   
    37   22   25 1   
    38   22   42 1   
    39   23   24 1   
    40   23   43 1   
    41   23   44 1   
    42   24   45 1   
    43   25   26 1   
    44   26   27 1   
    45   26   46 1   
    46   26   47 1   
    47   27   28 1   
    48   27   48 1   
    49   28   29 1   
    50   28   49 1   
    51   33   50 1   
@<TRIPOS>SUBSTRUCTURE
     1 GAX         1 TEMP              0 ****  ****    0 ROOT
