@<TRIPOS>MOLECULE
GAX
   50    53     1     0     0
SMALL
bcc


@<TRIPOS>ATOM
      1 N6         -3.6820    3.1110    1.4150 nb        1 GAX     -0.710000
      2 C2          1.4640   -1.6920    0.1670 ca        1 GAX      0.037600
      3 N2          4.5960   -0.2910   -1.3090 n         1 GAX     -0.488400
      4 N3          6.9590   -0.4190   -0.6350 nc        1 GAX     -0.652000
      5 C4         -0.8970   -2.3200    0.2530 ca        1 GAX     -0.354500
      6 N4         -3.1910   -1.4460   -0.6380 n3        1 GAX     -0.814500
      7 C5         -0.8660   -2.2020    1.6450 ca        1 GAX     -0.037000
      8 C6          0.3060   -1.8250    2.2950 ca        1 GAX     -0.134000
      9 O1         -1.9500   -3.2310   -1.8430 o         1 GAX     -0.649800
     10 O2         -2.9780   -3.7450    0.2760 o         1 GAX     -0.649800
     11 O3          3.6420    0.0290    0.7990 o         1 GAX     -0.594100
     12 C7          3.6240   -0.5750   -0.2930 c         1 GAX      0.749100
     13 C8          5.8190    0.2690   -0.8800 cd        1 GAX      0.440300
     14 C10         7.9580    0.4680   -0.3120 cc        1 GAX      0.342200
     15 C9          7.5840    1.8100   -0.3010 cd        1 GAX     -0.281400
     16 S2          5.9850    1.9830   -0.7020 ss        1 GAX      0.023700
     17 C3          0.2650   -2.0620   -0.4780 ca        1 GAX     -0.072000
     18 C1          1.4680   -1.5690    1.5740 ca        1 GAX     -0.072000
     19 S1         -2.3100   -2.8100   -0.5430 sy        1 GAX      1.506200
     20 C14        -4.1520   -1.0600    0.3630 c3        1 GAX      0.224800
     21 C13        -3.9740    0.3930    0.8630 c3        1 GAX      0.167800
     22 N5         -3.8790    1.3390   -0.2410 nh        1 GAX     -0.726300
     23 C12        -2.8700    0.9600   -1.2230 c3        1 GAX      0.167800
     24 C11        -3.0510   -0.4960   -1.7090 c3        1 GAX      0.224800
     25 C15        -3.8500    2.7250    0.1110 ca        1 GAX      0.610200
     26 C19        -4.0780    3.6840   -0.9210 ca        1 GAX     -0.258300
     27 C18        -4.1320    5.0350   -0.5900 ca        1 GAX     -0.077000
     28 C17        -3.9660    5.4260    0.7380 ca        1 GAX     -0.271300
     29 C16        -3.7490    4.4210    1.6950 ca        1 GAX      0.421200
     30 H2          4.7290   -1.0190   -1.9880 hn        1 GAX      0.304500
     31 H10         8.9560    0.0750   -0.0840 h4        1 GAX      0.048100
     32 H9          8.2480    2.6360   -0.0550 h4        1 GAX      0.185000
     33 H1          2.5550   -1.8330   -1.5510 hn        1 GAX      0.317500
     34 H3          0.2300   -2.1800   -1.5770 ha        1 GAX      0.154000
     35 H5         -1.7750   -2.4270    2.2300 ha        1 GAX      0.149000
     36 H6          0.3200   -1.7330    3.3930 ha        1 GAX      0.147000
     37 H1A         2.3860   -1.2650    2.1050 ha        1 GAX      0.175000
     38 H141       -5.1900   -1.1710   -0.0650 h1        1 GAX      0.061950
     39 H142       -4.0620   -1.7480    1.2520 h1        1 GAX      0.061950
     40 H131       -4.8800    0.6560    1.4760 h1        1 GAX      0.053200
     41 H132       -3.0690    0.4380    1.5340 h1        1 GAX      0.053200
     42 H121       -2.9680    1.6320   -2.1200 h1        1 GAX      0.053200
     43 H122       -1.8280    1.0810   -0.8070 h1        1 GAX      0.053200
     44 H111       -2.1550   -0.7690   -2.3370 h1        1 GAX      0.061950
     45 H112       -3.9690   -0.5450   -2.3650 h1        1 GAX      0.061950
     46 H19        -4.2290    3.3640   -1.9610 ha        1 GAX      0.147000
     47 H18        -4.3110    5.7860   -1.3750 ha        1 GAX      0.138000
     48 H17        -4.0050    6.4810    1.0340 ha        1 GAX      0.145000
     49 H16        -3.6120    4.6770    2.7620 h4        1 GAX      0.022100
     50 N1          2.6300   -1.5220   -0.6060 n         1 GAX     -0.463100
@<TRIPOS>BOND
     1    1   25 ar  
     2    1   29 ar  
     3    2   17 ar  
     4    2   18 ar  
     5    2   50 1   
     6    3   12 1   
     7    3   13 1   
     8    3   30 1   
     9    4   13 2   
    10    4   14 1   
    11    5    7 ar  
    12    5   17 ar  
    13    5   19 1   
    14    6   19 1   
    15    6   20 1   
    16    6   24 1   
    17    7    8 ar  
    18    7   35 1   
    19    8   18 ar  
    20    8   36 1   
    21    9   19 2   
    22   10   19 2   
    23   11   12 2   
    24   12   50 1   
    25   13   16 1   
    26   14   15 2   
    27   14   31 1   
    28   15   16 1   
    29   15   32 1   
    30   17   34 1   
    31   18   37 1   
    32   20   21 1   
    33   20   38 1   
    34   20   39 1   
    35   21   22 1   
    36   21   40 1   
    37   21   41 1   
    38   22   23 1   
    39   22   25 1   
    40   23   24 1   
    41   23   42 1   
    42   23   43 1   
    43   24   44 1   
    44   24   45 1   
    45   25   26 ar  
    46   26   27 ar  
    47   26   46 1   
    48   27   28 ar  
    49   27   47 1   
    50   28   29 ar  
    51   28   48 1   
    52   29   49 1   
    53   33   50 1   
@<TRIPOS>SUBSTRUCTURE
     1 GAX         1 TEMP              0 ****  ****    0 ROOT
