@<TRIPOS>MOLECULE
GB
    8     7     1     0     0
SMALL
bcc


@<TRIPOS>ATOM
      1 P1          0.1390    0.0840    0.0720 p5        1 GB       1.223700
      2 O1          1.5180   -0.4660    0.3830 o         1 GB      -0.971500
      3 O2         -0.8560   -0.0330    1.2110 o         1 GB      -0.971500
      4 C1         -0.4990   -1.0360   -1.1700 c3        1 GB      -0.281300
      5 H1         -1.5130   -0.7130   -1.4710 hc        1 GB      -0.009300
      6 H2         -0.5460   -2.0600   -0.7520 hc        1 GB      -0.009300
      7 H3          0.1690   -1.0270   -2.0520 hc        1 GB      -0.009300
      8 O3          0.1420    1.4320   -0.6230 o         1 GB      -0.971500
@<TRIPOS>BOND
     1    1    2 1   
     2    1    3 1   
     3    1    4 1   
     4    1    8 1   
     5    4    5 1   
     6    4    6 1   
     7    4    7 1   
@<TRIPOS>SUBSTRUCTURE
     1 GB          1 TEMP              0 ****  ****    0 ROOT
