@<TRIPOS>MOLECULE
GB
    8     7     1     0     0
SMALL
bcc


@<TRIPOS>ATOM
      1 P1          1.0820   -0.5490    2.1310 p5        1 GB       1.223700
      2 O1          0.9120   -1.7940    2.9800 o         1 GB      -0.971500
      3 O2          0.5470    0.7210    2.7650 o         1 GB      -0.971500
      4 C1         -0.0110   -0.8260    0.7400 c3        1 GB      -0.281300
      5 H1         -1.0480   -0.9470    1.1060 hc        1 GB      -0.009300
      6 H2          0.0410    0.0400    0.0540 hc        1 GB      -0.009300
      7 H3          0.3020   -1.7420    0.2040 hc        1 GB      -0.009300
      8 O3          2.4510   -0.4040    1.4940 o         1 GB      -0.971500
@<TRIPOS>BOND
     1    1    2 1   
     2    1    3 1   
     3    1    4 1   
     4    1    8 1   
     5    4    5 1   
     6    4    6 1   
     7    4    7 1   
@<TRIPOS>SUBSTRUCTURE
     1 GB          1 TEMP              0 ****  ****    0 ROOT
