@<TRIPOS>MOLECULE
GB
    8     6     1     0     0
SMALL
bcc


@<TRIPOS>ATOM
      1 P1          0.2800   -0.6870    0.3960 p4        1 GB       1.592000
      2 O1          1.7900   -0.6870    0.3960 os        1 GB      -1.291000
      3 O2         -0.2230   -0.6870    1.8200 o         1 GB      -0.971500
      4 C1         -0.3250    0.7960   -0.4590 c3        1 GB      -0.281300
      5 H1          0.0010    1.5930    0.0010 hc        1 GB      -0.009300
      6 H2         -1.3010    0.7960   -0.4590 hc        1 GB      -0.009300
      7 H3          0.0010    0.7960   -1.3800 hc        1 GB      -0.009300
      8 O3         -0.2230   -1.9200   -0.3150 o         1 GB      -1.020300
@<TRIPOS>BOND
     1    1    3 1   
     2    1    4 1   
     3    1    8 2   
     4    4    5 1   
     5    4    6 1   
     6    4    7 1   
@<TRIPOS>SUBSTRUCTURE
     1 GB          1 TEMP              0 ****  ****    0 ROOT
