@<TRIPOS>MOLECULE
GB
    8     7     1     0     0
SMALL
bcc


@<TRIPOS>ATOM
      1 P1          0.1500    0.1230    0.0290 p5        1 GB       1.223700
      2 O1          1.5110   -0.4390    0.3940 o         1 GB      -0.971500
      3 O2         -0.8540    0.1230    1.1650 o         1 GB      -0.971500
      4 C1         -0.5110   -1.0750   -1.1270 c3        1 GB      -0.281300
      5 H1         -1.5150   -0.7500   -1.4580 hc        1 GB      -0.009300
      6 H2         -0.5850   -2.0610   -0.6320 hc        1 GB      -0.009300
      7 H3          0.1610   -1.1490   -2.0030 hc        1 GB      -0.009300
      8 O3          0.1960    1.4110   -0.7700 o         1 GB      -0.971500
@<TRIPOS>BOND
     1    1    2 1   
     2    1    3 1   
     3    1    4 1   
     4    1    8 1   
     5    4    5 1   
     6    4    6 1   
     7    4    7 1   
@<TRIPOS>SUBSTRUCTURE
     1 GB          1 TEMP              0 ****  ****    0 ROOT
