@<TRIPOS>MOLECULE
GB1
   38    36     1     0     0
SMALL
bcc


@<TRIPOS>ATOM
      1 C15         2.3820   -1.2730   -2.0790 c1        1 GB1     -0.069500
      2 C14         3.7040   -1.3650   -2.5030 c1        1 GB1     -0.067250
      3 C13         4.7160   -1.6530   -1.5810 c1        1 GB1     -0.067250
      4 C12         4.4020   -1.8480   -0.2440 c1        1 GB1     -0.067250
      5 C11         3.0770   -1.7560    0.1810 c1        1 GB1     -0.067250
      6 C10         2.0660   -1.4680   -0.7390 c1        1 GB1     -0.085100
      7 C8          0.5860   -1.4960   -0.2880 c3        1 GB1      0.138600
      8 C9         -0.1690   -2.5270   -1.1030 c3        1 GB1      0.145400
      9 O9         -0.9490   -3.3080   -0.2570 oh        1 GB1     -0.602800
     10 N7          0.0160   -0.2370   -0.4840 n3        1 GB1     -0.815200
     11 C6         -0.4000    0.3050    0.7830 c3        1 GB1      0.173800
     12 C5         -1.7060    1.0340    0.6150 c3        1 GB1      0.132500
     13 N1         -2.6250    0.4870    1.3720 n3        1 GB1     -0.797200
     14 C2         -3.5420    1.6790    1.8210 c3        1 GB1      0.123800
     15 C3         -2.7580    2.9980    1.4240 c3        1 GB1      0.081100
     16 O3         -3.3880    3.6270    0.2530 oh        1 GB1     -0.606800
     17 C4         -1.5540    2.5980    1.1270 c3        1 GB1      0.143100
     18 O4         -1.0190    3.4000    0.0910 oh        1 GB1     -0.581800
     19 H15         1.6500   -1.0650   -2.7460 ha        1 GB1      0.071500
     20 H14         3.9280   -1.2270   -3.4550 ha        1 GB1      0.075500
     21 H13         5.6720   -1.7200   -1.8870 ha        1 GB1      0.075500
     22 H12         5.1170   -2.0510    0.4080 ha        1 GB1      0.075500
     23 H11         2.8470   -1.8980    1.1600 ha        1 GB1      0.075500
     24 H8          0.5390   -1.7310    0.6580 h1        1 GB1      0.075700
     25 H91        -0.7440   -2.0750   -1.7510 h1        1 GB1      0.046200
     26 H92         0.4900   -3.1190   -1.5940 h1        1 GB1      0.046200
     27 HO9        -1.2180   -4.0130   -0.6830 ho        1 GB1      0.417000
     28 HN7         0.6330    0.3220   -0.8680 hn        1 GB1      0.354800
     29 H61         0.2950    0.9390    1.1160 h1        1 GB1      0.045200
     30 H62        -0.5160   -0.4270    1.4320 h1        1 GB1      0.045200
     31 H5         -1.9830    1.0130   -0.3130 h1        1 GB1      0.039700
     32 HN1        -3.1250   -0.1140    0.8680 hn        1 GB1      0.365800
     33 H21        -3.6860    1.6480    2.8170 h1        1 GB1      0.051200
     34 H22        -4.3910    1.6430    1.3570 h1        1 GB1      0.051200
     35 H3         -2.7340    3.6370    2.1970 h1        1 GB1      0.056700
     36 HO3        -3.9430    4.2590    0.5210 ho        1 GB1      0.413000
     37 H4         -0.9620    2.6400    1.9410 h1        1 GB1      0.087700
     38 HO4        -0.7080    4.1420    0.4310 ho        1 GB1      0.420000
@<TRIPOS>BOND
     1    1    6 3   
     2    1   19 1   
     3    2    3 3   
     4    2   20 1   
     5    3   21 1   
     6    4    5 3   
     7    4   22 1   
     8    5   23 1   
     9    6    7 1   
    10    7    8 1   
    11    7   10 1   
    12    7   24 1   
    13    8    9 1   
    14    8   25 1   
    15    8   26 1   
    16    9   27 1   
    17   10   11 1   
    18   10   28 1   
    19   11   12 1   
    20   11   29 1   
    21   11   30 1   
    22   12   13 1   
    23   12   17 1   
    24   12   31 1   
    25   13   14 1   
    26   13   32 1   
    27   14   15 1   
    28   14   33 1   
    29   14   34 1   
    30   15   16 1   
    31   15   17 1   
    32   15   35 1   
    33   16   36 1   
    34   17   18 1   
    35   17   37 1   
    36   18   38 1   
@<TRIPOS>SUBSTRUCTURE
     1 GB1         1 TEMP              0 ****  ****    0 ROOT
