@<TRIPOS>MOLECULE
GB1
   39    40     1     0     0
SMALL
bcc


@<TRIPOS>ATOM
      1 C15        -0.0020   -0.3380   -0.0520 ca        1 GB1     -0.113000
      2 C14         1.3890   -0.2930   -0.0910 ca        1 GB1     -0.113500
      3 C13         2.1120    0.0220    1.0620 ca        1 GB1     -0.084000
      4 C12         1.4400    0.2950    2.2530 ca        1 GB1     -0.113500
      5 C11         0.0470    0.2590    2.2970 ca        1 GB1     -0.113000
      6 C10        -0.6790   -0.0630    1.1440 ca        1 GB1     -0.183300
      7 C8         -2.1750   -0.1250    1.2150 c3        1 GB1      0.150800
      8 C9         -2.7030   -1.5610    0.9760 c3        1 GB1      0.117400
      9 O9         -2.6500   -1.8940   -0.3910 oh        1 GB1     -0.603800
     10 N7         -2.7770    0.8450    0.2270 n4        1 GB1     -0.751000
     11 C6         -4.1700    1.2390    0.5720 c3        1 GB1      0.114800
     12 C5         -4.6940    2.3970   -0.3080 c3        1 GB1      0.096500
     13 N1         -4.4290    2.1600   -1.7280 n3        1 GB1     -0.831200
     14 C2         -5.6880    1.8210   -2.3850 c3        1 GB1      0.141800
     15 C3         -6.8660    2.2540   -1.4790 c3        1 GB1      0.085100
     16 O3         -7.3780    3.4610   -2.0060 oh        1 GB1     -0.591800
     17 C4         -6.2380    2.5160   -0.0850 c3        1 GB1      0.103100
     18 O4         -6.5650    3.7750    0.4400 oh        1 GB1     -0.577800
     19 H15        -0.5640   -0.6010   -0.9620 ha        1 GB1      0.139000
     20 H14         1.9190   -0.5100   -1.0320 ha        1 GB1      0.160000
     21 H13         3.2140    0.0530    1.0290 ha        1 GB1      0.162000
     22 H12         2.0100    0.5410    3.1640 ha        1 GB1      0.160000
     23 H11        -0.4740    0.4750    3.2430 ha        1 GB1      0.139000
     24 H8         -2.5160    0.1950    2.2470 hx        1 GB1      0.105700
     25 H91        -2.1070   -2.2610    1.6170 h1        1 GB1      0.085700
     26 H92        -3.7900   -1.6190    1.2610 h1        1 GB1      0.085700
     27 HO9        -1.8480   -2.4120   -0.5480 ho        1 GB1      0.435000
     28 HN7        -2.7760    0.3950   -0.7030 hn        1 GB1      0.463800
     29 H61        -4.8170    0.3250    0.4480 hx        1 GB1      0.102200
     30 H62        -4.2010    1.5740    1.6470 hx        1 GB1      0.102200
     31 H5         -4.2030    3.3510    0.0410 h1        1 GB1      0.082700
     32 HN1        -4.0290    2.9820   -2.1440 hn        1 GB1      0.382800
     33 H21        -5.7180    0.7060   -2.5240 h1        1 GB1      0.084200
     34 H22        -5.7710    2.3130   -3.3920 h1        1 GB1      0.084200
     35 H3         -7.6570    1.4640   -1.4290 h1        1 GB1      0.076700
     36 HO3        -8.2640    3.5860   -1.6380 ho        1 GB1      0.429000
     37 H4         -6.6060    1.7800    0.6790 h1        1 GB1      0.091700
     38 HO4        -6.5070    4.4310   -0.2720 ho        1 GB1      0.430000
     39 H72        -2.1840    1.6810    0.1760 hn        1 GB1      0.463800
@<TRIPOS>BOND
     1    1    2 ar  
     2    1    6 ar  
     3    1   19 1   
     4    2    3 ar  
     5    2   20 1   
     6    3    4 ar  
     7    3   21 1   
     8    4    5 ar  
     9    4   22 1   
    10    5    6 ar  
    11    5   23 1   
    12    6    7 1   
    13    7    8 1   
    14    7   10 1   
    15    7   24 1   
    16    8    9 1   
    17    8   25 1   
    18    8   26 1   
    19    9   27 1   
    20   10   11 1   
    21   10   28 1   
    22   10   39 1   
    23   11   12 1   
    24   11   29 1   
    25   11   30 1   
    26   12   13 1   
    27   12   17 1   
    28   12   31 1   
    29   13   14 1   
    30   13   32 1   
    31   14   15 1   
    32   14   33 1   
    33   14   34 1   
    34   15   16 1   
    35   15   17 1   
    36   15   35 1   
    37   16   36 1   
    38   17   18 1   
    39   17   37 1   
    40   18   38 1   
@<TRIPOS>SUBSTRUCTURE
     1 GB1         1 TEMP              0 ****  ****    0 ROOT
