@<TRIPOS>MOLECULE
GB1
   39    40     1     0     0
SMALL
bcc


@<TRIPOS>ATOM
      1 C15        -0.0060   -0.3450   -0.0630 ca        1 GB1     -0.113000
      2 C14         1.3860   -0.3030   -0.1040 ca        1 GB1     -0.113500
      3 C13         2.1110    0.0020    1.0500 ca        1 GB1     -0.084000
      4 C12         1.4410    0.2690    2.2440 ca        1 GB1     -0.113500
      5 C11         0.0470    0.2350    2.2890 ca        1 GB1     -0.113000
      6 C10        -0.6800   -0.0770    1.1350 ca        1 GB1     -0.183300
      7 C8         -2.1760   -0.1360    1.2070 c3        1 GB1      0.150800
      8 C9         -2.7090   -1.5690    0.9570 c3        1 GB1      0.117400
      9 O9         -2.6590   -1.8910   -0.4130 oh        1 GB1     -0.603800
     10 N7         -2.7770    0.8440    0.2280 n4        1 GB1     -0.751000
     11 C6         -4.1690    1.2360    0.5750 c3        1 GB1      0.114800
     12 C5         -4.6920    2.4030   -0.2940 c3        1 GB1      0.096500
     13 N1         -4.4250    2.1810   -1.7160 n3        1 GB1     -0.831200
     14 C2         -5.6840    1.8490   -2.3770 c3        1 GB1      0.141800
     15 C3         -6.8620    2.2750   -1.4680 c3        1 GB1      0.085100
     16 O3         -7.3730    3.4870   -1.9830 oh        1 GB1     -0.591800
     17 C4         -6.2360    2.5220   -0.0710 c3        1 GB1      0.103100
     18 O4         -6.5630    3.7750    0.4670 oh        1 GB1     -0.577800
     19 H15        -0.5690   -0.6000   -0.9750 ha        1 GB1      0.139000
     20 H14         1.9150   -0.5150   -1.0470 ha        1 GB1      0.160000
     21 H13         3.2120    0.0310    1.0170 ha        1 GB1      0.162000
     22 H12         2.0120    0.5070    3.1570 ha        1 GB1      0.160000
     23 H11        -0.4720    0.4460    3.2370 ha        1 GB1      0.139000
     24 H8         -2.5160    0.1760    2.2420 hx        1 GB1      0.105700
     25 H91        -2.1130   -2.2760    1.5910 h1        1 GB1      0.085700
     26 H92        -3.7950   -1.6270    1.2430 h1        1 GB1      0.085700
     27 HO9        -1.8590   -2.4090   -0.5750 ho        1 GB1      0.435000
     28 HN7        -2.7760    0.4020   -0.7070 hn        1 GB1      0.463800
     29 H61        -4.8180    0.3240    0.4420 hx        1 GB1      0.102200
     30 H62        -4.2010    1.5600    1.6540 hx        1 GB1      0.102200
     31 H5         -4.2000    3.3530    0.0660 h1        1 GB1      0.082700
     32 HN1        -4.0240    3.0060   -2.1230 hn        1 GB1      0.382800
     33 H21        -5.7650    2.3520   -3.3790 h1        1 GB1      0.084200
     34 H22        -5.7150    0.7360   -2.5280 h1        1 GB1      0.084200
     35 H3         -7.6540    1.4840   -1.4270 h1        1 GB1      0.076700
     36 HO3        -8.2590    3.6090   -1.6150 ho        1 GB1      0.429000
     37 H4         -6.6060    1.7780    0.6850 h1        1 GB1      0.091700
     38 HO4        -6.5030    4.4380   -0.2390 ho        1 GB1      0.430000
     39 H72        -2.1830    1.6790    0.1840 hn        1 GB1      0.463800
@<TRIPOS>BOND
     1    1    2 ar  
     2    1    6 ar  
     3    1   19 1   
     4    2    3 ar  
     5    2   20 1   
     6    3    4 ar  
     7    3   21 1   
     8    4    5 ar  
     9    4   22 1   
    10    5    6 ar  
    11    5   23 1   
    12    6    7 1   
    13    7    8 1   
    14    7   10 1   
    15    7   24 1   
    16    8    9 1   
    17    8   25 1   
    18    8   26 1   
    19    9   27 1   
    20   10   11 1   
    21   10   28 1   
    22   10   39 1   
    23   11   12 1   
    24   11   29 1   
    25   11   30 1   
    26   12   13 1   
    27   12   17 1   
    28   12   31 1   
    29   13   14 1   
    30   13   32 1   
    31   14   15 1   
    32   14   33 1   
    33   14   34 1   
    34   15   16 1   
    35   15   17 1   
    36   15   35 1   
    37   16   36 1   
    38   17   18 1   
    39   17   37 1   
    40   18   38 1   
@<TRIPOS>SUBSTRUCTURE
     1 GB1         1 TEMP              0 ****  ****    0 ROOT
