@<TRIPOS>MOLECULE
GB1
   38    39     1     0     0
SMALL
bcc


@<TRIPOS>ATOM
      1 C15         2.5270    0.7260    0.9690 ca        1 GB1     -0.118000
      2 C14         3.0490   -0.0790    1.9800 ca        1 GB1     -0.133500
      3 C13         3.1130   -1.4620    1.8100 ca        1 GB1     -0.129000
      4 C12         2.6540   -2.0390    0.6260 ca        1 GB1     -0.133500
      5 C11         2.1290   -1.2360   -0.3860 ca        1 GB1     -0.118000
      6 C10         2.0630    0.1510   -0.2200 ca        1 GB1     -0.121300
      7 C8          1.4980    1.0210   -1.3180 c3        1 GB1      0.182800
      8 C9          2.5550    2.0760   -1.7380 c3        1 GB1      0.141400
      9 O9          2.6750    3.1600   -0.8430 oh        1 GB1     -0.601800
     10 N7          0.2280    1.6630   -1.0040 n3        1 GB1     -0.824200
     11 C6         -0.9610    0.9030   -1.2940 c3        1 GB1      0.184800
     12 C5         -1.3020   -0.2640   -0.3360 c3        1 GB1      0.111500
     13 N1         -1.5010    0.1950    1.0430 n3        1 GB1     -0.794200
     14 C2         -2.9270    0.1800    1.3390 c3        1 GB1      0.120800
     15 C3         -3.6860   -0.5700    0.2180 c3        1 GB1      0.078100
     16 O3         -4.3000   -1.7600    0.6750 oh        1 GB1     -0.603800
     17 C4         -2.6080   -0.9570   -0.8240 c3        1 GB1      0.134100
     18 O4         -2.3370   -2.3420   -0.8770 oh        1 GB1     -0.594800
     19 H15         2.4950    1.8220    1.0870 ha        1 GB1      0.142000
     20 H14         3.4150    0.3790    2.9100 ha        1 GB1      0.132000
     21 H13         3.5260   -2.0970    2.6080 ha        1 GB1      0.130000
     22 H12         2.7050   -3.1290    0.4890 ha        1 GB1      0.132000
     23 H11         1.7670   -1.6990   -1.3160 ha        1 GB1      0.142000
     24 H8          1.3430    0.3680   -2.2310 h1        1 GB1      0.058700
     25 H91         2.3100    2.4490   -2.7670 h1        1 GB1      0.048700
     26 H92         3.5700    1.5950   -1.7380 h1        1 GB1      0.048700
     27 HO9         1.8680    3.6850   -0.9110 ho        1 GB1      0.407000
     28 HN7         0.2290    1.9870   -0.0530 hn        1 GB1      0.382800
     29 H61        -1.8160    1.6380   -1.2900 h1        1 GB1      0.051200
     30 H62        -0.8770    0.4690   -2.3300 h1        1 GB1      0.051200
     31 H5         -0.4550   -1.0120   -0.3780 h1        1 GB1      0.083700
     32 HN1        -1.0080   -0.4110    1.6730 hn        1 GB1      0.365800
     33 H21        -3.1380   -0.2910    2.3370 h1        1 GB1      0.053200
     34 H22        -3.2750    1.2490    1.3750 h1        1 GB1      0.053200
     35 H3         -4.4620    0.0960   -0.2450 h1        1 GB1      0.047700
     36 HO3        -4.9020   -1.5110    1.3860 ho        1 GB1      0.413000
     37 H4         -2.9130   -0.6040   -1.8450 h1        1 GB1      0.049700
     38 HO4        -3.1790   -2.8130   -0.8250 ho        1 GB1      0.424000
@<TRIPOS>BOND
     1    1    2 ar  
     2    1    6 ar  
     3    1   19 1   
     4    2    3 ar  
     5    2   20 1   
     6    3    4 ar  
     7    3   21 1   
     8    4    5 ar  
     9    4   22 1   
    10    5    6 ar  
    11    5   23 1   
    12    6    7 1   
    13    7    8 1   
    14    7   10 1   
    15    7   24 1   
    16    8    9 1   
    17    8   25 1   
    18    8   26 1   
    19    9   27 1   
    20   10   11 1   
    21   10   28 1   
    22   11   12 1   
    23   11   29 1   
    24   11   30 1   
    25   12   13 1   
    26   12   17 1   
    27   12   31 1   
    28   13   14 1   
    29   13   32 1   
    30   14   15 1   
    31   14   33 1   
    32   14   34 1   
    33   15   16 1   
    34   15   17 1   
    35   15   35 1   
    36   16   36 1   
    37   17   18 1   
    38   17   37 1   
    39   18   38 1   
@<TRIPOS>SUBSTRUCTURE
     1 GB1         1 TEMP              0 ****  ****    0 ROOT
