@<TRIPOS>MOLECULE
GB1
   39    40     1     0     0
SMALL
bcc


@<TRIPOS>ATOM
      1 C15        -0.0010   -0.3350   -0.0550 ca        1 GB1     -0.113000
      2 C14         1.3900   -0.2890   -0.0960 ca        1 GB1     -0.113500
      3 C13         2.1140    0.0270    1.0560 ca        1 GB1     -0.084000
      4 C12         1.4440    0.2990    2.2480 ca        1 GB1     -0.113500
      5 C11         0.0500    0.2610    2.2930 ca        1 GB1     -0.113000
      6 C10        -0.6760   -0.0610    1.1410 ca        1 GB1     -0.183300
      7 C8         -2.1730   -0.1240    1.2140 c3        1 GB1      0.150800
      8 C9         -2.7000   -1.5610    0.9760 c3        1 GB1      0.117400
      9 O9         -2.6470   -1.8950   -0.3920 oh        1 GB1     -0.603800
     10 N7         -2.7760    0.8450    0.2260 ny        1 GB1     -0.751000
     11 C6         -4.1690    1.2390    0.5730 c3        1 GB1      0.114800
     12 C5         -4.6950    2.3950   -0.3080 c3        1 GB1      0.096500
     13 N1         -4.4330    2.1570   -1.7280 n7        1 GB1     -0.831200
     14 C2         -5.6940    1.8160   -2.3810 c3        1 GB1      0.141800
     15 C3         -6.8690    2.2510   -1.4730 c3        1 GB1      0.085100
     16 O3         -7.3830    3.4560   -2.0010 oh        1 GB1     -0.591800
     17 C4         -6.2390    2.5150   -0.0810 c3        1 GB1      0.103100
     18 O4         -6.5650    3.7740    0.4430 oh        1 GB1     -0.577800
     19 H15        -0.5640   -0.5980   -0.9650 ha        1 GB1      0.139000
     20 H14         1.9200   -0.5050   -1.0380 ha        1 GB1      0.160000
     21 H13         3.2160    0.0590    1.0220 ha        1 GB1      0.162000
     22 H12         2.0130    0.5450    3.1590 ha        1 GB1      0.160000
     23 H11        -0.4700    0.4770    3.2400 ha        1 GB1      0.139000
     24 H8         -2.5130    0.1950    2.2460 hx        1 GB1      0.105700
     25 H91        -2.1030   -2.2600    1.6170 h1        1 GB1      0.085700
     26 H92        -3.7870   -1.6200    1.2610 h1        1 GB1      0.085700
     27 HO9        -1.8450   -2.4110   -0.5490 ho        1 GB1      0.435000
     28 HN7        -2.7770    0.3940   -0.7040 hn        1 GB1      0.463800
     29 H61        -4.8160    0.3250    0.4520 hx        1 GB1      0.102200
     30 H62        -4.1970    1.5760    1.6480 hx        1 GB1      0.102200
     31 H5         -4.2030    3.3500    0.0390 h1        1 GB1      0.082700
     32 HN1        -4.0340    2.9780   -2.1460 hn        1 GB1      0.382800
     33 H21        -5.7240    0.7010   -2.5190 h1        1 GB1      0.084200
     34 H22        -5.7790    2.3070   -3.3880 h1        1 GB1      0.084200
     35 H3         -7.6600    1.4600   -1.4200 h1        1 GB1      0.076700
     36 HO3        -8.2680    3.5820   -1.6310 ho        1 GB1      0.429000
     37 H4         -6.6050    1.7800    0.6840 h1        1 GB1      0.091700
     38 HO4        -6.5090    4.4290   -0.2710 ho        1 GB1      0.430000
     39 H72        -2.1840    1.6810    0.1730 hn        1 GB1      0.463800
@<TRIPOS>BOND
     1    1    2 ar  
     2    1    6 ar  
     3    1   19 1   
     4    2    3 ar  
     5    2   20 1   
     6    3    4 ar  
     7    3   21 1   
     8    4    5 ar  
     9    4   22 1   
    10    5    6 ar  
    11    5   23 1   
    12    6    7 1   
    13    7    8 1   
    14    7   10 1   
    15    7   24 1   
    16    8    9 1   
    17    8   25 1   
    18    8   26 1   
    19    9   27 1   
    20   10   11 1   
    21   10   28 1   
    22   10   39 1   
    23   11   12 1   
    24   11   29 1   
    25   11   30 1   
    26   12   13 1   
    27   12   17 1   
    28   12   31 1   
    29   13   14 1   
    30   13   32 1   
    31   14   15 1   
    32   14   33 1   
    33   14   34 1   
    34   15   16 1   
    35   15   17 1   
    36   15   35 1   
    37   16   36 1   
    38   17   18 1   
    39   17   37 1   
    40   18   38 1   
@<TRIPOS>SUBSTRUCTURE
     1 GB1         1 TEMP              0 ****  ****    0 ROOT
