@<TRIPOS>MOLECULE
GB2
   39    40     1     0     0
SMALL
bcc


@<TRIPOS>ATOM
      1 C8          1.5380   -0.0990    0.0110 c3        1 GB2      0.151800
      2 N7          0.0360    0.0490   -0.0650 ny        1 GB2     -0.753000
      3 C6         -0.4200    0.6610   -1.3420 c3        1 GB2      0.115800
      4 C5         -1.9560    0.6080   -1.5060 c3        1 GB2      0.095500
      5 N1         -2.6420    1.1030   -0.3110 n7        1 GB2     -0.833200
      6 C2         -3.2270    2.4050   -0.6160 c3        1 GB2      0.141800
      7 C3         -3.2800    2.5920   -2.1510 c3        1 GB2      0.085100
      8 O3         -4.6110    2.3500   -2.5580 oh        1 GB2     -0.591800
      9 C4         -2.3470    1.4980   -2.7320 c3        1 GB2      0.104100
     10 O4         -2.9580    0.7270   -3.7310 oh        1 GB2     -0.576800
     11 C15         1.5060   -1.0100    2.3640 ca        1 GB2     -0.112500
     12 C14         1.9480   -0.9790    3.6840 ca        1 GB2     -0.113500
     13 C13         2.8720   -0.0130    4.0900 ca        1 GB2     -0.084000
     14 C12         3.3510    0.9220    3.1720 ca        1 GB2     -0.113500
     15 C11         2.9060    0.8990    1.8500 ca        1 GB2     -0.112500
     16 C10         1.9850   -0.0710    1.4410 ca        1 GB2     -0.181300
     17 C9          2.0050   -1.3870   -0.7120 c3        1 GB2      0.116400
     18 O9          1.2090   -2.4860   -0.3350 oh        1 GB2     -0.606800
     19 H8          1.9860    0.7830   -0.5410 hx        1 GB2      0.106700
     20 HN7        -0.3810   -0.8890    0.0320 hn        1 GB2      0.464300
     21 H61         0.0480    0.0980   -2.1990 hx        1 GB2      0.101700
     22 H62        -0.0610    1.7290   -1.3570 hx        1 GB2      0.101700
     23 H5         -2.2470   -0.4600   -1.7280 h1        1 GB2      0.086700
     24 HN1        -3.3560    0.4560   -0.0320 hn        1 GB2      0.383800
     25 H21        -2.5670    3.1970   -0.1680 h1        1 GB2      0.082700
     26 H22        -4.2570    2.5050   -0.1780 h1        1 GB2      0.082700
     27 H3         -2.9430    3.6170   -2.4510 h1        1 GB2      0.075700
     28 HO3        -4.7170    2.7280   -3.4420 ho        1 GB2      0.429000
     29 H4         -1.4430    1.9450   -3.2260 h1        1 GB2      0.090700
     30 HO4        -3.8600    0.5120   -3.4450 ho        1 GB2      0.430000
     31 H15         0.7870   -1.7830    2.0480 ha        1 GB2      0.138500
     32 H14         1.5700   -1.7180    4.4080 ha        1 GB2      0.160000
     33 H13         3.2240    0.0080    5.1340 ha        1 GB2      0.162000
     34 H12         4.0830    1.6830    3.4900 ha        1 GB2      0.160000
     35 H11         3.2920    1.6420    1.1340 ha        1 GB2      0.138500
     36 H91         1.8630   -1.2760   -1.8230 h1        1 GB2      0.087200
     37 H92         3.0910   -1.5390   -0.4850 h1        1 GB2      0.087200
     38 HO9         1.6810   -2.9850    0.3460 ho        1 GB2      0.436000
     39 H72        -0.2860    0.6230    0.7250 hn        1 GB2      0.464300
@<TRIPOS>BOND
     1    1    2 1   
     2    1   16 1   
     3    1   17 1   
     4    1   19 1   
     5    2    3 1   
     6    2   20 1   
     7    2   39 1   
     8    3    4 1   
     9    3   21 1   
    10    3   22 1   
    11    4    5 1   
    12    4    9 1   
    13    4   23 1   
    14    5    6 1   
    15    5   24 1   
    16    6    7 1   
    17    6   25 1   
    18    6   26 1   
    19    7    8 1   
    20    7    9 1   
    21    7   27 1   
    22    8   28 1   
    23    9   10 1   
    24    9   29 1   
    25   10   30 1   
    26   11   12 ar  
    27   11   16 ar  
    28   11   31 1   
    29   12   13 ar  
    30   12   32 1   
    31   13   14 ar  
    32   13   33 1   
    33   14   15 ar  
    34   14   34 1   
    35   15   16 ar  
    36   15   35 1   
    37   17   18 1   
    38   17   36 1   
    39   17   37 1   
    40   18   38 1   
@<TRIPOS>SUBSTRUCTURE
     1 GB2         1 TEMP              0 ****  ****    0 ROOT
