@<TRIPOS>MOLECULE
GB2
   38    36     1     0     0
SMALL
bcc


@<TRIPOS>ATOM
      1 C8          1.5050   -0.3180    0.3910 c3        1 GB2      0.139600
      2 N7          0.0990   -0.3690    0.3620 n3        1 GB2     -0.824200
      3 C6         -0.3960    0.4750   -0.6850 c3        1 GB2      0.159800
      4 C5         -1.8670    0.1380   -0.9590 c3        1 GB2      0.144500
      5 N1         -2.6350    1.0110   -0.4110 n3        1 GB2     -0.793200
      6 C2         -3.9070    1.1700   -1.3930 c3        1 GB2      0.114800
      7 C3         -3.4260    1.0730   -2.6560 c3        1 GB2      0.083100
      8 O3         -4.4110    0.4030   -3.5270 oh        1 GB2     -0.592800
      9 C4         -2.1770    0.2330   -2.5350 c3        1 GB2      0.082100
     10 O4         -2.3870   -0.9630   -3.0250 oh        1 GB2     -0.591800
     11 C15         1.4950   -1.0250    2.8880 c1        1 GB2     -0.070500
     12 C14         2.1390   -0.9540    4.1220 c1        1 GB2     -0.068750
     13 C13         3.2550   -0.1270    4.2790 c1        1 GB2     -0.068750
     14 C12         3.7270    0.6330    3.1900 c1        1 GB2     -0.068750
     15 C11         3.0830    0.5600    1.9630 c1        1 GB2     -0.068750
     16 C10         1.9660   -0.2690    1.8060 c1        1 GB2     -0.088100
     17 C9          2.0730   -1.5620   -0.2820 c3        1 GB2      0.144400
     18 O9          3.3920   -1.2840   -0.7590 oh        1 GB2     -0.599800
     19 H8          1.8210    0.4950   -0.0920 h1        1 GB2      0.075700
     20 HN7        -0.2360   -0.0850    1.1700 hn        1 GB2      0.369800
     21 H61        -0.3180    1.4490   -0.4000 h1        1 GB2      0.042200
     22 H62         0.1380    0.3260   -1.5130 h1        1 GB2      0.042200
     23 H5         -2.0860   -0.7960   -0.6110 h1        1 GB2      0.102700
     24 HN1        -2.2050    1.7890   -0.3540 hn        1 GB2      0.351800
     25 H21        -4.5480    0.4610   -1.2270 h1        1 GB2      0.060700
     26 H22        -4.3290    2.0420   -1.2590 h1        1 GB2      0.060700
     27 H3         -3.2090    1.9530   -3.0050 h1        1 GB2      0.084700
     28 HO3        -4.6860    0.9890   -4.1900 ho        1 GB2      0.417000
     29 H4         -1.3890    0.6890   -3.0280 h1        1 GB2      0.049700
     30 HO4        -1.8680   -1.0890   -3.7210 ho        1 GB2      0.416000
     31 H15         0.6850   -1.6240    2.7720 ha        1 GB2      0.075500
     32 H14         1.7970   -1.5050    4.9090 ha        1 GB2      0.076750
     33 H13         3.6960   -0.0770    5.1210 ha        1 GB2      0.076750
     34 H12         4.4860    1.1950    3.2960 ha        1 GB2      0.076750
     35 H11         3.4160    1.0980    1.1930 ha        1 GB2      0.076750
     36 H91         2.1080   -2.3240    0.3880 h1        1 GB2      0.048200
     37 H92         1.4880   -1.8210   -1.0530 h1        1 GB2      0.048200
     38 HO9         3.7090   -1.9890   -1.1660 ho        1 GB2      0.414000
@<TRIPOS>BOND
     1    1    2 1   
     2    1   16 1   
     3    1   17 1   
     4    1   19 1   
     5    2    3 1   
     6    2   20 1   
     7    3    4 1   
     8    3   21 1   
     9    3   22 1   
    10    4    5 1   
    11    4    9 1   
    12    4   23 1   
    13    5    6 1   
    14    5   24 1   
    15    6    7 1   
    16    6   25 1   
    17    6   26 1   
    18    7    8 1   
    19    7    9 1   
    20    7   27 1   
    21    8   28 1   
    22    9   10 1   
    23    9   29 1   
    24   10   30 1   
    25   11   16 3   
    26   11   31 1   
    27   12   13 3   
    28   12   32 1   
    29   13   33 1   
    30   14   15 3   
    31   14   34 1   
    32   15   35 1   
    33   17   18 1   
    34   17   36 1   
    35   17   37 1   
    36   18   38 1   
@<TRIPOS>SUBSTRUCTURE
     1 GB2         1 TEMP              0 ****  ****    0 ROOT
