@<TRIPOS>MOLECULE
GB2
   39    40     1     0     0
SMALL
bcc


@<TRIPOS>ATOM
      1 C8          1.5400   -0.0930    0.0130 c3        1 GB2      0.151800
      2 N7          0.0380    0.0490   -0.0670 n4        1 GB2     -0.753000
      3 C6         -0.4170    0.6670   -1.3420 c3        1 GB2      0.115800
      4 C5         -1.9520    0.6090   -1.5110 c3        1 GB2      0.095500
      5 N1         -2.6440    1.0940   -0.3160 n3        1 GB2     -0.833200
      6 C2         -3.2330    2.3950   -0.6150 c3        1 GB2      0.141800
      7 C3         -3.2820    2.5910   -2.1490 c3        1 GB2      0.085100
      8 O3         -4.6110    2.3460   -2.5620 oh        1 GB2     -0.591800
      9 C4         -2.3430    1.5040   -2.7320 c3        1 GB2      0.104100
     10 O4         -2.9480    0.7350   -3.7380 oh        1 GB2     -0.576800
     11 C15         1.5040   -1.0160    2.3610 ca        1 GB2     -0.112500
     12 C14         1.9420   -0.9890    3.6830 ca        1 GB2     -0.113500
     13 C13         2.8620   -0.0220    4.0960 ca        1 GB2     -0.084000
     14 C12         3.3410    0.9190    3.1840 ca        1 GB2     -0.113500
     15 C11         2.9000    0.9010    1.8610 ca        1 GB2     -0.112500
     16 C10         1.9830   -0.0700    1.4440 ca        1 GB2     -0.181300
     17 C9          2.0130   -1.3760   -0.7150 c3        1 GB2      0.116400
     18 O9          1.2200   -2.4800   -0.3450 oh        1 GB2     -0.606800
     19 H8          1.9860    0.7930   -0.5340 hx        1 GB2      0.106700
     20 HN7        -0.3760   -0.8900    0.0240 hn        1 GB2      0.464300
     21 H61        -0.0620    1.7360   -1.3500 hx        1 GB2      0.101700
     22 H62         0.0560    0.1100   -2.2000 hx        1 GB2      0.101700
     23 H5         -2.2380   -0.4600   -1.7390 h1        1 GB2      0.086700
     24 HN1        -3.3570    0.4420   -0.0420 hn        1 GB2      0.383800
     25 H21        -4.2650    2.4880   -0.1790 h1        1 GB2      0.082700
     26 H22        -2.5780    3.1870   -0.1610 h1        1 GB2      0.082700
     27 H3         -2.9490    3.6190   -2.4420 h1        1 GB2      0.075700
     28 HO3        -4.7160    2.7280   -3.4440 ho        1 GB2      0.429000
     29 H4         -1.4400    1.9580   -3.2210 h1        1 GB2      0.090700
     30 HO4        -3.8500    0.5150   -3.4560 ho        1 GB2      0.430000
     31 H15         0.7890   -1.7900    2.0400 ha        1 GB2      0.138500
     32 H14         1.5640   -1.7340    4.4020 ha        1 GB2      0.160000
     33 H13         3.2100   -0.0050    5.1410 ha        1 GB2      0.162000
     34 H12         4.0690    1.6810    3.5080 ha        1 GB2      0.160000
     35 H11         3.2840    1.6490    1.1490 ha        1 GB2      0.138500
     36 H91         1.8740   -1.2600   -1.8260 h1        1 GB2      0.087200
     37 H92         3.1000   -1.5250   -0.4860 h1        1 GB2      0.087200
     38 HO9         1.6920   -2.9800    0.3350 ho        1 GB2      0.436000
     39 H72        -0.2890    0.6190    0.7250 hn        1 GB2      0.464300
@<TRIPOS>BOND
     1    1    2 1   
     2    1   16 1   
     3    1   17 1   
     4    1   19 1   
     5    2    3 1   
     6    2   20 1   
     7    2   39 1   
     8    3    4 1   
     9    3   21 1   
    10    3   22 1   
    11    4    5 1   
    12    4    9 1   
    13    4   23 1   
    14    5    6 1   
    15    5   24 1   
    16    6    7 1   
    17    6   25 1   
    18    6   26 1   
    19    7    8 1   
    20    7    9 1   
    21    7   27 1   
    22    8   28 1   
    23    9   10 1   
    24    9   29 1   
    25   10   30 1   
    26   11   12 ar  
    27   11   16 ar  
    28   11   31 1   
    29   12   13 ar  
    30   12   32 1   
    31   13   14 ar  
    32   13   33 1   
    33   14   15 ar  
    34   14   34 1   
    35   15   16 ar  
    36   15   35 1   
    37   17   18 1   
    38   17   36 1   
    39   17   37 1   
    40   18   38 1   
@<TRIPOS>SUBSTRUCTURE
     1 GB2         1 TEMP              0 ****  ****    0 ROOT
