@<TRIPOS>MOLECULE
GB2
   38    39     1     0     0
SMALL
bcc


@<TRIPOS>ATOM
      1 C8         -1.4340    0.4610   -0.7820 c3        1 GB2      0.228800
      2 N7         -0.4440   -0.6020   -0.7150 n3        1 GB2     -0.809200
      3 C6          0.8910   -0.2560   -1.1350 c3        1 GB2      0.184800
      4 C5          1.8560    0.2560   -0.0370 c3        1 GB2      0.119500
      5 N1          2.0730   -0.7410    1.0160 n3        1 GB2     -0.791200
      6 C2          3.4080   -1.3020    0.8660 c3        1 GB2      0.121800
      7 C3          4.2090   -0.4750   -0.1690 c3        1 GB2      0.078100
      8 O3          5.3240    0.1830    0.4020 oh        1 GB2     -0.604800
      9 C4          3.2280    0.6050   -0.6840 c3        1 GB2      0.132100
     10 O4          3.5500    1.9160   -0.2680 oh        1 GB2     -0.597800
     11 C15        -3.0940   -0.4670    0.8820 ca        1 GB2     -0.115500
     12 C14        -4.3620   -0.9520    1.2000 ca        1 GB2     -0.134500
     13 C13        -5.3460   -1.0380    0.2150 ca        1 GB2     -0.129000
     14 C12        -5.0590   -0.6390   -1.0900 ca        1 GB2     -0.134500
     15 C11        -3.7910   -0.1570   -1.4130 ca        1 GB2     -0.115500
     16 C10        -2.8050   -0.0630   -0.4260 ca        1 GB2     -0.080300
     17 C9         -1.1490    1.7400    0.0420 c3        1 GB2      0.091400
     18 O9         -0.7690    1.3740    1.3580 oh        1 GB2     -0.606800
     19 H8         -1.4570    0.8100   -1.8620 h1        1 GB2      0.057700
     20 HN7        -0.4460   -1.0270    0.1940 hn        1 GB2      0.390800
     21 H61         1.3260   -1.1930   -1.5890 h1        1 GB2      0.048700
     22 H62         0.8490    0.5340   -1.9360 h1        1 GB2      0.048700
     23 H5          1.4150    1.1950    0.4120 h1        1 GB2      0.081700
     24 HN1         1.9720   -0.3080    1.9150 hn        1 GB2      0.364800
     25 H21         3.9570   -1.3370    1.8450 h1        1 GB2      0.052700
     26 H22         3.2920   -2.3560    0.4910 h1        1 GB2      0.052700
     27 H3          4.5550   -1.1300   -1.0130 h1        1 GB2      0.048700
     28 HO3         5.8810   -0.4980    0.7970 ho        1 GB2      0.413000
     29 H4          3.1810    0.5790   -1.8060 h1        1 GB2      0.049700
     30 HO4         4.5070    2.0260   -0.3440 ho        1 GB2      0.423000
     31 H15        -2.3160   -0.3870    1.6580 ha        1 GB2      0.140000
     32 H14        -4.5850   -1.2680    2.2290 ha        1 GB2      0.129500
     33 H13        -6.3460   -1.4210    0.4660 ha        1 GB2      0.129000
     34 H12        -5.8320   -0.7100   -1.8700 ha        1 GB2      0.129500
     35 H11        -3.5670    0.1440   -2.4470 ha        1 GB2      0.140000
     36 H91        -2.0730    2.3770    0.0680 h1        1 GB2      0.030700
     37 H92        -0.3150    2.3210   -0.4380 h1        1 GB2      0.030700
     38 HO9        -0.7010    2.1930    1.8620 ho        1 GB2      0.403000
@<TRIPOS>BOND
     1    1    2 1   
     2    1   16 1   
     3    1   17 1   
     4    1   19 1   
     5    2    3 1   
     6    2   20 1   
     7    3    4 1   
     8    3   21 1   
     9    3   22 1   
    10    4    5 1   
    11    4    9 1   
    12    4   23 1   
    13    5    6 1   
    14    5   24 1   
    15    6    7 1   
    16    6   25 1   
    17    6   26 1   
    18    7    8 1   
    19    7    9 1   
    20    7   27 1   
    21    8   28 1   
    22    9   10 1   
    23    9   29 1   
    24   10   30 1   
    25   11   12 ar  
    26   11   16 ar  
    27   11   31 1   
    28   12   13 ar  
    29   12   32 1   
    30   13   14 ar  
    31   13   33 1   
    32   14   15 ar  
    33   14   34 1   
    34   15   16 ar  
    35   15   35 1   
    36   17   18 1   
    37   17   36 1   
    38   17   37 1   
    39   18   38 1   
@<TRIPOS>SUBSTRUCTURE
     1 GB2         1 TEMP              0 ****  ****    0 ROOT
