@<TRIPOS>MOLECULE
GB2
   39    40     1     0     0
SMALL
bcc


@<TRIPOS>ATOM
      1 C8          1.5340   -0.1120    0.0140 c3        1 GB2      0.151800
      2 N7          0.0340    0.0460   -0.0620 n4        1 GB2     -0.753000
      3 C6         -0.4190    0.6510   -1.3440 c3        1 GB2      0.115800
      4 C5         -1.9550    0.6070   -1.5070 c3        1 GB2      0.095500
      5 N1         -2.6370    1.1160   -0.3160 n3        1 GB2     -0.833200
      6 C2         -3.2140    2.4190   -0.6300 c3        1 GB2      0.141800
      7 C3         -3.2650    2.5950   -2.1670 c3        1 GB2      0.085100
      8 O3         -4.5980    2.3590   -2.5720 oh        1 GB2     -0.591800
      9 C4         -2.3400    1.4910   -2.7390 c3        1 GB2      0.104100
     10 O4         -2.9560    0.7160   -3.7320 oh        1 GB2     -0.576800
     11 C15         1.4970   -1.0000    2.3760 ca        1 GB2     -0.112500
     12 C14         1.9400   -0.9580    3.6960 ca        1 GB2     -0.113500
     13 C13         2.8740    0.0030    4.0900 ca        1 GB2     -0.084000
     14 C12         3.3600    0.9250    3.1630 ca        1 GB2     -0.113500
     15 C11         2.9140    0.8920    1.8420 ca        1 GB2     -0.112500
     16 C10         1.9830   -0.0740    1.4440 ca        1 GB2     -0.181300
     17 C9          1.9900   -1.4110   -0.6960 c3        1 GB2      0.116400
     18 O9          1.1860   -2.5010   -0.3060 oh        1 GB2     -0.606800
     19 H8          1.9890    0.7600   -0.5470 hx        1 GB2      0.106700
     20 HN7        -0.2830    0.6300    0.7240 hn        1 GB2      0.464300
     21 H61         0.0450    0.0780   -2.1960 hx        1 GB2      0.101700
     22 H62        -0.0520    1.7160   -1.3670 hx        1 GB2      0.101700
     23 H5         -2.2530   -0.4610   -1.7200 h1        1 GB2      0.086700
     24 HN1        -3.3560    0.4750   -0.0310 hn        1 GB2      0.383800
     25 H21        -4.2430    2.5290   -0.1930 h1        1 GB2      0.082700
     26 H22        -2.5490    3.2100   -0.1890 h1        1 GB2      0.082700
     27 H3         -2.9220    3.6160   -2.4740 h1        1 GB2      0.075700
     28 HO3        -4.7030    2.7310   -3.4580 ho        1 GB2      0.429000
     29 H4         -1.4330    1.9290   -3.2370 h1        1 GB2      0.090700
     30 HO4        -3.8600    0.5090   -3.4450 ho        1 GB2      0.430000
     31 H15         0.7710   -1.7690    2.0700 ha        1 GB2      0.138500
     32 H14         1.5570   -1.6870    4.4280 ha        1 GB2      0.160000
     33 H13         3.2270    0.0320    5.1340 ha        1 GB2      0.162000
     34 H12         4.0990    1.6820    3.4720 ha        1 GB2      0.160000
     35 H11         3.3050    1.6240    1.1180 ha        1 GB2      0.138500
     36 H91         3.0760   -1.5700   -0.4690 h1        1 GB2      0.087200
     37 H92         1.8470   -1.3110   -1.8080 h1        1 GB2      0.087200
     38 HO9         1.6550   -2.9950    0.3800 ho        1 GB2      0.436000
     39 H72        -0.3900   -0.8870    0.0430 hn        1 GB2      0.464300
@<TRIPOS>BOND
     1    1    2 1   
     2    1   16 1   
     3    1   17 1   
     4    1   19 1   
     5    2    3 1   
     6    2   20 1   
     7    2   39 1   
     8    3    4 1   
     9    3   21 1   
    10    3   22 1   
    11    4    5 1   
    12    4    9 1   
    13    4   23 1   
    14    5    6 1   
    15    5   24 1   
    16    6    7 1   
    17    6   25 1   
    18    6   26 1   
    19    7    8 1   
    20    7    9 1   
    21    7   27 1   
    22    8   28 1   
    23    9   10 1   
    24    9   29 1   
    25   10   30 1   
    26   11   12 ar  
    27   11   16 ar  
    28   11   31 1   
    29   12   13 ar  
    30   12   32 1   
    31   13   14 ar  
    32   13   33 1   
    33   14   15 ar  
    34   14   34 1   
    35   15   16 ar  
    36   15   35 1   
    37   17   18 1   
    38   17   36 1   
    39   17   37 1   
    40   18   38 1   
@<TRIPOS>SUBSTRUCTURE
     1 GB2         1 TEMP              0 ****  ****    0 ROOT
