@<TRIPOS>MOLECULE
GB3
   41    39     1     0     0
SMALL
bcc


@<TRIPOS>ATOM
      1 C15         3.2070   -0.8110   -0.0290 c1        1 GB3     -0.046500
      2 C14         4.4970   -0.3050   -0.0220 c1        1 GB3     -0.076000
      3 C13         5.0380    0.1980    1.1530 c1        1 GB3     -0.076000
      4 C12         4.2860    0.1960    2.3210 c1        1 GB3     -0.076000
      5 C11         2.9880   -0.3130    2.3140 c1        1 GB3     -0.076000
      6 C10         2.4490   -0.8130    1.1510 c1        1 GB3     -0.064100
      7 C8          1.0240   -1.4120    1.1590 c3        1 GB3      0.146600
      8 C9          1.1120   -2.9500    1.1170 c3        1 GB3      0.130400
      9 O9          1.7840   -3.4300    2.3070 oh        1 GB3     -0.598800
     10 N7          0.3230   -0.9570    0.0570 n3        1 GB3     -0.815200
     11 C6         -0.9230   -0.3620    0.4890 c3        1 GB3      0.177800
     12 C5         -1.5320    0.3900   -0.6400 c3        1 GB3      0.156500
     13 N1         -2.5680   -0.2740   -1.1170 n3        1 GB3     -0.802200
     14 C2         -3.5640    0.8110   -1.5690 c3        1 GB3      0.127500
     15 C3         -3.0260    2.1670   -0.9710 c3        1 GB3      0.082100
     16 O3         -2.4390    2.9990   -2.0380 oh        1 GB3     -0.592800
     17 C4         -2.1070    1.8140   -0.1170 c3        1 GB3      0.083100
     18 O4         -1.0370    2.8080   -0.0930 oh        1 GB3     -0.600800
     19 C21        -3.6040    0.8810   -2.9500 c3        1 GB3     -0.100100
     20 H15         2.8170   -1.1730   -0.8750 ha        1 GB3      0.092500
     21 H14         5.0300   -0.3030   -0.8500 ha        1 GB3      0.075250
     22 H13         5.9570    0.5580    1.1590 ha        1 GB3      0.075250
     23 H12         4.6660    0.5490    3.1440 ha        1 GB3      0.075250
     24 H11         2.4600   -0.3140    3.1350 ha        1 GB3      0.075250
     25 H8          0.5650   -1.1380    1.9680 h1        1 GB3      0.036700
     26 H91         0.2040   -3.3300    1.0770 h1        1 GB3      0.054200
     27 H92         1.6160   -3.2250    0.3240 h1        1 GB3      0.054200
     28 HO9         1.7110   -4.3280    2.3510 ho        1 GB3      0.405000
     29 HN7         0.1480   -1.6610   -0.5060 hn        1 GB3      0.376800
     30 H61        -0.7510    0.2520    1.2350 h1        1 GB3      0.036700
     31 H62        -1.5480   -1.0810    0.7860 h1        1 GB3      0.036700
     32 H5         -0.8600    0.5360   -1.3550 h1        1 GB3      0.085700
     33 HN1        -2.3060   -0.7750   -1.8460 hn        1 GB3      0.360800
     34 H2         -4.4410    0.6200   -1.2200 h1        1 GB3      0.069700
     35 H3         -3.7500    2.6530   -0.5150 h1        1 GB3      0.087700
     36 HO3        -2.9060    3.7670   -2.1110 ho        1 GB3      0.411000
     37 H4         -2.5080    1.7100    0.8060 h1        1 GB3      0.057700
     38 HO4        -1.1590    3.3650    0.6040 ho        1 GB3      0.415000
     39 H211       -4.1200    1.6670   -3.2210 hc        1 GB3      0.046367
     40 H212       -2.6960    0.9520   -3.2990 hc        1 GB3      0.046367
     41 H213       -4.0360    0.0590   -3.3140 hc        1 GB3      0.046367
@<TRIPOS>BOND
     1    1    6 3   
     2    1   20 1   
     3    2    3 3   
     4    2   21 1   
     5    3   22 1   
     6    4    5 3   
     7    4   23 1   
     8    5   24 1   
     9    6    7 1   
    10    7    8 1   
    11    7   10 1   
    12    7   25 1   
    13    8    9 1   
    14    8   26 1   
    15    8   27 1   
    16    9   28 1   
    17   10   11 1   
    18   10   29 1   
    19   11   12 1   
    20   11   30 1   
    21   11   31 1   
    22   12   13 1   
    23   12   17 1   
    24   12   32 1   
    25   13   14 1   
    26   13   33 1   
    27   14   15 1   
    28   14   19 1   
    29   14   34 1   
    30   15   16 1   
    31   15   17 1   
    32   15   35 1   
    33   16   36 1   
    34   17   18 1   
    35   17   37 1   
    36   18   38 1   
    37   19   39 1   
    38   19   40 1   
    39   19   41 1   
@<TRIPOS>SUBSTRUCTURE
     1 GB3         1 TEMP              0 ****  ****    0 ROOT
