@<TRIPOS>MOLECULE
GB3
   41    42     1     0     0
SMALL
bcc


@<TRIPOS>ATOM
      1 C15         3.3020    1.0430    0.1570 ca        1 GB3     -0.115000
      2 C14         4.4700    1.4270    0.8140 ca        1 GB3     -0.134500
      3 C13         5.3610    0.4610    1.2820 ca        1 GB3     -0.128000
      4 C12         5.0800   -0.8920    1.0920 ca        1 GB3     -0.134500
      5 C11         3.9120   -1.2800    0.4380 ca        1 GB3     -0.115000
      6 C10         3.0210   -0.3130   -0.0370 ca        1 GB3     -0.081300
      7 C8          1.7580   -0.7400   -0.7460 c3        1 GB3      0.227800
      8 C9          1.7580   -0.1660   -2.1850 c3        1 GB3      0.093400
      9 O9          1.3580    1.1930   -2.1420 oh        1 GB3     -0.602800
     10 N7          0.5840   -0.4500    0.0640 n3        1 GB3     -0.803200
     11 C6         -0.6640   -0.8260   -0.5660 c3        1 GB3      0.179800
     12 C5         -1.8750   -0.6440    0.3800 c3        1 GB3      0.162500
     13 N1         -2.0750    0.7550    0.7660 n3        1 GB3     -0.797200
     14 C2         -3.2540    1.2820    0.0720 c3        1 GB3      0.128500
     15 C3         -4.0610    0.0930   -0.5280 c3        1 GB3      0.081100
     16 O3         -5.3180   -0.1170    0.0760 oh        1 GB3     -0.593800
     17 C4         -3.1520   -1.1470   -0.3500 c3        1 GB3      0.082100
     18 O4         -3.7650   -2.1010    0.4990 oh        1 GB3     -0.600800
     19 C21        -4.1320    2.1930    0.9130 c3        1 GB3     -0.101100
     20 H15         2.5990    1.8020   -0.2230 ha        1 GB3      0.140500
     21 H14         4.6870    2.4950    0.9650 ha        1 GB3      0.130000
     22 H13         6.2810    0.7650    1.8010 ha        1 GB3      0.129000
     23 H12         5.7790   -1.6560    1.4640 ha        1 GB3      0.130000
     24 H11         3.6890   -2.3490    0.3030 ha        1 GB3      0.140500
     25 H8          1.7850   -1.8670   -0.8780 h1        1 GB3      0.058700
     26 H91         2.7880   -0.2570   -2.6210 h1        1 GB3      0.027200
     27 H92         1.0370   -0.7450   -2.8230 h1        1 GB3      0.027200
     28 HO9         1.4790    1.5440   -3.0310 ho        1 GB3      0.402000
     29 HN7         0.5730    0.5220    0.3180 hn        1 GB3      0.385800
     30 H61        -0.6100   -1.9200   -0.8290 h1        1 GB3      0.031200
     31 H62        -0.8530   -0.2490   -1.5190 h1        1 GB3      0.031200
     32 H5         -1.7040   -1.2820    1.2960 h1        1 GB3      0.084700
     33 HN1        -2.1880    0.8240    1.7600 hn        1 GB3      0.361800
     34 H2         -2.8520    1.8830   -0.7970 h1        1 GB3      0.071700
     35 H3         -4.3000    0.2830   -1.6080 h1        1 GB3      0.085700
     36 HO3        -5.1660   -0.2660    1.0200 ho        1 GB3      0.411000
     37 H4         -2.9120   -1.6170   -1.3390 h1        1 GB3      0.053700
     38 HO4        -4.6070   -2.3410    0.0870 ho        1 GB3      0.414000
     39 H211       -3.5790    3.1250    1.1830 hc        1 GB3      0.045367
     40 H212       -5.0410    2.4660    0.3250 hc        1 GB3      0.045367
     41 H213       -4.4620    1.6920    1.8550 hc        1 GB3      0.045367
@<TRIPOS>BOND
     1    1    2 ar  
     2    1    6 ar  
     3    1   20 1   
     4    2    3 ar  
     5    2   21 1   
     6    3    4 ar  
     7    3   22 1   
     8    4    5 ar  
     9    4   23 1   
    10    5    6 ar  
    11    5   24 1   
    12    6    7 1   
    13    7    8 1   
    14    7   10 1   
    15    7   25 1   
    16    8    9 1   
    17    8   26 1   
    18    8   27 1   
    19    9   28 1   
    20   10   11 1   
    21   10   29 1   
    22   11   12 1   
    23   11   30 1   
    24   11   31 1   
    25   12   13 1   
    26   12   17 1   
    27   12   32 1   
    28   13   14 1   
    29   13   33 1   
    30   14   15 1   
    31   14   19 1   
    32   14   34 1   
    33   15   16 1   
    34   15   17 1   
    35   15   35 1   
    36   16   36 1   
    37   17   18 1   
    38   17   37 1   
    39   18   38 1   
    40   19   39 1   
    41   19   40 1   
    42   19   41 1   
@<TRIPOS>SUBSTRUCTURE
     1 GB3         1 TEMP              0 ****  ****    0 ROOT
