@<TRIPOS>MOLECULE
GB3
   42    43     1     0     0
SMALL
bcc


@<TRIPOS>ATOM
      1 C15         0.0010   -0.4020   -0.0100 ca        1 GB3     -0.113000
      2 C14         1.3930   -0.4190   -0.0090 ca        1 GB3     -0.113500
      3 C13         2.0950   -0.1480    1.1690 ca        1 GB3     -0.083000
      4 C12         1.4010    0.1430    2.3430 ca        1 GB3     -0.113500
      5 C11         0.0060    0.1690    2.3450 ca        1 GB3     -0.113000
      6 C10        -0.6980   -0.1080    1.1680 ca        1 GB3     -0.183300
      7 C8         -2.1970   -0.1030    1.1940 c3        1 GB3      0.151800
      8 C9         -2.7820   -1.5110    0.9220 c3        1 GB3      0.118400
      9 O9         -2.7050   -1.8310   -0.4470 oh        1 GB3     -0.602800
     10 N7         -2.7240    0.9050    0.2010 n4        1 GB3     -0.750000
     11 C6         -4.1120    1.3490    0.5000 c3        1 GB3      0.110800
     12 C5         -4.5450    2.5520   -0.3720 c3        1 GB3      0.134500
     13 N1         -4.2280    2.3350   -1.7840 n3        1 GB3     -0.827200
     14 C2         -5.4920    2.1430   -2.5140 c3        1 GB3      0.167500
     15 C3         -6.6190    2.8150   -1.6720 c3        1 GB3      0.088100
     16 O3         -6.7600    4.1440   -2.1260 oh        1 GB3     -0.577800
     17 C4         -6.0870    2.7380   -0.2180 c3        1 GB3      0.091100
     18 O4         -6.2820    3.9470    0.4850 oh        1 GB3     -0.586800
     19 C21        -5.4750    2.6480   -3.9450 c3        1 GB3     -0.096100
     20 H15        -0.5450   -0.6290   -0.9400 ha        1 GB3      0.139500
     21 H14         1.9410   -0.6500   -0.9360 ha        1 GB3      0.160000
     22 H13         3.1970   -0.1670    1.1690 ha        1 GB3      0.162000
     23 H12         1.9530    0.3540    3.2730 ha        1 GB3      0.160000
     24 H11        -0.5320    0.3990    3.2780 ha        1 GB3      0.139500
     25 H8         -2.5540    0.2210    2.2190 hx        1 GB3      0.104700
     26 H91        -2.2370   -2.2440    1.5710 h1        1 GB3      0.085200
     27 H92        -3.8790   -1.5230    1.1750 h1        1 GB3      0.085200
     28 HO9        -1.9230   -2.3820   -0.5880 ho        1 GB3      0.435000
     29 HN7        -2.0980    1.7170    0.1850 hn        1 GB3      0.464800
     30 H61        -4.1750    1.6580    1.5810 hx        1 GB3      0.100700
     31 H62        -4.7910    0.4660    0.3240 hx        1 GB3      0.100700
     32 H5         -4.0320    3.4770    0.0250 h1        1 GB3      0.094700
     33 HN1        -3.7410    3.1340   -2.1530 hn        1 GB3      0.384800
     34 H2         -5.6910    1.0310   -2.5190 h1        1 GB3      0.066700
     35 H3         -7.5930    2.2710   -1.7840 h1        1 GB3      0.069700
     36 HO3        -7.1770    4.6580   -1.4200 ho        1 GB3      0.420000
     37 H4         -6.5570    1.8780    0.3270 h1        1 GB3      0.054700
     38 HO4        -7.1980    3.9570    0.7930 ho        1 GB3      0.425000
     39 H211       -5.2870    3.7490   -3.9820 hc        1 GB3      0.060700
     40 H212       -4.6900    2.1220   -4.5390 hc        1 GB3      0.060700
     41 H213       -6.4730    2.4510   -4.4050 hc        1 GB3      0.060700
     42 H72        -2.7070    0.4690   -0.7360 hn        1 GB3      0.464800
@<TRIPOS>BOND
     1    1    2 ar  
     2    1    6 ar  
     3    1   20 1   
     4    2    3 ar  
     5    2   21 1   
     6    3    4 ar  
     7    3   22 1   
     8    4    5 ar  
     9    4   23 1   
    10    5    6 ar  
    11    5   24 1   
    12    6    7 1   
    13    7    8 1   
    14    7   10 1   
    15    7   25 1   
    16    8    9 1   
    17    8   26 1   
    18    8   27 1   
    19    9   28 1   
    20   10   11 1   
    21   10   29 1   
    22   10   42 1   
    23   11   12 1   
    24   11   30 1   
    25   11   31 1   
    26   12   13 1   
    27   12   17 1   
    28   12   32 1   
    29   13   14 1   
    30   13   33 1   
    31   14   15 1   
    32   14   19 1   
    33   14   34 1   
    34   15   16 1   
    35   15   17 1   
    36   15   35 1   
    37   16   36 1   
    38   17   18 1   
    39   17   37 1   
    40   18   38 1   
    41   19   39 1   
    42   19   40 1   
    43   19   41 1   
@<TRIPOS>SUBSTRUCTURE
     1 GB3         1 TEMP              0 ****  ****    0 ROOT
