@<TRIPOS>MOLECULE
GB3
   42    43     1     0     0
SMALL
bcc


@<TRIPOS>ATOM
      1 C15         0.0000   -0.4000   -0.0070 ca        1 GB3     -0.113000
      2 C14         1.3930   -0.4180   -0.0020 ca        1 GB3     -0.113500
      3 C13         2.0920   -0.1490    1.1770 ca        1 GB3     -0.083000
      4 C12         1.3960    0.1400    2.3500 ca        1 GB3     -0.113500
      5 C11         0.0010    0.1660    2.3490 ca        1 GB3     -0.113000
      6 C10        -0.7010   -0.1090    1.1710 ca        1 GB3     -0.183300
      7 C8         -2.2000   -0.1030    1.1940 c3        1 GB3      0.151800
      8 C9         -2.7840   -1.5110    0.9180 c3        1 GB3      0.118400
      9 O9         -2.7040   -1.8290   -0.4510 oh        1 GB3     -0.602800
     10 N7         -2.7240    0.9060    0.2010 ny        1 GB3     -0.750000
     11 C6         -4.1130    1.3500    0.4980 c3        1 GB3      0.110800
     12 C5         -4.5440    2.5540   -0.3730 c3        1 GB3      0.134500
     13 N1         -4.2260    2.3380   -1.7850 n7        1 GB3     -0.827200
     14 C2         -5.4890    2.1470   -2.5170 c3        1 GB3      0.167500
     15 C3         -6.6170    2.8200   -1.6750 c3        1 GB3      0.088100
     16 O3         -6.7560    4.1480   -2.1280 oh        1 GB3     -0.577800
     17 C4         -6.0860    2.7420   -0.2210 c3        1 GB3      0.091100
     18 O4         -6.2800    3.9500    0.4830 oh        1 GB3     -0.586800
     19 C21        -5.4710    2.6520   -3.9470 c3        1 GB3     -0.096100
     20 H15        -0.5430   -0.6260   -0.9380 ha        1 GB3      0.139500
     21 H14         1.9430   -0.6470   -0.9290 ha        1 GB3      0.160000
     22 H13         3.1950   -0.1670    1.1790 ha        1 GB3      0.162000
     23 H12         1.9460    0.3500    3.2820 ha        1 GB3      0.160000
     24 H11        -0.5390    0.3950    3.2820 ha        1 GB3      0.139500
     25 H8         -2.5590    0.2190    2.2180 hx        1 GB3      0.104700
     26 H91        -3.8810   -1.5230    1.1690 h1        1 GB3      0.085200
     27 H92        -2.2410   -2.2450    1.5680 h1        1 GB3      0.085200
     28 HO9        -1.9210   -2.3800   -0.5900 ho        1 GB3      0.435000
     29 HN7        -2.0980    1.7170    0.1870 hn        1 GB3      0.464800
     30 H61        -4.1760    1.6590    1.5800 hx        1 GB3      0.100700
     31 H62        -4.7920    0.4680    0.3220 hx        1 GB3      0.100700
     32 H5         -4.0300    3.4790    0.0240 h1        1 GB3      0.094700
     33 HN1        -3.7380    3.1360   -2.1530 hn        1 GB3      0.384800
     34 H2         -5.6900    1.0350   -2.5210 h1        1 GB3      0.066700
     35 H3         -7.5910    2.2770   -1.7880 h1        1 GB3      0.069700
     36 HO3        -7.1730    4.6630   -1.4230 ho        1 GB3      0.420000
     37 H4         -6.5570    1.8820    0.3240 h1        1 GB3      0.054700
     38 HO4        -7.1970    3.9610    0.7900 ho        1 GB3      0.425000
     39 H211       -4.6860    2.1250   -4.5410 hc        1 GB3      0.060700
     40 H212       -6.4690    2.4570   -4.4080 hc        1 GB3      0.060700
     41 H213       -5.2820    3.7530   -3.9830 hc        1 GB3      0.060700
     42 H72        -2.7070    0.4700   -0.7370 hn        1 GB3      0.464800
@<TRIPOS>BOND
     1    1    2 ar  
     2    1    6 ar  
     3    1   20 1   
     4    2    3 ar  
     5    2   21 1   
     6    3    4 ar  
     7    3   22 1   
     8    4    5 ar  
     9    4   23 1   
    10    5    6 ar  
    11    5   24 1   
    12    6    7 1   
    13    7    8 1   
    14    7   10 1   
    15    7   25 1   
    16    8    9 1   
    17    8   26 1   
    18    8   27 1   
    19    9   28 1   
    20   10   11 1   
    21   10   29 1   
    22   10   42 1   
    23   11   12 1   
    24   11   30 1   
    25   11   31 1   
    26   12   13 1   
    27   12   17 1   
    28   12   32 1   
    29   13   14 1   
    30   13   33 1   
    31   14   15 1   
    32   14   19 1   
    33   14   34 1   
    34   15   16 1   
    35   15   17 1   
    36   15   35 1   
    37   16   36 1   
    38   17   18 1   
    39   17   37 1   
    40   18   38 1   
    41   19   39 1   
    42   19   40 1   
    43   19   41 1   
@<TRIPOS>SUBSTRUCTURE
     1 GB3         1 TEMP              0 ****  ****    0 ROOT
