@<TRIPOS>MOLECULE
GB3
   42    43     1     0     0
SMALL
bcc


@<TRIPOS>ATOM
      1 C15        -0.0010   -0.4030   -0.0120 ca        1 GB3     -0.113000
      2 C14         1.3920   -0.4210   -0.0070 ca        1 GB3     -0.113500
      3 C13         2.0910   -0.1570    1.1740 ca        1 GB3     -0.083000
      4 C12         1.3940    0.1270    2.3480 ca        1 GB3     -0.113500
      5 C11        -0.0010    0.1530    2.3470 ca        1 GB3     -0.113000
      6 C10        -0.7020   -0.1170    1.1660 ca        1 GB3     -0.183300
      7 C8         -2.2010   -0.1110    1.1880 c3        1 GB3      0.151800
      8 C9         -2.7860   -1.5170    0.9060 c3        1 GB3      0.118400
      9 O9         -2.7050   -1.8280   -0.4650 oh        1 GB3     -0.602800
     10 N7         -2.7250    0.9030    0.2010 n4        1 GB3     -0.750000
     11 C6         -4.1150    1.3450    0.4980 c3        1 GB3      0.110800
     12 C5         -4.5450    2.5540   -0.3660 c3        1 GB3      0.134500
     13 N1         -4.2240    2.3480   -1.7790 n3        1 GB3     -0.827200
     14 C2         -5.4850    2.1610   -2.5140 c3        1 GB3      0.167500
     15 C3         -6.6150    2.8270   -1.6700 c3        1 GB3      0.088100
     16 O3         -6.7550    4.1590   -2.1150 oh        1 GB3     -0.577800
     17 C4         -6.0870    2.7400   -0.2150 c3        1 GB3      0.091100
     18 O4         -6.2830    3.9430    0.4960 oh        1 GB3     -0.586800
     19 C21        -5.4640    2.6760   -3.9410 c3        1 GB3     -0.096100
     20 H15        -0.5440   -0.6240   -0.9450 ha        1 GB3      0.139500
     21 H14         1.9420   -0.6460   -0.9340 ha        1 GB3      0.160000
     22 H13         3.1930   -0.1750    1.1770 ha        1 GB3      0.162000
     23 H12         1.9430    0.3320    3.2810 ha        1 GB3      0.160000
     24 H11        -0.5420    0.3770    3.2800 ha        1 GB3      0.139500
     25 H8         -2.5610    0.2060    2.2150 hx        1 GB3      0.104700
     26 H91        -2.2430   -2.2550    1.5520 h1        1 GB3      0.085200
     27 H92        -3.8830   -1.5310    1.1560 h1        1 GB3      0.085200
     28 HO9        -1.9230   -2.3790   -0.6070 ho        1 GB3      0.435000
     29 HN7        -2.7060    0.4730   -0.7400 hn        1 GB3      0.464800
     30 H61        -4.7930    0.4630    0.3150 hx        1 GB3      0.100700
     31 H62        -4.1800    1.6460    1.5820 hx        1 GB3      0.100700
     32 H5         -4.0320    3.4760    0.0380 h1        1 GB3      0.094700
     33 HN1        -3.7360    3.1490   -2.1410 hn        1 GB3      0.384800
     34 H2         -5.6850    1.0490   -2.5270 h1        1 GB3      0.066700
     35 H3         -7.5880    2.2840   -1.7890 h1        1 GB3      0.069700
     36 HO3        -7.1730    4.6680   -1.4070 ho        1 GB3      0.420000
     37 H4         -6.5580    1.8760    0.3230 h1        1 GB3      0.054700
     38 HO4        -7.2000    3.9510    0.8010 ho        1 GB3      0.425000
     39 H211       -4.6780    2.1530   -4.5370 hc        1 GB3      0.060700
     40 H212       -5.2760    3.7770   -3.9700 hc        1 GB3      0.060700
     41 H213       -6.4610    2.4830   -4.4060 hc        1 GB3      0.060700
     42 H72        -2.0990    1.7150    0.1920 hn        1 GB3      0.464800
@<TRIPOS>BOND
     1    1    2 ar  
     2    1    6 ar  
     3    1   20 1   
     4    2    3 ar  
     5    2   21 1   
     6    3    4 ar  
     7    3   22 1   
     8    4    5 ar  
     9    4   23 1   
    10    5    6 ar  
    11    5   24 1   
    12    6    7 1   
    13    7    8 1   
    14    7   10 1   
    15    7   25 1   
    16    8    9 1   
    17    8   26 1   
    18    8   27 1   
    19    9   28 1   
    20   10   11 1   
    21   10   29 1   
    22   10   42 1   
    23   11   12 1   
    24   11   30 1   
    25   11   31 1   
    26   12   13 1   
    27   12   17 1   
    28   12   32 1   
    29   13   14 1   
    30   13   33 1   
    31   14   15 1   
    32   14   19 1   
    33   14   34 1   
    34   15   16 1   
    35   15   17 1   
    36   15   35 1   
    37   16   36 1   
    38   17   18 1   
    39   17   37 1   
    40   18   38 1   
    41   19   39 1   
    42   19   40 1   
    43   19   41 1   
@<TRIPOS>SUBSTRUCTURE
     1 GB3         1 TEMP              0 ****  ****    0 ROOT
