@<TRIPOS>MOLECULE
GB4
   22    22     1     0     0
SMALL
bcc


@<TRIPOS>ATOM
      1 O12         1.7160   -1.5050   -1.2920 o         1 GB4     -0.427100
      2 C11         1.9190   -0.4800   -0.6680 c         1 GB4      0.616300
      3 N13         1.6320   -0.7290    0.8750 n4        1 GB4     -0.484300
      4 O14         0.8880    0.2970    1.3380 oh        1 GB4     -0.354300
      5 C10         2.3400    0.8560   -0.9730 ce        1 GB4     -0.321200
      6 C9          2.6110    1.3380   -2.2120 cf        1 GB4      0.133800
      7 C1          2.6500    0.6700   -3.4890 ca        1 GB4     -0.165800
      8 C6          2.2210    1.3520   -4.6520 ca        1 GB4      0.074400
      9 CL8         1.5710    2.9140   -4.5530 cl        1 GB4     -0.043400
     10 C5          2.2990    0.7440   -5.9060 ca        1 GB4     -0.130000
     11 C2          3.1730   -0.6270   -3.6330 ca        1 GB4     -0.056000
     12 C3          3.2690   -1.2320   -4.8780 ca        1 GB4     -0.132000
     13 C4          2.8270   -0.5470   -6.0190 ca        1 GB4      0.075400
     14 CL7         2.9310   -1.2790   -7.5350 cl        1 GB4     -0.019400
     15 HN13        1.1380   -1.6350    0.9680 hn        1 GB4      0.456300
     16 HO14        0.5640    0.0800    2.2410 ho        1 GB4      0.466000
     17 H10         2.3840    1.5630   -0.1220 ha        1 GB4      0.180000
     18 H9          2.8310    2.4320   -2.2610 ha        1 GB4      0.177000
     19 H5          1.9490    1.2820   -6.8040 ha        1 GB4      0.185000
     20 H2          3.5320   -1.1710   -2.7450 ha        1 GB4      0.141000
     21 H3          3.6910   -2.2460   -4.9690 ha        1 GB4      0.172000
     22 H132        2.5340   -0.7750    1.3760 hn        1 GB4      0.456300
@<TRIPOS>BOND
     1    1    2 2   
     2    2    3 1   
     3    2    5 1   
     4    3    4 1   
     5    3   15 1   
     6    3   22 1   
     7    4   16 1   
     8    5    6 2   
     9    5   17 1   
    10    6    7 1   
    11    6   18 1   
    12    7    8 ar  
    13    7   11 ar  
    14    8    9 1   
    15    8   10 ar  
    16   10   13 ar  
    17   10   19 1   
    18   11   12 ar  
    19   11   20 1   
    20   12   13 ar  
    21   12   21 1   
    22   13   14 1   
@<TRIPOS>SUBSTRUCTURE
     1 GB4         1 TEMP              0 ****  ****    0 ROOT
