@<TRIPOS>MOLECULE
GB4
   21    17     1     0     0
SMALL
bcc


@<TRIPOS>ATOM
      1 O12         0.5780   -0.7610    1.5040 o         1 GB4     -0.319000
      2 C11         0.4980   -1.7670    0.8240 c1        1 GB4      0.272000
      3 N13        -0.0510   -2.9690    1.3860 n3        1 GB4     -0.190000
      4 O14        -0.8460   -2.9030    2.5110 oh        1 GB4     -0.240000
      5 C10         1.0930   -1.7870   -0.5740 c1        1 GB4     -0.133000
      6 C9          1.0270   -0.6800   -1.3550 c1        1 GB4     -0.133000
      7 C1          0.3620    0.5710   -0.8350 c1        1 GB4     -0.061000
      8 C6         -1.0070    0.7330   -0.9730 c2        1 GB4     -0.039000
      9 CL8        -1.9860   -0.5810   -1.5810 cl        1 GB4     -0.005000
     10 C5         -1.5990    1.9370   -0.6300 c1        1 GB4     -0.125000
     11 C2          1.1360    1.6120   -0.3530 c1        1 GB4     -0.094000
     12 C3          0.5450    2.8130   -0.0100 c1        1 GB4     -0.124000
     13 C4         -0.8240    2.9770   -0.1490 c1        1 GB4     -0.046000
     14 CL7        -1.5680    4.5030    0.2660 cl        1 GB4     -0.001000
     15 HN13        0.1620   -3.7830    1.0240 hn        1 GB4      0.217000
     16 HO14       -1.0860   -3.7320    2.7560 ho        1 GB4      0.233000
     17 H10         1.5210   -2.5910   -0.9090 ha        1 GB4      0.152000
     18 H9          1.4090   -0.6920   -2.2510 ha        1 GB4      0.152000
     19 H5         -2.5670    2.0520   -0.7280 ha        1 GB4      0.164000
     20 H2          2.1070    1.4980   -0.2550 ha        1 GB4      0.163000
     21 H3          1.0950    3.5510    0.3310 ha        1 GB4      0.156000
@<TRIPOS>BOND
     1    1    2 1   
     2    2    3 1   
     3    3    4 1   
     4    3   15 1   
     5    4   16 1   
     6    5    6 1   
     7    5   17 1   
     8    6   18 1   
     9    7    8 1   
    10    7   11 1   
    11    8    9 1   
    12    8   10 1   
    13   10   19 1   
    14   11   20 1   
    15   12   13 1   
    16   12   21 1   
    17   13   14 1   
@<TRIPOS>SUBSTRUCTURE
     1 GB4         1 TEMP              0 ****  ****    0 ROOT
