@<TRIPOS>MOLECULE
GB4
   21    21     1     0     0
SMALL
bcc


@<TRIPOS>ATOM
      1 O12        -2.5420    1.0440    4.2790 o         1 GB4     -0.563100
      2 C11        -2.7100    0.1250    3.4570 c         1 GB4      0.587300
      3 N13        -4.0380   -0.3360    3.1710 n         1 GB4     -0.343400
      4 O14        -4.9240   -0.0990    4.1420 oh        1 GB4     -0.438100
      5 C10        -1.6190   -0.4410    2.6350 ce        1 GB4     -0.237200
      6 C9         -0.3400   -0.1140    2.8790 cf        1 GB4     -0.021200
      7 C1          0.7850   -0.6230    2.1100 ca        1 GB4     -0.075800
      8 C6          2.0300   -0.8700    2.7170 ca        1 GB4      0.043400
      9 CL8         2.2590   -0.6170    4.3810 cl        1 GB4     -0.070400
     10 C5          3.1120   -1.3410    1.9670 ca        1 GB4     -0.125000
     11 C2          0.6530   -0.8590    0.7330 ca        1 GB4     -0.095000
     12 C3          1.7230   -1.3230   -0.0240 ca        1 GB4     -0.128000
     13 C4          2.9530   -1.5650    0.5970 ca        1 GB4      0.034400
     14 CL7         4.2650   -2.1340   -0.3170 cl        1 GB4     -0.075400
     15 HN13       -4.0660   -1.3310    2.9740 hn        1 GB4      0.295500
     16 HO14       -5.0630    0.8700    4.1470 ho        1 GB4      0.437000
     17 H10        -1.9020   -1.1340    1.8270 ha        1 GB4      0.141000
     18 H9         -0.0930    0.5790    3.7080 ha        1 GB4      0.167000
     19 H5          4.0820   -1.5330    2.4540 ha        1 GB4      0.166000
     20 H2         -0.3130   -0.6600    0.2420 ha        1 GB4      0.147000
     21 H3          1.6010   -1.4980   -1.1050 ha        1 GB4      0.155000
@<TRIPOS>BOND
     1    1    2 2   
     2    2    3 1   
     3    2    5 1   
     4    3    4 1   
     5    3   15 1   
     6    4   16 1   
     7    5    6 2   
     8    5   17 1   
     9    6    7 1   
    10    6   18 1   
    11    7    8 ar  
    12    7   11 ar  
    13    8    9 1   
    14    8   10 ar  
    15   10   13 ar  
    16   10   19 1   
    17   11   12 ar  
    18   11   20 1   
    19   12   13 ar  
    20   12   21 1   
    21   13   14 1   
@<TRIPOS>SUBSTRUCTURE
     1 GB4         1 TEMP              0 ****  ****    0 ROOT
