@<TRIPOS>MOLECULE
GB4
   22    22     1     0     0
SMALL
bcc


@<TRIPOS>ATOM
      1 O12         1.6330   -1.5020   -1.3290 o         1 GB4     -0.427100
      2 C11         1.8660   -0.4960   -0.6850 c         1 GB4      0.616300
      3 N13         1.5430   -0.7600    0.8490 ny        1 GB4     -0.484300
      4 O14         0.8330    0.2860    1.3180 oh        1 GB4     -0.354300
      5 C10         2.3440    0.8270   -0.9590 ce        1 GB4     -0.321200
      6 C9          2.6550    1.3200   -2.1850 cf        1 GB4      0.133800
      7 C1          2.6890    0.6720   -3.4720 ca        1 GB4     -0.165800
      8 C6          2.3070    1.3900   -4.6300 ca        1 GB4      0.074400
      9 Cl8         1.7170    2.9740   -4.5150 cl        1 GB4     -0.043400
     10 C5          2.3840    0.8010   -5.8930 ca        1 GB4     -0.130000
     11 C2          3.1640   -0.6410   -3.6300 ca        1 GB4     -0.056000
     12 C3          3.2580   -1.2290   -4.8850 ca        1 GB4     -0.132000
     13 C4          2.8620   -0.5090   -6.0200 ca        1 GB4      0.075400
     14 Cl7         2.9650   -1.2180   -7.5470 cl        1 GB4     -0.019400
     15 HN13        1.0140   -1.6470    0.9180 hn        1 GB4      0.456300
     16 HO14        0.4860    0.0670    2.2130 ho        1 GB4      0.466000
     17 H10         2.4010    1.5180   -0.0950 ha        1 GB4      0.180000
     18 H9          2.9180    2.4050   -2.2110 ha        1 GB4      0.177000
     19 H5          2.0710    1.3670   -6.7880 ha        1 GB4      0.185000
     20 H2          3.4860   -1.2140   -2.7460 ha        1 GB4      0.141000
     21 H3          3.6420   -2.2580   -4.9860 ha        1 GB4      0.172000
     22 H132        2.4340   -0.8500    1.3630 hn        1 GB4      0.456300
@<TRIPOS>BOND
     1    1    2 2   
     2    2    3 1   
     3    2    5 1   
     4    3    4 1   
     5    3   15 1   
     6    3   22 1   
     7    4   16 1   
     8    5    6 2   
     9    5   17 1   
    10    6    7 1   
    11    6   18 1   
    12    7    8 ar  
    13    7   11 ar  
    14    8    9 1   
    15    8   10 ar  
    16   10   13 ar  
    17   10   19 1   
    18   11   12 ar  
    19   11   20 1   
    20   12   13 ar  
    21   12   21 1   
    22   13   14 1   
@<TRIPOS>SUBSTRUCTURE
     1 GB4         1 TEMP              0 ****  ****    0 ROOT
