@<TRIPOS>MOLECULE
GB4
   22    22     1     0     0
SMALL
bcc


@<TRIPOS>ATOM
      1 O12         2.3580   -1.5380   -1.1030 o         1 GB4     -0.417100
      2 C11         2.0560   -0.4560   -0.6380 c         1 GB4      0.620300
      3 N13         2.4100   -0.4080    0.9090 n4        1 GB4     -0.484300
      4 O14         1.3010   -0.0300    1.5780 oh        1 GB4     -0.356300
      5 C10         1.4830    0.7660   -1.1310 ce        1 GB4     -0.322200
      6 C9          1.5190    1.1930   -2.4150 cf        1 GB4      0.125800
      7 C1          2.1090    0.5740   -3.5790 ca        1 GB4     -0.170800
      8 C6          2.8290    1.3630   -4.5040 ca        1 GB4      0.066400
      9 CL8         3.0980    3.0120   -4.2070 cl        1 GB4     -0.050400
     10 C5          3.3550    0.8000   -5.6670 ca        1 GB4     -0.127000
     11 C2          1.9190   -0.7870   -3.8670 ca        1 GB4     -0.062000
     12 C3          2.4250   -1.3530   -5.0300 ca        1 GB4     -0.130000
     13 C4          3.1490   -0.5600   -5.9310 ca        1 GB4      0.070400
     14 CL7         3.7740   -1.2410   -7.3420 cl        1 GB4     -0.021400
     15 HN13        3.1700    0.2770    1.0520 hn        1 GB4      0.457300
     16 HO14        1.4580   -0.1210    2.5450 ho        1 GB4      0.468000
     17 H10         0.9640    1.3910   -0.3770 ha        1 GB4      0.187000
     18 H9          1.0490    2.1860   -2.6120 ha        1 GB4      0.179000
     19 H5          3.9240    1.4240   -6.3780 ha        1 GB4      0.184000
     20 H2          1.3380   -1.4170   -3.1730 ha        1 GB4      0.152000
     21 H3          2.2550   -2.4210   -5.2430 ha        1 GB4      0.173000
     22 H132        2.7300   -1.3500    1.2000 hn        1 GB4      0.457300
@<TRIPOS>BOND
     1    1    2 2   
     2    2    3 1   
     3    2    5 1   
     4    3    4 1   
     5    3   15 1   
     6    3   22 1   
     7    4   16 1   
     8    5    6 2   
     9    5   17 1   
    10    6    7 1   
    11    6   18 1   
    12    7    8 ar  
    13    7   11 ar  
    14    8    9 1   
    15    8   10 ar  
    16   10   13 ar  
    17   10   19 1   
    18   11   12 ar  
    19   11   20 1   
    20   12   13 ar  
    21   12   21 1   
    22   13   14 1   
@<TRIPOS>SUBSTRUCTURE
     1 GB4         1 TEMP              0 ****  ****    0 ROOT
