@<TRIPOS>MOLECULE
GB5
   21    21     1     0     0
SMALL
bcc


@<TRIPOS>ATOM
      1 O12         1.9320   -1.3150   -4.3890 o         1 GB5     -0.569100
      2 C11         0.8760   -1.0020   -3.8090 c         1 GB5      0.589300
      3 N13        -0.3240   -0.8190   -4.5740 n         1 GB5     -0.343400
      4 O14        -0.1170   -0.5120   -5.8570 oh        1 GB5     -0.439100
      5 C10         0.7450   -0.9410   -2.3380 ce        1 GB5     -0.245200
      6 C9          1.8210   -1.1140   -1.5530 cf        1 GB5     -0.016200
      7 C1          1.8140   -1.0710   -0.1020 ca        1 GB5     -0.083800
      8 C2          0.7470   -0.5260    0.6260 ca        1 GB5     -0.096000
      9 C3          0.7750   -0.5000    2.0180 ca        1 GB5     -0.129500
     10 C4          1.8780   -1.0250    2.6980 ca        1 GB5      0.031400
     11 CL1         1.9160   -0.9990    4.3950 cl        1 GB5     -0.084400
     12 C5          2.9530   -1.5700    1.9870 ca        1 GB5     -0.129500
     13 C6          2.9190   -1.5880    0.5960 ca        1 GB5     -0.096000
     14 HN13       -0.9240   -0.1000   -4.1840 hn        1 GB5      0.294500
     15 HO14        0.2420   -1.3220   -6.2720 ho        1 GB5      0.437000
     16 H10        -0.2610   -0.7620   -1.9290 ha        1 GB5      0.140000
     17 H9          2.8070   -1.3150   -2.0200 ha        1 GB5      0.154000
     18 H2         -0.1240   -0.1050    0.0990 ha        1 GB5      0.141500
     19 H3         -0.0690   -0.0680    2.5790 ha        1 GB5      0.151500
     20 H5          3.8220   -1.9820    2.5220 ha        1 GB5      0.151500
     21 H6          3.7660   -2.0150    0.0370 ha        1 GB5      0.141500
@<TRIPOS>BOND
     1    1    2 2   
     2    2    3 1   
     3    2    5 1   
     4    3    4 1   
     5    3   14 1   
     6    4   15 1   
     7    5    6 2   
     8    5   16 1   
     9    6    7 1   
    10    6   17 1   
    11    7    8 ar  
    12    7   13 ar  
    13    8    9 ar  
    14    8   18 1   
    15    9   10 ar  
    16    9   19 1   
    17   10   11 1   
    18   10   12 ar  
    19   12   13 ar  
    20   12   20 1   
    21   13   21 1   
@<TRIPOS>SUBSTRUCTURE
     1 GB5         1 TEMP              0 ****  ****    0 ROOT
