@<TRIPOS>MOLECULE
GB5
   22    22     1     0     0
SMALL
bcc


@<TRIPOS>ATOM
      1 O12         1.4400   -1.4740   -1.2980 o         1 GB5     -0.429100
      2 C11         1.6400   -0.4260   -0.7140 c         1 GB5      0.622300
      3 N13         1.5740   -0.6720    0.8570 n4        1 GB5     -0.485300
      4 O14         0.7370    0.2400    1.3900 oh        1 GB5     -0.356300
      5 C10         1.9390    0.9290   -1.0660 ce        1 GB5     -0.335200
      6 C9          2.3630    1.3730   -2.2760 cf        1 GB5      0.134800
      7 C1          2.6150    0.6800   -3.5110 ca        1 GB5     -0.174800
      8 C2          3.6530    1.1670   -4.3360 ca        1 GB5     -0.059500
      9 C3          3.9430    0.5560   -5.5470 ca        1 GB5     -0.135000
     10 C4          3.1770   -0.5390   -5.9760 ca        1 GB5      0.073400
     11 CL1         3.5210   -1.2800   -7.4530 cl        1 GB5     -0.027400
     12 C5          2.1220   -1.0110   -5.1850 ca        1 GB5     -0.135000
     13 C6          1.8480   -0.4070   -3.9620 ca        1 GB5     -0.059500
     14 HN13        1.2400   -1.6390    1.0180 hn        1 GB5      0.455800
     15 HO14        0.5670    0.0150    2.3330 ho        1 GB5      0.466000
     16 H10         1.8010    1.6790   -0.2610 ha        1 GB5      0.181000
     17 H9          2.5940    2.4650   -2.3220 ha        1 GB5      0.166000
     18 H2          4.2490    2.0350   -4.0110 ha        1 GB5      0.150000
     19 H3          4.7670    0.9350   -6.1740 ha        1 GB5      0.171500
     20 H5          1.5060   -1.8580   -5.5290 ha        1 GB5      0.171500
     21 H6          0.9990   -0.7770   -3.3660 ha        1 GB5      0.150000
     22 H132        2.5230   -0.5640    1.2480 hn        1 GB5      0.455800
@<TRIPOS>BOND
     1    1    2 2   
     2    2    3 1   
     3    2    5 1   
     4    3    4 1   
     5    3   14 1   
     6    3   22 1   
     7    4   15 1   
     8    5    6 2   
     9    5   16 1   
    10    6    7 1   
    11    6   17 1   
    12    7    8 ar  
    13    7   13 ar  
    14    8    9 ar  
    15    8   18 1   
    16    9   10 ar  
    17    9   19 1   
    18   10   11 1   
    19   10   12 ar  
    20   12   13 ar  
    21   12   20 1   
    22   13   21 1   
@<TRIPOS>SUBSTRUCTURE
     1 GB5         1 TEMP              0 ****  ****    0 ROOT
