@<TRIPOS>MOLECULE
GB5
   22    22     1     0     0
SMALL
bcc


@<TRIPOS>ATOM
      1 O12         1.3490   -1.4660   -1.3540 o         1 GB5     -0.429100
      2 C11         1.6000   -0.4480   -0.7360 c         1 GB5      0.622300
      3 N13         1.5110   -0.7410    0.8270 n4        1 GB5     -0.485300
      4 O14         0.7180    0.1960    1.3850 oh        1 GB5     -0.356300
      5 C10         1.9710    0.9000   -1.0420 ce        1 GB5     -0.335200
      6 C9          2.4270    1.3600   -2.2350 cf        1 GB5      0.134800
      7 C1          2.6530    0.6930   -3.4890 ca        1 GB5     -0.174800
      8 C2          3.7220    1.1520   -4.2900 ca        1 GB5     -0.059500
      9 C3          3.9900    0.5650   -5.5190 ca        1 GB5     -0.135000
     10 C4          3.1720   -0.4740   -5.9880 ca        1 GB5      0.073400
     11 CL1         3.4910   -1.1850   -7.4850 cl        1 GB5     -0.027400
     12 C5          2.0880   -0.9160   -5.2190 ca        1 GB5     -0.135000
     13 C6          1.8350   -0.3380   -3.9800 ca        1 GB5     -0.059500
     14 HN13        1.1270   -1.6940    0.9550 hn        1 GB5      0.455800
     15 HO14        0.5310   -0.0510    2.3190 ho        1 GB5      0.466000
     16 H10         1.8650    1.6290   -0.2140 ha        1 GB5      0.181000
     17 H9          2.7130    2.4390   -2.2440 ha        1 GB5      0.166000
     18 H2          4.3590    1.9780   -3.9340 ha        1 GB5      0.150000
     19 H3          4.8380    0.9210   -6.1280 ha        1 GB5      0.171500
     20 H5          1.4320   -1.7190   -5.5950 ha        1 GB5      0.171500
     21 H6          0.9630   -0.6810   -3.4010 ha        1 GB5      0.150000
     22 H132        2.4620   -0.6940    1.2260 hn        1 GB5      0.455800
@<TRIPOS>BOND
     1    1    2 2   
     2    2    3 1   
     3    2    5 1   
     4    3    4 1   
     5    3   14 1   
     6    3   22 1   
     7    4   15 1   
     8    5    6 2   
     9    5   16 1   
    10    6    7 1   
    11    6   17 1   
    12    7    8 ar  
    13    7   13 ar  
    14    8    9 ar  
    15    8   18 1   
    16    9   10 ar  
    17    9   19 1   
    18   10   11 1   
    19   10   12 ar  
    20   12   13 ar  
    21   12   20 1   
    22   13   21 1   
@<TRIPOS>SUBSTRUCTURE
     1 GB5         1 TEMP              0 ****  ****    0 ROOT
