@<TRIPOS>MOLECULE
GB5
   21    17     1     0     0
SMALL
bcc


@<TRIPOS>ATOM
      1 O12        -0.2900    1.4910    1.0450 o         1 GB5     -0.317000
      2 C11         0.9350    1.4950    1.0220 c1        1 GB5      0.262000
      3 N13         1.6790    1.5710    2.2570 n3        1 GB5     -0.189000
      4 O14         1.0680    2.0230    3.3940 oh        1 GB5     -0.243000
      5 C10         1.6790    1.3700   -0.3190 c1        1 GB5     -0.132500
      6 C9          1.2300    0.5080   -1.2640 c1        1 GB5     -0.132500
      7 C1          0.0100   -0.3190   -1.0030 c1        1 GB5     -0.082000
      8 C2          0.1430   -1.6190   -0.5420 c1        1 GB5     -0.104000
      9 C3         -0.9720   -2.4370   -0.4450 c1        1 GB5     -0.126000
     10 C4         -2.2270   -1.9510   -0.8100 c1        1 GB5     -0.052000
     11 CL1        -3.6240   -2.9940   -0.7310 cl        1 GB5     -0.004000
     12 C5         -2.3590   -0.6530   -1.2700 c1        1 GB5     -0.120000
     13 C6         -1.2450    0.1640   -1.3680 c2        1 GB5     -0.114000
     14 HN13        2.5570    1.2710    2.2890 hn        1 GB5      0.218000
     15 HO14        1.6780    2.2530    3.9820 ho        1 GB5      0.233000
     16 H10         2.4780    1.9130   -0.4900 ha        1 GB5      0.151000
     17 H9          1.6990    0.4290   -2.1130 ha        1 GB5      0.151000
     18 H2          1.0270   -1.9600   -0.2850 ha        1 GB5      0.142000
     19 H3         -0.8800   -3.3450   -0.1230 ha        1 GB5      0.152000
     20 H5         -3.2450   -0.3090   -1.5280 ha        1 GB5      0.156000
     21 H6         -1.3420    1.0990   -1.6990 ha        1 GB5      0.151000
@<TRIPOS>BOND
     1    1    2 1   
     2    2    3 1   
     3    3    4 1   
     4    3   14 1   
     5    4   15 1   
     6    5    6 1   
     7    5   16 1   
     8    6   17 1   
     9    7    8 1   
    10    7   13 1   
    11    8   18 1   
    12    9   10 1   
    13    9   19 1   
    14   10   11 1   
    15   12   13 1   
    16   12   20 1   
    17   13   21 1   
@<TRIPOS>SUBSTRUCTURE
     1 GB5         1 TEMP              0 ****  ****    0 ROOT
