@<TRIPOS>MOLECULE
GB6
   38    39     1     0     0
SMALL
bcc


@<TRIPOS>ATOM
      1 C15         0.1810   -0.4950    0.1820 ca        1 GB6     -0.111500
      2 C14         1.5720   -0.4880    0.2860 ca        1 GB6     -0.113500
      3 C13         2.1880    0.0440    1.4200 ca        1 GB6     -0.081000
      4 C12         1.4110    0.5740    2.4530 ca        1 GB6     -0.113500
      5 C11         0.0220    0.5760    2.3510 ca        1 GB6     -0.111500
      6 C10        -0.5980    0.0410    1.2140 ca        1 GB6     -0.188300
      7 C8         -2.0900    0.0520    1.0750 c3        1 GB6      0.156800
      8 C9         -2.6630    1.4900    1.0590 c3        1 GB6      0.117400
      9 O9         -2.7210    2.0170    2.3650 oh        1 GB6     -0.607800
     10 N7         -2.7070   -0.7690    2.1850 n4        1 GB6     -0.754000
     11 C6         -4.1110   -1.1660    1.9020 c3        1 GB6      0.097800
     12 C5         -4.6570   -2.2110    2.9040 c3        1 GB6      0.035700
     13 N1         -4.4260   -1.8340    4.2870 n         1 GB6     -0.567900
     14 C2         -5.6500   -1.6940    4.9820 c         1 GB6      0.649500
     15 O2         -5.7370   -1.5000    6.1940 o         1 GB6     -0.538500
     16 C3         -6.8330   -1.8010    4.0060 c3        1 GB6      0.036100
     17 O3         -7.7810   -2.7410    4.4470 oh        1 GB6     -0.581800
     18 C4         -6.2120   -2.3140    2.6840 c3        1 GB6      0.156100
     19 O4         -6.4630   -3.6660    2.3910 oh        1 GB6     -0.589800
     20 H15        -0.2940   -0.9140   -0.7190 ha        1 GB6      0.140000
     21 H14         2.1840   -0.9030   -0.5310 ha        1 GB6      0.161000
     22 H13         3.2870    0.0470    1.5010 ha        1 GB6      0.163000
     23 H12         1.8970    0.9960    3.3470 ha        1 GB6      0.161000
     24 H11        -0.5840    1.0100    3.1620 ha        1 GB6      0.140000
     25 H8         -2.3820   -0.4410    0.0970 hx        1 GB6      0.106700
     26 H9         -3.7240    1.4710    0.6860 h1        1 GB6      0.086200
     27 H9A        -2.0320    2.1070    0.3680 h1        1 GB6      0.086200
     28 HO9        -1.9980    2.6500    2.4730 ho        1 GB6      0.439000
     29 HN7        -2.6860   -0.1960    3.0450 hn        1 GB6      0.461300
     30 H6         -4.7360   -0.2270    1.9280 hx        1 GB6      0.109700
     31 H6A        -4.1640   -1.6180    0.8710 hx        1 GB6      0.109700
     32 H5         -4.1950   -3.2150    2.6690 h1        1 GB6      0.099700
     33 HN1        -3.6850   -2.2970    4.7670 hn        1 GB6      0.317500
     34 H3         -7.3080   -0.7910    3.8730 h1        1 GB6      0.090700
     35 HO3        -8.0340   -2.4980    5.3510 ho        1 GB6      0.453000
     36 H4         -6.5500   -1.6830    1.8200 h1        1 GB6      0.066700
     37 HO4        -7.3460   -3.8990    2.7160 ho        1 GB6      0.458000
     38 H72        -2.1310   -1.6030    2.3380 hn        1 GB6      0.461300
@<TRIPOS>BOND
     1    1    2 ar  
     2    1    6 ar  
     3    1   20 1   
     4    2    3 ar  
     5    2   21 1   
     6    3    4 ar  
     7    3   22 1   
     8    4    5 ar  
     9    4   23 1   
    10    5    6 ar  
    11    5   24 1   
    12    6    7 1   
    13    7    8 1   
    14    7   10 1   
    15    7   25 1   
    16    8    9 1   
    17    8   26 1   
    18    8   27 1   
    19    9   28 1   
    20   10   11 1   
    21   10   29 1   
    22   10   38 1   
    23   11   12 1   
    24   11   30 1   
    25   11   31 1   
    26   12   13 1   
    27   12   18 1   
    28   12   32 1   
    29   13   14 1   
    30   13   33 1   
    31   14   15 2   
    32   14   16 1   
    33   16   17 1   
    34   16   18 1   
    35   16   34 1   
    36   17   35 1   
    37   18   19 1   
    38   18   36 1   
    39   19   37 1   
@<TRIPOS>SUBSTRUCTURE
     1 GB6         1 TEMP              0 ****  ****    0 ROOT
