@<TRIPOS>MOLECULE
GB6
   37    38     1     0     0
SMALL
bcc


@<TRIPOS>ATOM
      1 C15        -3.0750    1.0980   -1.3000 ca        1 GB6     -0.116000
      2 C14        -3.9530    2.0480   -0.7800 ca        1 GB6     -0.133000
      3 C13        -4.3880    1.9490    0.5420 ca        1 GB6     -0.124000
      4 C12        -3.9480    0.8940    1.3410 ca        1 GB6     -0.133000
      5 C11        -3.0720   -0.0590    0.8220 ca        1 GB6     -0.116000
      6 C10        -2.6290    0.0400   -0.5010 ca        1 GB6     -0.129300
      7 C8         -1.6770   -0.9850   -1.0720 c3        1 GB6      0.225800
      8 C9         -2.3690   -2.3670   -1.1280 c3        1 GB6      0.135400
      9 O9         -2.4890   -2.8800    0.1890 oh        1 GB6     -0.608800
     10 N7         -0.3810   -1.0760   -0.4120 n3        1 GB6     -0.819200
     11 C6          0.3370    0.1800   -0.3520 c3        1 GB6      0.142800
     12 C5          1.7060    0.0380    0.3500 c3        1 GB6      0.051700
     13 N1          2.5990   -0.9350   -0.2530 n         1 GB6     -0.542900
     14 C2          3.7460   -0.3570   -0.7640 c         1 GB6      0.650500
     15 O2          4.6450   -0.9550   -1.3760 o         1 GB6     -0.623500
     16 C3          3.7920    1.1400   -0.3980 c3        1 GB6      0.029100
     17 O3          4.8510    1.4170    0.4920 oh        1 GB6     -0.585800
     18 C4          2.4500    1.4190    0.3250 c3        1 GB6      0.144100
     19 O4          2.5940    1.9340    1.6220 oh        1 GB6     -0.575800
     20 H15        -2.7350    1.1830   -2.3430 ha        1 GB6      0.139500
     21 H14        -4.3010    2.8770   -1.4130 ha        1 GB6      0.133000
     22 H13        -5.0780    2.7010    0.9520 ha        1 GB6      0.132000
     23 H12        -4.2920    0.8110    2.3820 ha        1 GB6      0.133000
     24 H11        -2.7410   -0.9070    1.4430 ha        1 GB6      0.139500
     25 H8         -1.4650   -0.7030   -2.1500 h1        1 GB6      0.062700
     26 H9         -3.3880   -2.2420   -1.5820 h1        1 GB6      0.035200
     27 H9A        -1.7600   -3.0690   -1.7580 h1        1 GB6      0.035200
     28 HO9        -2.8500   -3.7700    0.1040 ho        1 GB6      0.406000
     29 HN7        -0.4930   -1.4680    0.5060 hn        1 GB6      0.375800
     30 H6          0.4920    0.5390   -1.4090 h1        1 GB6      0.047200
     31 H6A        -0.2320    0.9840    0.2000 h1        1 GB6      0.047200
     32 H5          1.5350   -0.2620    1.4260 h1        1 GB6      0.075700
     33 HN1         2.2460   -1.8020   -0.5780 hn        1 GB6      0.340500
     34 H3          3.8970    1.7530   -1.3310 h1        1 GB6      0.077700
     35 HO3         5.6460    1.0160    0.1110 ho        1 GB6      0.431000
     36 H4          1.8500    2.1900   -0.2290 h1        1 GB6      0.090700
     37 HO4         3.3220    1.4660    2.0560 ho        1 GB6      0.426000
@<TRIPOS>BOND
     1    1    2 ar  
     2    1    6 ar  
     3    1   20 1   
     4    2    3 ar  
     5    2   21 1   
     6    3    4 ar  
     7    3   22 1   
     8    4    5 ar  
     9    4   23 1   
    10    5    6 ar  
    11    5   24 1   
    12    6    7 1   
    13    7    8 1   
    14    7   10 1   
    15    7   25 1   
    16    8    9 1   
    17    8   26 1   
    18    8   27 1   
    19    9   28 1   
    20   10   11 1   
    21   10   29 1   
    22   11   12 1   
    23   11   30 1   
    24   11   31 1   
    25   12   13 1   
    26   12   18 1   
    27   12   32 1   
    28   13   14 1   
    29   13   33 1   
    30   14   15 2   
    31   14   16 1   
    32   16   17 1   
    33   16   18 1   
    34   16   34 1   
    35   17   35 1   
    36   18   19 1   
    37   18   36 1   
    38   19   37 1   
@<TRIPOS>SUBSTRUCTURE
     1 GB6         1 TEMP              0 ****  ****    0 ROOT
