@<TRIPOS>MOLECULE
GB6
   38    39     1     0     0
SMALL
bcc


@<TRIPOS>ATOM
      1 C15         0.1770   -0.4820    0.1830 ca        1 GB6     -0.111500
      2 C14         1.5680   -0.4750    0.2870 ca        1 GB6     -0.113500
      3 C13         2.1830    0.0510    1.4240 ca        1 GB6     -0.081000
      4 C12         1.4060    0.5750    2.4600 ca        1 GB6     -0.113500
      5 C11         0.0170    0.5760    2.3580 ca        1 GB6     -0.111500
      6 C10        -0.6030    0.0470    1.2180 ca        1 GB6     -0.188300
      7 C8         -2.0950    0.0580    1.0790 c3        1 GB6      0.156800
      8 C9         -2.6690    1.4960    1.0740 c3        1 GB6      0.117400
      9 O9         -2.7280    2.0130    2.3830 oh        1 GB6     -0.607800
     10 N7         -2.7110   -0.7710    2.1850 n4        1 GB6     -0.754000
     11 C6         -4.1160   -1.1630    1.9010 c3        1 GB6      0.097800
     12 C5         -4.6610   -2.2170    2.8950 c3        1 GB6      0.035700
     13 N1         -4.4250   -1.8540    4.2810 n         1 GB6     -0.567900
     14 C2         -5.6470   -1.7180    4.9800 c         1 GB6      0.649500
     15 O2         -5.7300   -1.5360    6.1950 o         1 GB6     -0.538500
     16 C3         -6.8340   -1.8140    4.0070 c3        1 GB6      0.036100
     17 O3         -7.7820   -2.7570    4.4410 oh        1 GB6     -0.581800
     18 C4         -6.2170   -2.3150    2.6780 c3        1 GB6      0.156100
     19 O4         -6.4710   -3.6630    2.3720 oh        1 GB6     -0.589800
     20 H15        -0.2990   -0.8970   -0.7200 ha        1 GB6      0.140000
     21 H14         2.1800   -0.8850   -0.5320 ha        1 GB6      0.161000
     22 H13         3.2830    0.0550    1.5040 ha        1 GB6      0.163000
     23 H12         1.8920    0.9920    3.3570 ha        1 GB6      0.161000
     24 H11        -0.5890    1.0050    3.1720 ha        1 GB6      0.140000
     25 H8         -2.3870   -0.4290    0.0990 hx        1 GB6      0.106700
     26 H9         -2.0380    2.1180    0.3870 h1        1 GB6      0.086200
     27 H9A        -3.7300    1.4780    0.7000 h1        1 GB6      0.086200
     28 HO9        -2.0080    2.6470    2.4950 ho        1 GB6      0.439000
     29 HN7        -2.6870   -0.2050    3.0490 hn        1 GB6      0.461300
     30 H6         -4.1730   -1.6060    0.8660 hx        1 GB6      0.109200
     31 H6A        -4.7390   -0.2240    1.9370 hx        1 GB6      0.109200
     32 H5         -4.2020   -3.2200    2.6480 h1        1 GB6      0.099700
     33 HN1        -3.6840   -2.3220    4.7540 hn        1 GB6      0.317500
     34 H3         -7.3080   -0.8020    3.8850 h1        1 GB6      0.090700
     35 HO3        -8.0320   -2.5220    5.3490 ho        1 GB6      0.453000
     36 H4         -6.5570   -1.6750    1.8210 h1        1 GB6      0.066700
     37 HO4        -7.3540   -3.8990    2.6980 ho        1 GB6      0.458000
     38 H72        -2.1350   -1.6070    2.3290 hn        1 GB6      0.461300
@<TRIPOS>BOND
     1    1    2 ar  
     2    1    6 ar  
     3    1   20 1   
     4    2    3 ar  
     5    2   21 1   
     6    3    4 ar  
     7    3   22 1   
     8    4    5 ar  
     9    4   23 1   
    10    5    6 ar  
    11    5   24 1   
    12    6    7 1   
    13    7    8 1   
    14    7   10 1   
    15    7   25 1   
    16    8    9 1   
    17    8   26 1   
    18    8   27 1   
    19    9   28 1   
    20   10   11 1   
    21   10   29 1   
    22   10   38 1   
    23   11   12 1   
    24   11   30 1   
    25   11   31 1   
    26   12   13 1   
    27   12   18 1   
    28   12   32 1   
    29   13   14 1   
    30   13   33 1   
    31   14   15 2   
    32   14   16 1   
    33   16   17 1   
    34   16   18 1   
    35   16   34 1   
    36   17   35 1   
    37   18   19 1   
    38   18   36 1   
    39   19   37 1   
@<TRIPOS>SUBSTRUCTURE
     1 GB6         1 TEMP              0 ****  ****    0 ROOT
