@<TRIPOS>MOLECULE
GB6
   38    39     1     0     0
SMALL
bcc


@<TRIPOS>ATOM
      1 C15         0.1830   -0.5020    0.1830 ca        1 GB6     -0.111500
      2 C14         1.5740   -0.4950    0.2890 ca        1 GB6     -0.113500
      3 C13         2.1880    0.0410    1.4210 ca        1 GB6     -0.081000
      4 C12         1.4110    0.5750    2.4510 ca        1 GB6     -0.113500
      5 C11         0.0220    0.5760    2.3480 ca        1 GB6     -0.111500
      6 C10        -0.5970    0.0370    1.2120 ca        1 GB6     -0.188300
      7 C8         -2.0890    0.0470    1.0720 c3        1 GB6      0.156800
      8 C9         -2.6620    1.4860    1.0520 c3        1 GB6      0.117400
      9 O9         -2.7210    2.0160    2.3560 oh        1 GB6     -0.607800
     10 N7         -2.7070   -0.7700    2.1850 ny        1 GB6     -0.754000
     11 C6         -4.1110   -1.1670    1.9020 c3        1 GB6      0.097800
     12 C5         -4.6580   -2.2080    2.9070 c3        1 GB6      0.035700
     13 N1         -4.4260   -1.8290    4.2890 ns        1 GB6     -0.567900
     14 C2         -5.6500   -1.6870    4.9840 c         1 GB6      0.649500
     15 O2         -5.7360   -1.4900    6.1960 o         1 GB6     -0.538500
     16 C3         -6.8340   -1.7940    4.0080 c3        1 GB6      0.036100
     17 O3         -7.7820   -2.7330    4.4520 oh        1 GB6     -0.581800
     18 C4         -6.2130   -2.3110    2.6870 c3        1 GB6      0.156100
     19 O4         -6.4650   -3.6630    2.3970 oh        1 GB6     -0.589800
     20 H15        -0.2920   -0.9250   -0.7160 ha        1 GB6      0.140000
     21 H14         2.1860   -0.9130   -0.5270 ha        1 GB6      0.161000
     22 H13         3.2880    0.0440    1.5030 ha        1 GB6      0.163000
     23 H12         1.8960    0.9990    3.3450 ha        1 GB6      0.161000
     24 H11        -0.5850    1.0130    3.1570 ha        1 GB6      0.140000
     25 H8         -2.3810   -0.4480    0.0960 hx        1 GB6      0.106700
     26 H9         -3.7230    1.4650    0.6770 h1        1 GB6      0.086200
     27 H9A        -2.0300    2.1010    0.3590 h1        1 GB6      0.086200
     28 HO9        -2.0000    2.6500    2.4620 ho        1 GB6      0.439000
     29 HN7        -2.6850   -0.1950    3.0430 hn        1 GB6      0.461300
     30 H6         -4.7350   -0.2270    1.9260 hx        1 GB6      0.109200
     31 H6A        -4.1650   -1.6210    0.8720 hx        1 GB6      0.109200
     32 H5         -4.1970   -3.2140    2.6730 h1        1 GB6      0.099700
     33 HN1        -3.6860   -2.2920    4.7700 hn        1 GB6      0.317500
     34 H3         -7.3080   -0.7850    3.8740 h1        1 GB6      0.090700
     35 HO3        -8.0350   -2.4890    5.3550 ho        1 GB6      0.453000
     36 H4         -6.5510   -1.6810    1.8220 h1        1 GB6      0.066700
     37 HO4        -7.3480   -3.8950    2.7230 ho        1 GB6      0.458000
     38 H72        -2.1310   -1.6040    2.3400 hn        1 GB6      0.461300
@<TRIPOS>BOND
     1    1    2 ar  
     2    1    6 ar  
     3    1   20 1   
     4    2    3 ar  
     5    2   21 1   
     6    3    4 ar  
     7    3   22 1   
     8    4    5 ar  
     9    4   23 1   
    10    5    6 ar  
    11    5   24 1   
    12    6    7 1   
    13    7    8 1   
    14    7   10 1   
    15    7   25 1   
    16    8    9 1   
    17    8   26 1   
    18    8   27 1   
    19    9   28 1   
    20   10   11 1   
    21   10   29 1   
    22   10   38 1   
    23   11   12 1   
    24   11   30 1   
    25   11   31 1   
    26   12   13 1   
    27   12   18 1   
    28   12   32 1   
    29   13   14 1   
    30   13   33 1   
    31   14   15 2   
    32   14   16 1   
    33   16   17 1   
    34   16   18 1   
    35   16   34 1   
    36   17   35 1   
    37   18   19 1   
    38   18   36 1   
    39   19   37 1   
@<TRIPOS>SUBSTRUCTURE
     1 GB6         1 TEMP              0 ****  ****    0 ROOT
