@<TRIPOS>MOLECULE
GB7
   41    42     1     0     0
SMALL
bcc


@<TRIPOS>ATOM
      1 C11         0.2150   -0.4850    0.2190 ca        1 GB7     -0.111500
      2 C12         1.6040   -0.4420    0.3390 ca        1 GB7     -0.114000
      3 C13         2.1940    0.1760    1.4420 ca        1 GB7     -0.081000
      4 C14         1.3930    0.7570    2.4280 ca        1 GB7     -0.114000
      5 C15         0.0050    0.7230    2.3100 ca        1 GB7     -0.111500
      6 C10        -0.5890    0.1020    1.2040 ca        1 GB7     -0.187300
      7 C8         -2.0790    0.0720    1.0460 c3        1 GB7      0.156800
      8 C9         -2.6790    1.4940    0.9300 c3        1 GB7      0.117400
      9 O9         -2.7650    2.1040    2.1980 oh        1 GB7     -0.607800
     10 N7         -2.6940   -0.6880    2.1990 n4        1 GB7     -0.753000
     11 C6         -4.0900   -1.1200    1.9300 c3        1 GB7      0.098800
     12 C5         -4.6280   -2.1220    2.9800 c3        1 GB7      0.037700
     13 N1         -4.4260   -1.6700    4.3510 n         1 GB7     -0.471800
     14 C1         -3.3460   -2.2480    5.1050 c3        1 GB7      0.052300
     15 C2         -5.6790   -1.4770    4.9930 c         1 GB7      0.652500
     16 O2         -5.8160   -1.1910    6.1830 o         1 GB7     -0.542500
     17 C3         -6.8310   -1.6490    3.9900 c3        1 GB7      0.037100
     18 O3         -7.8060   -2.5410    4.4710 oh        1 GB7     -0.581800
     19 C4         -6.1740   -2.2670    2.7340 c3        1 GB7      0.155100
     20 O4         -6.4020   -3.6430    2.5580 oh        1 GB7     -0.589800
     21 H11        -0.2400   -0.9730   -0.6570 ha        1 GB7      0.139000
     22 H12         2.2350   -0.8980   -0.4410 ha        1 GB7      0.161000
     23 H13         3.2920    0.2080    1.5350 ha        1 GB7      0.163000
     24 H14         1.8580    1.2470    3.2980 ha        1 GB7      0.161000
     25 H15        -0.6200    1.1970    3.0830 ha        1 GB7      0.139000
     26 H8         -2.3480   -0.4880    0.0990 hx        1 GB7      0.106700
     27 H9         -2.0520    2.0780    0.2070 h1        1 GB7      0.085700
     28 H9A        -3.7350    1.4290    0.5470 h1        1 GB7      0.085700
     29 HO9        -2.0570    2.7580    2.2720 ho        1 GB7      0.439000
     30 HN7        -2.6880   -0.0660    3.0240 hn        1 GB7      0.462300
     31 H6         -4.7290   -0.1910    1.9050 hx        1 GB7      0.107700
     32 H6A        -4.1300   -1.6250    0.9230 hx        1 GB7      0.107700
     33 H5         -4.1410   -3.1280    2.8080 h1        1 GB7      0.102700
     34 H1         -2.3730   -1.8290    4.7340 h1        1 GB7      0.057033
     35 H1A        -3.3130   -3.3680    5.0170 h1        1 GB7      0.057033
     36 H1B        -3.4680   -1.9720    6.1890 h1        1 GB7      0.057033
     37 H3         -7.2900   -0.6470    3.7650 h1        1 GB7      0.089700
     38 HO3        -8.0710   -2.2360    5.3530 ho        1 GB7      0.452000
     39 H4         -6.5010   -1.7210    1.8090 h1        1 GB7      0.065700
     40 HO4        -7.2930   -3.8570    2.8760 ho        1 GB7      0.457000
     41 H72        -2.1100   -1.5050    2.4090 hn        1 GB7      0.462300
@<TRIPOS>BOND
     1    1    2 ar  
     2    1    6 ar  
     3    1   21 1   
     4    2    3 ar  
     5    2   22 1   
     6    3    4 ar  
     7    3   23 1   
     8    4    5 ar  
     9    4   24 1   
    10    5    6 ar  
    11    5   25 1   
    12    6    7 1   
    13    7    8 1   
    14    7   10 1   
    15    7   26 1   
    16    8    9 1   
    17    8   27 1   
    18    8   28 1   
    19    9   29 1   
    20   10   11 1   
    21   10   30 1   
    22   10   41 1   
    23   11   12 1   
    24   11   31 1   
    25   11   32 1   
    26   12   13 1   
    27   12   19 1   
    28   12   33 1   
    29   13   14 1   
    30   13   15 1   
    31   14   34 1   
    32   14   35 1   
    33   14   36 1   
    34   15   16 2   
    35   15   17 1   
    36   17   18 1   
    37   17   19 1   
    38   17   37 1   
    39   18   38 1   
    40   19   20 1   
    41   19   39 1   
    42   20   40 1   
@<TRIPOS>SUBSTRUCTURE
     1 GB7         1 TEMP              0 ****  ****    0 ROOT
