@<TRIPOS>MOLECULE
GB7
   40    41     1     0     0
SMALL
bcc


@<TRIPOS>ATOM
      1 C11        -3.9740    1.3630   -0.6010 ca        1 GB7     -0.110000
      2 C12        -5.2050    1.5370    0.0290 ca        1 GB7     -0.136500
      3 C13        -5.5720    0.7080    1.0890 ca        1 GB7     -0.122000
      4 C14        -4.7070   -0.3000    1.5150 ca        1 GB7     -0.136500
      5 C15        -3.4760   -0.4790    0.8850 ca        1 GB7     -0.110000
      6 C10        -3.1050    0.3530   -0.1770 ca        1 GB7     -0.110300
      7 C8         -1.7720    0.1740   -0.8610 c3        1 GB7      0.245800
      8 C9         -1.7270   -1.1820   -1.6070 c3        1 GB7      0.136400
      9 O9         -1.7450   -2.2490   -0.6760 oh        1 GB7     -0.588800
     10 N7         -0.6530    0.3220    0.0590 n3        1 GB7     -0.841200
     11 C6          0.5170    0.9480   -0.5050 c3        1 GB7      0.167800
     12 C5          1.7910    0.6670    0.3280 c3        1 GB7      0.067700
     13 N1          2.2330   -0.7170    0.3240 n         1 GB7     -0.459800
     14 C1          1.4210   -1.7870    0.8090 c3        1 GB7      0.095300
     15 C2          3.5090   -0.8700   -0.1830 c         1 GB7      0.655500
     16 O2          4.1430   -1.9350   -0.2650 o         1 GB7     -0.633500
     17 C3          4.0790    0.4990   -0.6040 c3        1 GB7      0.032100
     18 O3          5.2390    0.8110    0.1360 oh        1 GB7     -0.588800
     19 C4          2.9730    1.5220   -0.2540 c3        1 GB7      0.140100
     20 O4          3.3680    2.5110    0.6590 oh        1 GB7     -0.577800
     21 H11        -3.6910    2.0230   -1.4350 ha        1 GB7      0.144500
     22 H12        -5.8870    2.3310   -0.3090 ha        1 GB7      0.133000
     23 H13        -6.5430    0.8480    1.5870 ha        1 GB7      0.132000
     24 H14        -4.9960   -0.9580    2.3480 ha        1 GB7      0.133000
     25 H15        -2.7950   -1.2870    1.2000 ha        1 GB7      0.144500
     26 H8         -1.7040    0.9530   -1.6880 h1        1 GB7      0.030700
     27 H9         -2.6260   -1.2470   -2.2770 h1        1 GB7      0.024700
     28 H9A        -0.7940   -1.2340   -2.2300 h1        1 GB7      0.024700
     29 HO9        -1.6430   -3.0580   -1.1930 ho        1 GB7      0.398000
     30 HN7        -0.9310    0.7520    0.9180 hn        1 GB7      0.382800
     31 H6          0.6680    0.5610   -1.5520 h1        1 GB7      0.038200
     32 H6A         0.4150    2.0730   -0.5670 h1        1 GB7      0.038200
     33 H5          1.6050    0.9840    1.3970 h1        1 GB7      0.070700
     34 H1          0.6040   -2.0360    0.0750 h1        1 GB7      0.053033
     35 H1A         2.0660   -2.6930    0.9660 h1        1 GB7      0.053033
     36 H1B         0.9460   -1.4890    1.7810 h1        1 GB7      0.053033
     37 H3          4.3090    0.4930   -1.7020 h1        1 GB7      0.077700
     38 HO3         5.8090    0.0290    0.1030 ho        1 GB7      0.433000
     39 H4          2.6500    2.0860   -1.1700 h1        1 GB7      0.087700
     40 HO4         3.9350    2.1000    1.3270 ho        1 GB7      0.426000
@<TRIPOS>BOND
     1    1    2 ar  
     2    1    6 ar  
     3    1   21 1   
     4    2    3 ar  
     5    2   22 1   
     6    3    4 ar  
     7    3   23 1   
     8    4    5 ar  
     9    4   24 1   
    10    5    6 ar  
    11    5   25 1   
    12    6    7 1   
    13    7    8 1   
    14    7   10 1   
    15    7   26 1   
    16    8    9 1   
    17    8   27 1   
    18    8   28 1   
    19    9   29 1   
    20   10   11 1   
    21   10   30 1   
    22   11   12 1   
    23   11   31 1   
    24   11   32 1   
    25   12   13 1   
    26   12   19 1   
    27   12   33 1   
    28   13   14 1   
    29   13   15 1   
    30   14   34 1   
    31   14   35 1   
    32   14   36 1   
    33   15   16 2   
    34   15   17 1   
    35   17   18 1   
    36   17   19 1   
    37   17   37 1   
    38   18   38 1   
    39   19   20 1   
    40   19   39 1   
    41   20   40 1   
@<TRIPOS>SUBSTRUCTURE
     1 GB7         1 TEMP              0 ****  ****    0 ROOT
