@<TRIPOS>MOLECULE
GB7
   41    42     1     0     0
SMALL
bcc


@<TRIPOS>ATOM
      1 C11         0.2190   -0.4640    0.2200 ca        1 GB7     -0.111500
      2 C12         1.6080   -0.4290    0.3400 ca        1 GB7     -0.114000
      3 C13         2.2010    0.1690    1.4520 ca        1 GB7     -0.081000
      4 C14         1.4040    0.7390    2.4470 ca        1 GB7     -0.114000
      5 C15         0.0160    0.7140    2.3290 ca        1 GB7     -0.111500
      6 C10        -0.5810    0.1120    1.2140 ca        1 GB7     -0.187300
      7 C8         -2.0710    0.0920    1.0570 c3        1 GB7      0.156800
      8 C9         -2.6650    1.5190    0.9630 c3        1 GB7      0.117400
      9 O9         -2.7470    2.1090    2.2400 oh        1 GB7     -0.607800
     10 N7         -2.6900   -0.6820    2.1990 ny        1 GB7     -0.753000
     11 C6         -4.0880   -1.1050    1.9240 c3        1 GB7      0.098800
     12 C5         -4.6300   -2.1190    2.9590 c3        1 GB7      0.037700
     13 N1         -4.4260   -1.6890    4.3360 n         1 GB7     -0.471800
     14 C1         -3.3480   -2.2820    5.0820 c3        1 GB7      0.052300
     15 C2         -5.6780   -1.5000    4.9820 c         1 GB7      0.652500
     16 O2         -5.8140   -1.2310    6.1750 o         1 GB7     -0.542500
     17 C3         -6.8310   -1.6520    3.9760 c3        1 GB7      0.037100
     18 O3         -7.8090   -2.5470    4.4440 oh        1 GB7     -0.581800
     19 C4         -6.1770   -2.2540    2.7110 c3        1 GB7      0.155100
     20 O4         -6.4110   -3.6270    2.5140 oh        1 GB7     -0.589800
     21 H11        -0.2390   -0.9360   -0.6630 ha        1 GB7      0.139000
     22 H12         2.2360   -0.8750   -0.4480 ha        1 GB7      0.161000
     23 H13         3.3000    0.1950    1.5440 ha        1 GB7      0.163000
     24 H14         1.8720    1.2140    3.3240 ha        1 GB7      0.161000
     25 H15        -0.6060    1.1780    3.1100 ha        1 GB7      0.139000
     26 H8         -2.3440   -0.4530    0.1020 hx        1 GB7      0.106700
     27 H9         -3.7220    1.4640    0.5790 h1        1 GB7      0.085700
     28 H9A        -2.0360    2.1100    0.2480 h1        1 GB7      0.085700
     29 HO9        -2.0350    2.7580    2.3230 ho        1 GB7      0.439000
     30 HN7        -2.6810   -0.0730    3.0330 hn        1 GB7      0.462300
     31 H6         -4.7230   -0.1720    1.9130 hx        1 GB7      0.107700
     32 H6A        -4.1310   -1.5940    0.9090 hx        1 GB7      0.107700
     33 H5         -4.1470   -3.1250    2.7720 h1        1 GB7      0.102700
     34 H1         -3.4690   -2.0220    6.1700 h1        1 GB7      0.057033
     35 H1A        -2.3740   -1.8610    4.7170 h1        1 GB7      0.057033
     36 H1B        -3.3200   -3.4010    4.9760 h1        1 GB7      0.057033
     37 H3         -7.2850   -0.6450    3.7660 h1        1 GB7      0.089700
     38 HO3        -8.0730   -2.2540    5.3300 ho        1 GB7      0.452000
     39 H4         -6.5010   -1.6930    1.7940 h1        1 GB7      0.065700
     40 HO4        -7.3030   -3.8410    2.8300 ho        1 GB7      0.457000
     41 H72        -2.1090   -1.5050    2.3960 hn        1 GB7      0.462300
@<TRIPOS>BOND
     1    1    2 ar  
     2    1    6 ar  
     3    1   21 1   
     4    2    3 ar  
     5    2   22 1   
     6    3    4 ar  
     7    3   23 1   
     8    4    5 ar  
     9    4   24 1   
    10    5    6 ar  
    11    5   25 1   
    12    6    7 1   
    13    7    8 1   
    14    7   10 1   
    15    7   26 1   
    16    8    9 1   
    17    8   27 1   
    18    8   28 1   
    19    9   29 1   
    20   10   11 1   
    21   10   30 1   
    22   10   41 1   
    23   11   12 1   
    24   11   31 1   
    25   11   32 1   
    26   12   13 1   
    27   12   19 1   
    28   12   33 1   
    29   13   14 1   
    30   13   15 1   
    31   14   34 1   
    32   14   35 1   
    33   14   36 1   
    34   15   16 2   
    35   15   17 1   
    36   17   18 1   
    37   17   19 1   
    38   17   37 1   
    39   18   38 1   
    40   19   20 1   
    41   19   39 1   
    42   20   40 1   
@<TRIPOS>SUBSTRUCTURE
     1 GB7         1 TEMP              0 ****  ****    0 ROOT
