@<TRIPOS>MOLECULE
GB7
   41    42     1     0     0
SMALL
bcc


@<TRIPOS>ATOM
      1 C11         0.2050   -0.5240    0.2220 ca        1 GB7     -0.112000
      2 C12         1.5950   -0.5300    0.3360 ca        1 GB7     -0.114000
      3 C13         2.2100    0.0560    1.4430 ca        1 GB7     -0.082000
      4 C14         1.4330    0.6540    2.4380 ca        1 GB7     -0.114000
      5 C15         0.0450    0.6690    2.3250 ca        1 GB7     -0.112000
      6 C10        -0.5740    0.0800    1.2150 ca        1 GB7     -0.187300
      7 C8         -2.0650    0.1030    1.0630 c3        1 GB7      0.155800
      8 C9         -2.6160    1.5460    0.9550 c3        1 GB7      0.117400
      9 O9         -2.6620    2.1570    2.2240 oh        1 GB7     -0.607800
     10 N7         -2.7040   -0.6380    2.2150 n4        1 GB7     -0.755000
     11 C6         -4.1040   -1.0520    1.9350 c3        1 GB7      0.100800
     12 C5         -4.6680   -2.0490    2.9740 c3        1 GB7      0.011700
     13 N1         -4.5190   -1.5920    4.3470 n         1 GB7     -0.475800
     14 C1         -3.3990   -2.0580    5.1170 c3        1 GB7      0.053300
     15 C2         -5.7880   -1.4840    4.9720 c         1 GB7      0.649500
     16 O2         -5.9540   -1.1920    6.1570 o         1 GB7     -0.542500
     17 C3         -6.9180   -1.7710    3.9680 c3        1 GB7      0.040100
     18 O3         -7.7070   -2.8450    4.4210 oh        1 GB7     -0.580800
     19 C4         -6.2070   -2.2080    2.6670 c3        1 GB7      0.158100
     20 O4         -6.4620   -3.5140    2.2380 oh        1 GB7     -0.570800
     21 H11        -0.2700   -0.9870   -0.6580 ha        1 GB7      0.139500
     22 H12         2.2070   -0.9990   -0.4520 ha        1 GB7      0.161000
     23 H13         3.3090    0.0500    1.5320 ha        1 GB7      0.163000
     24 H14         1.9180    1.1190    3.3110 ha        1 GB7      0.161000
     25 H15        -0.5610    1.1560    3.1060 ha        1 GB7      0.139500
     26 H8         -2.3560   -0.4440    0.1140 hx        1 GB7      0.107700
     27 H9         -3.6790    1.5190    0.5870 h1        1 GB7      0.086200
     28 H9A        -1.9780    2.1070    0.2240 h1        1 GB7      0.086200
     29 HO9        -1.9250    2.7790    2.2910 ho        1 GB7      0.438000
     30 HN7        -2.6970   -0.0100    3.0350 hn        1 GB7      0.461300
     31 H6         -4.1430   -1.5550    0.9260 hx        1 GB7      0.109200
     32 H6A        -4.7290   -0.1140    1.9060 hx        1 GB7      0.109200
     33 H5         -4.1650   -3.0500    2.8210 h1        1 GB7      0.088700
     34 H1         -3.5990   -1.8750    6.2090 h1        1 GB7      0.055367
     35 H1A        -2.4800   -1.4820    4.8270 h1        1 GB7      0.055367
     36 H1B        -3.2020   -3.1530    4.9610 h1        1 GB7      0.055367
     37 H3         -7.5390   -0.8490    3.8120 h1        1 GB7      0.097700
     38 HO3        -8.1200   -2.5700    5.2530 ho        1 GB7      0.451000
     39 H4         -6.5160   -1.5500    1.8090 h1        1 GB7      0.091700
     40 HO4        -6.6970   -4.0680    2.9980 ho        1 GB7      0.446000
     41 H72        -2.1350   -1.4620    2.4380 hn        1 GB7      0.461300
@<TRIPOS>BOND
     1    1    2 ar  
     2    1    6 ar  
     3    1   21 1   
     4    2    3 ar  
     5    2   22 1   
     6    3    4 ar  
     7    3   23 1   
     8    4    5 ar  
     9    4   24 1   
    10    5    6 ar  
    11    5   25 1   
    12    6    7 1   
    13    7    8 1   
    14    7   10 1   
    15    7   26 1   
    16    8    9 1   
    17    8   27 1   
    18    8   28 1   
    19    9   29 1   
    20   10   11 1   
    21   10   30 1   
    22   10   41 1   
    23   11   12 1   
    24   11   31 1   
    25   11   32 1   
    26   12   13 1   
    27   12   19 1   
    28   12   33 1   
    29   13   14 1   
    30   13   15 1   
    31   14   34 1   
    32   14   35 1   
    33   14   36 1   
    34   15   16 2   
    35   15   17 1   
    36   17   18 1   
    37   17   19 1   
    38   17   37 1   
    39   18   38 1   
    40   19   20 1   
    41   19   39 1   
    42   20   40 1   
@<TRIPOS>SUBSTRUCTURE
     1 GB7         1 TEMP              0 ****  ****    0 ROOT
