@<TRIPOS>MOLECULE
GB7
   40    38     1     0     0
SMALL
bcc


@<TRIPOS>ATOM
      1 C11         2.4840    0.7930   -2.3180 c1        1 GB7     -0.060500
      2 C12         3.6960    0.3530   -2.7250 c1        1 GB7     -0.069000
      3 C13         4.6720    0.0560   -1.7920 c1        1 GB7     -0.069000
      4 C14         4.4070    0.2090   -0.4320 c1        1 GB7     -0.069000
      5 C15         3.1670    0.6580   -0.0140 c1        1 GB7     -0.069000
      6 C10         2.2140    0.9490   -0.9210 c1        1 GB7     -0.061100
      7 C8          0.9010    1.4770   -0.4730 c3        1 GB7      0.151600
      8 C9          1.0800    2.8980    0.0520 c3        1 GB7      0.096400
      9 O9          1.3160    3.7780   -1.0250 oh        1 GB7     -0.593800
     10 N7          0.3880    0.6560    0.5620 n3        1 GB7     -0.817200
     11 C6         -1.0120    0.3210    0.2710 c3        1 GB7      0.161800
     12 C5         -1.3550   -1.1280    0.8780 c3        1 GB7      0.026700
     13 N1         -2.6400   -1.0420    1.7720 n         1 GB7     -0.468800
     14 C1         -2.6830   -0.6910    3.1800 c3        1 GB7      0.089300
     15 C2         -3.7580   -1.7210    0.9850 c         1 GB7      0.663500
     16 O2         -4.8790   -1.8070    1.3170 o         1 GB7     -0.621500
     17 C3         -3.3140   -1.8120   -0.2390 c3        1 GB7      0.037100
     18 O3         -3.8610   -2.9420   -0.8500 oh        1 GB7     -0.590800
     19 C4         -1.6230   -1.8930   -0.0120 c3        1 GB7      0.138100
     20 O4         -1.2320   -3.2560    0.3610 oh        1 GB7     -0.584800
     21 H11         1.7540    1.0150   -3.0150 ha        1 GB7      0.079500
     22 H12         3.8730    0.2520   -3.6290 ha        1 GB7      0.077250
     23 H13         5.5400   -0.2590   -2.0830 ha        1 GB7      0.077250
     24 H14         5.1400   -0.0150    0.2660 ha        1 GB7      0.077250
     25 H15         2.9660    0.7750    1.0240 ha        1 GB7      0.077250
     26 H8          0.3110    1.4810   -1.1840 h1        1 GB7      0.073700
     27 H9          1.8100    2.9240    0.6390 h1        1 GB7      0.045700
     28 H9A         0.2780    3.1700    0.5210 h1        1 GB7      0.045700
     29 HO9         1.1810    4.6700   -0.7390 ho        1 GB7      0.407000
     30 HN7         0.4330    1.1200    1.3760 hn        1 GB7      0.380800
     31 H6         -1.1600    0.3090   -0.7500 h1        1 GB7      0.060700
     32 H6A        -1.6190    1.0160    0.6940 h1        1 GB7      0.060700
     33 H5         -0.6490   -1.4450    1.3680 h1        1 GB7      0.059700
     34 H1         -1.7310   -0.4930    3.5140 h1        1 GB7      0.048700
     35 H1A        -3.2300    0.0850    3.3010 h1        1 GB7      0.048700
     36 H1B        -3.0640   -1.4460    3.6940 h1        1 GB7      0.048700
     37 H3         -3.5700   -1.0790   -0.9010 h1        1 GB7      0.082700
     38 HO3        -4.4200   -2.6930   -1.4830 ho        1 GB7      0.434000
     39 H4         -1.1420   -1.6180   -0.8680 h1        1 GB7      0.097700
     40 HO4        -0.6700   -3.6240   -0.3210 ho        1 GB7      0.428000
@<TRIPOS>BOND
     1    1    6 3   
     2    1   21 1   
     3    2    3 3   
     4    2   22 1   
     5    3   23 1   
     6    4    5 3   
     7    4   24 1   
     8    5   25 1   
     9    6    7 1   
    10    7    8 1   
    11    7   10 1   
    12    7   26 1   
    13    8    9 1   
    14    8   27 1   
    15    8   28 1   
    16    9   29 1   
    17   10   11 1   
    18   10   30 1   
    19   11   12 1   
    20   11   31 1   
    21   11   32 1   
    22   12   13 1   
    23   12   19 1   
    24   12   33 1   
    25   13   14 1   
    26   13   15 1   
    27   14   34 1   
    28   14   35 1   
    29   14   36 1   
    30   15   16 2   
    31   15   17 1   
    32   17   18 1   
    33   17   19 1   
    34   17   37 1   
    35   18   38 1   
    36   19   20 1   
    37   19   39 1   
    38   20   40 1   
@<TRIPOS>SUBSTRUCTURE
     1 GB7         1 TEMP              0 ****  ****    0 ROOT
