@<TRIPOS>MOLECULE
GBC
   20    18     1     0     0
SMALL
bcc


@<TRIPOS>ATOM
      1 C1         -0.8600    0.0600   -1.1810 c1        1 GBC     -0.109000
      2 C2          0.8030    0.0600   -1.1810 c1        1 GBC     -0.256000
      3 C3          1.4310    0.0600    0.1160 c2        1 GBC     -0.005000
      4 C4          0.5770    0.9050    1.2170 c3        1 GBC     -0.149000
      5 C5         -0.6200    0.6200    1.3050 c3        1 GBC     -0.155000
      6 C6         -1.4950    0.7590   -0.0780 c2        1 GBC     -0.129000
      7 C7         -1.6210   -1.0160   -1.9400 c2        1 GBC      0.350000
      8 N3          1.7100   -1.3200    0.5850 n3        1 GBC     -0.335000
      9 O1         -2.1040   -0.7630   -3.0780 o         1 GBC     -0.571000
     10 O2         -1.7350   -2.1710   -1.4500 o         1 GBC     -0.571000
     11 H2          1.2910   -0.2680   -1.9590 ha        1 GBC      0.137000
     12 H3          2.3370    0.4170    0.0490 h4        1 GBC      0.078000
     13 H41         0.6480    1.8520    0.9940 hc        1 GBC      0.071000
     14 H42         0.9870    0.7650    2.0910 hc        1 GBC      0.071000
     15 H51        -0.6900   -0.3020    1.6170 hc        1 GBC      0.059500
     16 H52        -1.0210    1.2020    1.9780 hc        1 GBC      0.059500
     17 H61        -2.4390    0.5150   -0.0220 ha        1 GBC      0.098000
     18 H62        -1.5710    1.7120   -0.2740 ha        1 GBC      0.098000
     19 HN31        2.0980   -1.7980   -0.0880 hn        1 GBC      0.129000
     20 HN32        2.2750   -1.2900    1.3010 hn        1 GBC      0.129000
@<TRIPOS>BOND
     1    1    2 1   
     2    1    7 1   
     3    2   11 1   
     4    3    4 1   
     5    3    8 1   
     6    3   12 1   
     7    4    5 1   
     8    4   13 1   
     9    4   14 1   
    10    5    6 1   
    11    5   15 1   
    12    5   16 1   
    13    6   17 1   
    14    6   18 1   
    15    7    9 1   
    16    7   10 1   
    17    8   19 1   
    18    8   20 1   
@<TRIPOS>SUBSTRUCTURE
     1 GBC         1 TEMP              0 ****  ****    0 ROOT
