@<TRIPOS>MOLECULE
GBC
   21    21     1     0     0
SMALL
bcc


@<TRIPOS>ATOM
      1 C1          0.0030    0.0090   -0.0030 ce        1 GBC     -0.029400
      2 C2          1.3410    0.1350    0.0200 c2        1 GBC     -0.360200
      3 C3          2.1460    0.0650    1.2620 c3        1 GBC      0.209700
      4 C4          1.3340   -0.3230    2.5020 c3        1 GBC     -0.099400
      5 C5         -0.0410    0.3150    2.4590 c3        1 GBC     -0.073400
      6 C6         -0.8080   -0.1220    1.2270 c3        1 GBC     -0.081200
      7 C7         -0.7490    0.0110   -1.3500 c         1 GBC      0.904800
      8 N3          3.2510   -0.9670    1.0230 nz        1 GBC     -0.856600
      9 O1         -1.9110    0.4850   -1.3430 o         1 GBC     -0.784800
     10 O2         -0.1230   -0.4750   -2.3260 o         1 GBC     -0.784800
     11 H2          1.8780    0.3190   -0.9260 ha        1 GBC      0.161000
     12 H3          2.6920    1.0370    1.4480 hx        1 GBC      0.081700
     13 H41         1.2010   -1.4370    2.5600 hc        1 GBC      0.046200
     14 H42         1.8800    0.0060    3.4240 hc        1 GBC      0.046200
     15 H51         0.0630    1.4320    2.4600 hc        1 GBC      0.056200
     16 H52        -0.6040    0.0270    3.3850 hc        1 GBC      0.056200
     17 H61        -1.1460   -1.1890    1.3300 hc        1 GBC      0.092200
     18 H62        -1.7380    0.5020    1.0980 hc        1 GBC      0.092200
     19 HN31        2.8150   -1.8550    0.7600 hn        1 GBC      0.442133
     20 HN32        3.8340   -0.6520    0.2440 hn        1 GBC      0.442133
     21 H33         3.8180   -1.0940    1.8570 hn        1 GBC      0.442133
@<TRIPOS>BOND
     1    1    2 2   
     2    1    6 1   
     3    1    7 1   
     4    2    3 1   
     5    2   11 1   
     6    3    4 1   
     7    3    8 1   
     8    3   12 1   
     9    4    5 1   
    10    4   13 1   
    11    4   14 1   
    12    5    6 1   
    13    5   15 1   
    14    5   16 1   
    15    6   17 1   
    16    6   18 1   
    17    7    9 1   
    18    7   10 1   
    19    8   19 1   
    20    8   20 1   
    21    8   21 1   
@<TRIPOS>SUBSTRUCTURE
     1 GBC         1 TEMP              0 ****  ****    0 ROOT
