@<TRIPOS>MOLECULE
GBC
   21    21     1     0     0
SMALL
bcc


@<TRIPOS>ATOM
      1 C1          0.0070    0.0170   -0.0050 ce        1 GBC     -0.029400
      2 C2          1.3460    0.1240    0.0200 c2        1 GBC     -0.360200
      3 C3          2.1490    0.0430    1.2630 c3        1 GBC      0.209700
      4 C4          1.3300   -0.3320    2.5030 c3        1 GBC     -0.099400
      5 C5         -0.0360    0.3250    2.4580 c3        1 GBC     -0.073400
      6 C6         -0.8080   -0.1020    1.2250 c3        1 GBC     -0.081200
      7 C7         -0.7440    0.0290   -1.3520 c         1 GBC      0.904800
      8 N3          3.2400   -1.0030    1.0260 n4        1 GBC     -0.856600
      9 O1         -1.8980    0.5200   -1.3470 o         1 GBC     -0.784800
     10 O2         -0.1240   -0.4670   -2.3280 o         1 GBC     -0.784800
     11 H2          1.8870    0.3010   -0.9250 ha        1 GBC      0.161000
     12 H3          2.7080    1.0080    1.4500 hx        1 GBC      0.081700
     13 H41         1.1810   -1.4440    2.5600 hc        1 GBC      0.046200
     14 H42         1.8800   -0.0110    3.4250 hc        1 GBC      0.046200
     15 H51        -0.6040    0.0440    3.3830 hc        1 GBC      0.056200
     16 H52         0.0840    1.4400    2.4580 hc        1 GBC      0.056200
     17 H61        -1.1610   -1.1640    1.3280 hc        1 GBC      0.092200
     18 H62        -1.7290    0.5350    1.0940 hc        1 GBC      0.092200
     19 HN31        3.8280   -0.6970    0.2480 hn        1 GBC      0.442133
     20 HN32        3.8040   -1.1380    1.8610 hn        1 GBC      0.442133
     21 H33         2.7920   -1.8850    0.7620 hn        1 GBC      0.442133
@<TRIPOS>BOND
     1    1    2 2   
     2    1    6 1   
     3    1    7 1   
     4    2    3 1   
     5    2   11 1   
     6    3    4 1   
     7    3    8 1   
     8    3   12 1   
     9    4    5 1   
    10    4   13 1   
    11    4   14 1   
    12    5    6 1   
    13    5   15 1   
    14    5   16 1   
    15    6   17 1   
    16    6   18 1   
    17    7    9 1   
    18    7   10 1   
    19    8   19 1   
    20    8   20 1   
    21    8   21 1   
@<TRIPOS>SUBSTRUCTURE
     1 GBC         1 TEMP              0 ****  ****    0 ROOT
