@<TRIPOS>MOLECULE
GBC
   20    20     1     0     0
SMALL
bcc


@<TRIPOS>ATOM
      1 C1         -0.0470   -0.1220    0.4990 ce        1 GBC     -0.134400
      2 C2          0.8320   -0.3660   -0.4800 c2        1 GBC     -0.257200
      3 C3          0.4770   -0.4130   -1.9400 c3        1 GBC      0.194700
      4 C4         -0.8680    0.2920   -2.1880 c3        1 GBC     -0.065400
      5 C5         -1.8970   -0.1710   -1.1790 c3        1 GBC     -0.075400
      6 C6         -1.4780    0.1790    0.2350 c3        1 GBC     -0.044200
      7 C7          0.3700   -0.1380    1.9630 c         1 GBC      0.900800
      8 N3          1.5170    0.0880   -2.8340 n3        1 GBC     -0.902800
      9 O1          1.6020   -0.0640    2.2370 o         1 GBC     -0.836800
     10 O2         -0.5410   -0.2270    2.8370 o         1 GBC     -0.836800
     11 H2          1.8830   -0.5740   -0.2200 ha        1 GBC      0.135000
     12 H3          0.3410   -1.5060   -2.2150 h1        1 GBC      0.042700
     13 H41        -0.7390    1.4020   -2.1010 hc        1 GBC      0.027700
     14 H42        -1.2220    0.0700   -3.2270 hc        1 GBC      0.027700
     15 H51        -2.8860    0.3030   -1.4110 hc        1 GBC      0.022200
     16 H52        -2.0300   -1.2820   -1.2670 hc        1 GBC      0.022200
     17 H61        -1.6480    1.2730    0.4230 hc        1 GBC      0.057200
     18 H62        -2.1060   -0.3810    0.9800 hc        1 GBC      0.057200
     19 HN31        1.5990    1.0820   -2.7290 hn        1 GBC      0.332800
     20 HN32        2.3960   -0.3170   -2.5670 hn        1 GBC      0.332800
@<TRIPOS>BOND
     1    1    2 2   
     2    1    6 1   
     3    1    7 1   
     4    2    3 1   
     5    2   11 1   
     6    3    4 1   
     7    3    8 1   
     8    3   12 1   
     9    4    5 1   
    10    4   13 1   
    11    4   14 1   
    12    5    6 1   
    13    5   15 1   
    14    5   16 1   
    15    6   17 1   
    16    6   18 1   
    17    7    9 1   
    18    7   10 1   
    19    8   19 1   
    20    8   20 1   
@<TRIPOS>SUBSTRUCTURE
     1 GBC         1 TEMP              0 ****  ****    0 ROOT
