@<TRIPOS>MOLECULE
GBC
   21    21     1     0     0
SMALL
bcc


@<TRIPOS>ATOM
      1 C1          0.0050    0.0170   -0.0040 ce        1 GBC     -0.029400
      2 C2          1.3430    0.1440    0.0240 c2        1 GBC     -0.360200
      3 C3          2.1450    0.0630    1.2670 c3        1 GBC      0.209700
      4 C4          1.3310   -0.3360    2.5020 c3        1 GBC     -0.099400
      5 C5         -0.0450    0.3010    2.4610 c3        1 GBC     -0.073400
      6 C6         -0.8090   -0.1260    1.2240 c3        1 GBC     -0.081200
      7 C7         -0.7440    0.0310   -1.3520 c         1 GBC      0.904800
      8 N3          3.2520   -0.9640    1.0210 n4        1 GBC     -0.856600
      9 O1         -1.9060    0.5010   -1.3440 o         1 GBC     -0.784800
     10 O2         -0.1140   -0.4440   -2.3320 o         1 GBC     -0.784800
     11 H2          1.8820    0.3370   -0.9190 ha        1 GBC      0.161000
     12 H3          2.6900    1.0350    1.4630 hx        1 GBC      0.081700
     13 H41         1.1990   -1.4510    2.5490 hc        1 GBC      0.046200
     14 H42         1.8740   -0.0150    3.4280 hc        1 GBC      0.046200
     15 H51         0.0580    1.4180    2.4730 hc        1 GBC      0.055700
     16 H52        -0.6100    0.0040    3.3830 hc        1 GBC      0.055700
     17 H61        -1.1460   -1.1940    1.3160 hc        1 GBC      0.092200
     18 H62        -1.7390    0.4980    1.0970 hc        1 GBC      0.092200
     19 HN31        2.8170   -1.8510    0.7500 hn        1 GBC      0.441800
     20 HN32        3.8170   -1.0990    1.8560 hn        1 GBC      0.441800
     21 H33         3.8360   -0.6420    0.2470 hn        1 GBC      0.441800
@<TRIPOS>BOND
     1    1    2 2   
     2    1    6 1   
     3    1    7 1   
     4    2    3 1   
     5    2   11 1   
     6    3    4 1   
     7    3    8 1   
     8    3   12 1   
     9    4    5 1   
    10    4   13 1   
    11    4   14 1   
    12    5    6 1   
    13    5   15 1   
    14    5   16 1   
    15    6   17 1   
    16    6   18 1   
    17    7    9 1   
    18    7   10 1   
    19    8   19 1   
    20    8   20 1   
    21    8   21 1   
@<TRIPOS>SUBSTRUCTURE
     1 GBC         1 TEMP              0 ****  ****    0 ROOT
