@<TRIPOS>MOLECULE
GBD
   10     9     1     0     0
SMALL
bcc


@<TRIPOS>ATOM
      1 O13        -2.1080   -0.5970    1.4850 o         1 GBD     -0.780300
      2 C1         -0.8490   -0.5970    1.4850 c         1 GBD      0.880300
      3 O11        -0.2200   -0.5970    2.5750 o         1 GBD     -0.780300
      4 C3         -0.0930   -0.5970    0.1750 ce        1 GBD      0.294200
      5 N2          0.3270   -1.7200   -0.5220 n2        1 GBD     -0.492200
      6 S1          1.0280   -1.2620   -1.7480 ss        1 GBD      0.225500
      7 C4          0.3430    0.6440   -0.6110 cg        1 GBD      0.334600
      8 O4          0.1080    1.9800   -0.2390 o         1 GBD     -0.189000
      9 N5          1.0080    0.2230   -1.7520 n1        1 GBD     -0.706800
     10 HO4         0.4570    2.5230   -0.8480 ho        1 GBD      0.214000
@<TRIPOS>BOND
     1    1    2 1   
     2    2    3 1   
     3    2    4 1   
     4    4    5 2   
     5    4    7 1   
     6    5    6 1   
     7    6    9 1   
     8    7    9 3   
     9    8   10 1   
@<TRIPOS>SUBSTRUCTURE
     1 GBD         1 TEMP              0 ****  ****    0 ROOT
