@<TRIPOS>MOLECULE
GBD
   10    10     1     0     0
SMALL
bcc


@<TRIPOS>ATOM
      1 O13         0.7090    0.9280    0.3690 o         1 GBD     -0.780300
      2 C1          1.2770   -0.1540    0.1030 c         1 GBD      0.860100
      3 O11         1.3250   -1.2000    0.7900 o         1 GBD     -0.780300
      4 C3          2.0310   -0.2050   -1.2550 cc        1 GBD      0.259500
      5 N2          1.5330   -0.5760   -2.4020 nd        1 GBD     -0.457100
      6 S1          2.7490   -0.4530   -3.5630 ss        1 GBD      0.173200
      7 C4          3.4790    0.1920   -1.3700 cc        1 GBD      0.472300
      8 O4          4.1480    0.6060   -0.2560 oh        1 GBD     -0.560300
      9 N5          3.9870    0.0970   -2.5950 nd        1 GBD     -0.602100
     10 HO4         5.0610    0.8210   -0.5070 ho        1 GBD      0.415000
@<TRIPOS>BOND
     1    1    2 1   
     2    2    3 1   
     3    2    4 1   
     4    4    5 2   
     5    4    7 1   
     6    5    6 1   
     7    6    9 1   
     8    7    8 1   
     9    7    9 2   
    10    8   10 1   
@<TRIPOS>SUBSTRUCTURE
     1 GBD         1 TEMP              0 ****  ****    0 ROOT
