@<TRIPOS>MOLECULE
GBD
   10    10     1     0     0
SMALL
bcc


@<TRIPOS>ATOM
      1 O13         1.2900    0.2190    2.3520 o         1 GBD     -0.789800
      2 C1          0.2610   -0.1170    1.7310 c         1 GBD      0.844100
      3 O11        -0.8260   -0.5020    2.2540 o         1 GBD     -0.789800
      4 C3          0.2650   -0.0570    0.1930 cc        1 GBD      0.178500
      5 N2          1.3120    0.0030   -0.5870 nd        1 GBD     -0.428100
      6 S1          0.7670    0.0600   -2.1710 ss        1 GBD      0.168200
      7 C4         -1.0310   -0.0610   -0.5830 cc        1 GBD      0.497300
      8 O4         -2.2670   -0.1190   -0.0250 oh        1 GBD     -0.621300
      9 N5         -0.8810    0.0040   -1.9030 nd        1 GBD     -0.550100
     10 HO4        -2.1440   -0.2580    0.9440 ho        1 GBD      0.491000
@<TRIPOS>BOND
     1    1    2 1   
     2    2    3 1   
     3    2    4 1   
     4    4    5 2   
     5    4    7 1   
     6    5    6 1   
     7    6    9 1   
     8    7    8 1   
     9    7    9 2   
    10    8   10 1   
@<TRIPOS>SUBSTRUCTURE
     1 GBD         1 TEMP              0 ****  ****    0 ROOT
