@<TRIPOS>MOLECULE
GBE
   56    57     1     0     0
SMALL
bcc


@<TRIPOS>ATOM
      1 C1         -3.6700    0.0610    0.0190 c3        1 GBE      0.306900
      2 O1         -2.8900   -1.0170   -0.4380 os        1 GBE     -0.411600
      3 C2         -4.1110    0.8470   -1.2320 c3        1 GBE      0.092100
      4 O2         -3.0390    1.6140   -1.7460 oh        1 GBE     -0.607800
      5 C3         -5.2150    1.8380   -0.8420 c3        1 GBE      0.107100
      6 O3         -5.7820    2.4500   -1.9890 oh        1 GBE     -0.611800
      7 C4         -6.3560    1.0840   -0.1390 c3        1 GBE      0.121100
      8 O4         -7.3200    1.9930    0.3640 oh        1 GBE     -0.598800
      9 C5         -5.7980    0.3050    1.0630 c3        1 GBE      0.108100
     10 O5         -4.7700   -0.5940    0.6460 os        1 GBE     -0.451600
     11 C6         -6.8850   -0.5710    1.6930 c3        1 GBE      0.141400
     12 O6         -6.4170   -1.2110    2.8600 oh        1 GBE     -0.598800
     13 OAA         8.5060    1.5740    0.0290 o         1 GBE     -0.751533
     14 OAB         7.9490   -0.3440    1.3090 o         1 GBE     -0.751533
     15 OAG         6.6980    1.6550    1.5640 o         1 GBE     -0.751533
     16 CAH         5.1290   -0.2760   -0.0720 c3        1 GBE     -0.040400
     17 CAJ        -2.1760   -1.7020    0.5960 c3        1 GBE      0.136400
     18 CAL        -1.0800   -2.5170   -0.1030 c3        1 GBE      0.167800
     19 CAM         2.0500   -1.4420   -1.9720 c3        1 GBE      0.168300
     20 CAN         2.2710   -0.7600    0.3260 c3        1 GBE      0.168300
     21 CAO         0.7770   -2.2380   -1.6250 c3        1 GBE      0.169300
     22 CAP         0.9930   -1.5420    0.6830 c3        1 GBE      0.169300
     23 CAQ         6.3960    0.3330   -0.5970 c3        1 GBE     -0.290600
     24 NAY         2.9530   -1.2940   -0.8410 n3        1 GBE     -0.729600
     25 NAZ         0.0910   -1.7270   -0.4460 n3        1 GBE     -0.736600
     26 SBA         7.4950    0.8540    0.7100 s6        1 GBE      1.427800
     27 H1         -3.1270    0.7160    0.7550 h2        1 GBE      0.059700
     28 H2         -4.4830    0.1330   -2.0180 h1        1 GBE      0.073700
     29 HO2        -2.2990    1.0050   -1.8810 ho        1 GBE      0.437000
     30 H3         -4.7960    2.6340   -0.1650 h1        1 GBE      0.064700
     31 HO3        -5.0460    2.8250   -2.4920 ho        1 GBE      0.429000
     32 H4         -6.8440    0.3790   -0.8690 h1        1 GBE      0.061700
     33 HO4        -7.5610    2.5680   -0.3750 ho        1 GBE      0.424000
     34 H5         -5.3840    1.0200    1.8260 h1        1 GBE      0.067700
     35 H6         -7.7360    0.0830    2.0260 h1        1 GBE      0.061200
     36 H6A        -7.2420   -1.3300    0.9480 h1        1 GBE      0.061200
     37 HO6        -5.6420   -1.7280    2.6060 ho        1 GBE      0.411000
     38 HAH         4.6690    0.4300    0.6730 hc        1 GBE      0.055200
     39 HAHA        5.3670   -1.2320    0.4650 hc        1 GBE      0.055200
     40 HAJ        -1.7600   -0.9700    1.3360 h1        1 GBE      0.041200
     41 HAJA       -2.8920   -2.3930    1.1140 h1        1 GBE      0.041200
     42 HAK         3.8730    0.4520   -1.6790 h1        1 GBE      0.024200
     43 HAKA        4.6740   -1.1500   -2.0020 h1        1 GBE      0.024200
     44 HAL        -0.8260   -3.3790    0.5810 h1        1 GBE      0.043200
     45 HALA       -1.5260   -2.9450   -1.0460 h1        1 GBE      0.043200
     46 HAM         2.5960   -2.0060   -2.7780 h1        1 GBE      0.039700
     47 HAMA        1.7410   -0.4430   -2.4010 h1        1 GBE      0.039700
     48 HAN         2.0040    0.3290    0.1950 h1        1 GBE      0.039700
     49 HANA        2.9730   -0.8430    1.2030 h1        1 GBE      0.039700
     50 HAO         0.0700   -2.1550   -2.4970 h1        1 GBE      0.029200
     51 HAOA        1.0540   -3.3260   -1.5050 h1        1 GBE      0.029200
     52 HAP         1.2930   -2.5320    1.1380 h1        1 GBE      0.029200
     53 HAPA        0.4400   -0.9570    1.4710 h1        1 GBE      0.029200
     54 HAQ         6.9350   -0.3990   -1.2440 h1        1 GBE      0.062700
     55 HAQA        6.1620    1.2210   -1.2330 h1        1 GBE      0.062700
     56 CAK         4.1490   -0.5410   -1.2120 c3        1 GBE      0.170800
@<TRIPOS>BOND
     1    1    2 1   
     2    1    3 1   
     3    1   10 1   
     4    1   27 1   
     5    2   17 1   
     6    3    4 1   
     7    3    5 1   
     8    3   28 1   
     9    4   29 1   
    10    5    6 1   
    11    5    7 1   
    12    5   30 1   
    13    6   31 1   
    14    7    8 1   
    15    7    9 1   
    16    7   32 1   
    17    8   33 1   
    18    9   10 1   
    19    9   11 1   
    20    9   34 1   
    21   11   12 1   
    22   11   35 1   
    23   11   36 1   
    24   12   37 1   
    25   13   26 1   
    26   14   26 1   
    27   15   26 1   
    28   16   23 1   
    29   16   38 1   
    30   16   39 1   
    31   16   56 1   
    32   17   18 1   
    33   17   40 1   
    34   17   41 1   
    35   18   25 1   
    36   18   44 1   
    37   18   45 1   
    38   19   21 1   
    39   19   24 1   
    40   19   46 1   
    41   19   47 1   
    42   20   22 1   
    43   20   24 1   
    44   20   48 1   
    45   20   49 1   
    46   21   25 1   
    47   21   50 1   
    48   21   51 1   
    49   22   25 1   
    50   22   52 1   
    51   22   53 1   
    52   23   26 1   
    53   23   54 1   
    54   23   55 1   
    55   24   56 1   
    56   42   56 1   
    57   43   56 1   
@<TRIPOS>SUBSTRUCTURE
     1 GBE         1 TEMP              0 ****  ****    0 ROOT
