@<TRIPOS>MOLECULE
GBE
   56    57     1     0     0
SMALL
bcc


@<TRIPOS>ATOM
      1 C1          1.3180   -1.5950    2.7080 c3        1 GBE      0.349900
      2 O1          1.0950   -1.4420    1.3450 os        1 GBE     -0.407600
      3 C2          0.6420   -2.8670    3.1820 c3        1 GBE      0.095100
      4 O2         -0.7970   -2.7080    3.0760 oh        1 GBE     -0.578800
      5 C3          0.9830   -3.1950    4.5900 c3        1 GBE      0.057100
      6 O3          0.4500   -4.5060    4.9090 oh        1 GBE     -0.600800
      7 C4          2.4500   -3.2020    4.8280 c3        1 GBE      0.089100
      8 O4          2.6930   -3.3490    6.2540 oh        1 GBE     -0.593800
      9 C5          3.1140   -1.9370    4.3520 c3        1 GBE      0.111100
     10 O5          2.7700   -1.6070    2.9530 os        1 GBE     -0.449600
     11 C6          4.6020   -2.1030    4.4590 c3        1 GBE      0.143400
     12 O6          5.0520   -1.6020    5.7310 oh        1 GBE     -0.597800
     13 OAA        -5.7510    2.0650   -6.3140 o         1 GBE     -0.751533
     14 OAB        -4.6120    4.2530   -6.9200 o         1 GBE     -0.751533
     15 OAG        -4.3880    2.4420   -8.4630 o         1 GBE     -0.751533
     16 CAH        -2.9360    2.8520   -4.6580 c3        1 GBE     -0.039400
     17 CAJ         0.7310   -0.1000    0.9620 c3        1 GBE      0.132400
     18 CAK        -1.9140    2.1290   -3.7980 c3        1 GBE      0.161800
     19 CAL         0.2610   -0.0950   -0.5070 c3        1 GBE      0.165800
     20 CAM        -0.0590    2.9760   -2.6330 c3        1 GBE      0.164800
     21 CAN        -2.1250    2.6100   -1.5130 c3        1 GBE      0.164800
     22 CAO         0.4710    1.6340   -2.0950 c3        1 GBE      0.131800
     23 CAP        -1.5970    1.2700   -0.9770 c3        1 GBE      0.131800
     24 CAQ        -2.9990    2.1850   -6.0600 c3        1 GBE     -0.291600
     25 NAY        -1.4880    2.9990   -2.7280 n3        1 GBE     -0.717600
     26 NAZ        -0.1710    1.2450   -0.8780 n3        1 GBE     -0.730600
     27 SBA        -4.4910    2.7310   -6.9300 s6        1 GBE      1.427800
     28 H1          0.9180   -0.8200    3.1860 h2        1 GBE      0.065700
     29 H2          0.9210   -3.6060    2.6090 h1        1 GBE      0.063700
     30 HO2        -1.1880   -3.5280    2.9870 ho        1 GBE      0.413000
     31 H3          0.5820   -2.5520    5.1610 h1        1 GBE      0.105700
     32 HO3         0.9130   -5.1330    4.4660 ho        1 GBE      0.403000
     33 H4          2.8400   -3.9550    4.3630 h1        1 GBE      0.049700
     34 HO4         2.8170   -4.2120    6.4490 ho        1 GBE      0.417000
     35 H5          2.8390   -1.2090    4.9230 h1        1 GBE      0.066700
     36 H6          5.0290   -1.6130    3.7520 h1        1 GBE      0.060200
     37 H6A         4.8380   -3.0800    4.3800 h1        1 GBE      0.060200
     38 HO6         5.9530   -1.4140    5.6860 ho        1 GBE      0.416000
     39 HAH        -2.6800    3.7690   -4.7540 hc        1 GBE      0.054700
     40 HAHA       -3.8140    2.8010   -4.2330 hc        1 GBE      0.054700
     41 HAJ         1.5070    0.4880    1.0570 h1        1 GBE      0.044700
     42 HAJA       -0.0020    0.2230    1.5450 h1        1 GBE      0.044700
     43 HAK        -1.1350    1.8820   -4.3510 h1        1 GBE      0.022700
     44 HAKA       -2.3180    1.3160   -3.4190 h1        1 GBE      0.022700
     45 HAL         1.0090   -0.3760   -1.0950 h1        1 GBE      0.044200
     46 HALA       -0.4750   -0.7090   -0.6090 h1        1 GBE      0.044200
     47 HAM         0.3170    3.1330   -3.5220 h1        1 GBE      0.054950
     48 HAMA        0.2310    3.6940   -2.0350 h1        1 GBE      0.054950
     49 HAN        -1.9670    3.3160   -0.8280 h1        1 GBE      0.054950
     50 HANA       -3.1120    2.5280   -1.6750 h1        1 GBE      0.054950
     51 HAO         0.3210    0.9470   -2.7640 h1        1 GBE      0.033700
     52 HAOA        1.4680    1.7170   -1.9270 h1        1 GBE      0.033700
     53 HAP        -1.8940    0.5300   -1.6030 h1        1 GBE      0.033700
     54 HAPA       -1.9750    1.1110   -0.1020 h1        1 GBE      0.033700
     55 HAQ        -3.0190    1.2330   -5.9620 h1        1 GBE      0.062700
     56 HAQA       -2.2300    2.4350   -6.5630 h1        1 GBE      0.062700
@<TRIPOS>BOND
     1    1    2 1   
     2    1    3 1   
     3    1   10 1   
     4    1   28 1   
     5    2   17 1   
     6    3    4 1   
     7    3    5 1   
     8    3   29 1   
     9    4   30 1   
    10    5    6 1   
    11    5    7 1   
    12    5   31 1   
    13    6   32 1   
    14    7    8 1   
    15    7    9 1   
    16    7   33 1   
    17    8   34 1   
    18    9   10 1   
    19    9   11 1   
    20    9   35 1   
    21   11   12 1   
    22   11   36 1   
    23   11   37 1   
    24   12   38 1   
    25   13   27 1   
    26   14   27 1   
    27   15   27 1   
    28   16   18 1   
    29   16   24 1   
    30   16   39 1   
    31   16   40 1   
    32   17   19 1   
    33   17   41 1   
    34   17   42 1   
    35   18   25 1   
    36   18   43 1   
    37   18   44 1   
    38   19   26 1   
    39   19   45 1   
    40   19   46 1   
    41   20   22 1   
    42   20   25 1   
    43   20   47 1   
    44   20   48 1   
    45   21   23 1   
    46   21   25 1   
    47   21   49 1   
    48   21   50 1   
    49   22   26 1   
    50   22   51 1   
    51   22   52 1   
    52   23   26 1   
    53   23   53 1   
    54   23   54 1   
    55   24   27 1   
    56   24   55 1   
    57   24   56 1   
@<TRIPOS>SUBSTRUCTURE
     1 GBE         1 TEMP              0 ****  ****    0 ROOT
