@<TRIPOS>MOLECULE
GBE
   56    50     1     0     0
SMALL
bcc


@<TRIPOS>ATOM
      1 C1          0.7840    2.7900    1.3140 c         1 GBE      0.582900
      2 O1          1.6230    2.4670   -1.9830 oh        1 GBE     -0.618800
      3 C2          0.6380    1.3700    1.8620 c3        1 GBE      0.130200
      4 O2          1.8690    0.7180    1.5670 oh        1 GBE     -0.616800
      5 C3         -0.4890    0.7180    1.2450 c1        1 GBE     -0.243100
      6 O3          1.6840   -2.2920    1.9550 oh        1 GBE     -0.848000
      7 C4         -1.4060    0.1510    0.7170 cg        1 GBE     -0.059300
      8 O4         -0.0270   -3.4420    0.3980 oh        1 GBE     -0.848000
      9 C5         -2.4010   -0.5470    0.0320 ce        1 GBE     -0.200700
     10 O5          0.4600    3.7680    1.9860 o         1 GBE     -0.547100
     11 C6         -3.7260   -0.3380    0.1830 c2        1 GBE      0.100100
     12 O6         -4.6880   -1.0010   -0.5120 oh        1 GBE     -0.531100
     13 OAA        -0.7040   -2.8440   -2.0130 o         1 GBE     -0.765200
     14 OAB        -2.9630   -2.4330   -2.4940 o         1 GBE     -0.765200
     15 OAG        -1.2770   -1.7620   -4.0290 o         1 GBE     -0.765200
     16 CAH        -2.7470   -4.2600   -4.9720 c3        1 GBE     -0.073400
     17 CAJ         1.6190    1.0560   -1.8930 c3        1 GBE      0.064100
     18 CAL         0.6640    0.3330   -2.8060 c2        1 GBE      0.390200
     19 CAM        -4.4180   -4.9070   -7.2340 c2        1 GBE      0.406200
     20 CAN         3.3930   -1.7410   -0.7670 c2        1 GBE     -0.233500
     21 CAO        -5.3280   -5.1170   -8.3990 c3        1 GBE     -0.146400
     22 CAP         2.6590   -2.6100   -1.4480 c2        1 GBE     -0.233500
     23 CAQ        -1.7750   -4.2550   -3.8240 c3        1 GBE     -0.303600
     24 NAY        -3.6740   -5.8370   -6.7560 n2        1 GBE     -0.608900
     25 NAZ         0.2320    0.8090   -3.9100 n2        1 GBE     -0.804100
     26 SBA        -1.6800   -2.6880   -3.0430 s6        1 GBE      1.454800
     27 H1          1.5840    2.7090   -2.9150 ho        1 GBE      0.414000
     28 H2          1.1980    2.8590    0.2830 h4        1 GBE      0.052200
     29 HO2         0.4980    1.3990    2.9840 h1        1 GBE      0.059700
     30 H3          1.7510   -0.2250    1.7640 ho        1 GBE      0.445000
     31 HO3         1.8120   -2.5740    1.0390 ho        1 GBE      0.422750
     32 H4          0.8210   -2.6520    2.1810 ho        1 GBE      0.422750
     33 HO4         0.1580   -3.9210   -0.4160 ho        1 GBE      0.422750
     34 H5         -0.5690   -2.7020    0.0980 ho        1 GBE      0.422750
     35 H6         -2.0370   -1.3010   -0.6990 ha        1 GBE      0.183000
     36 H6A        -4.1840    0.3800    0.8830 h4        1 GBE      0.145000
     37 HO6        -4.2730   -1.5830   -1.1830 ho        1 GBE      0.483000
     38 HAH        -2.4360   -3.4820   -5.7200 hc        1 GBE      0.054200
     39 HAHA       -3.7660   -3.9790   -4.5910 hc        1 GBE      0.054200
     40 HAJ         2.6580    0.6670   -2.0900 h1        1 GBE      0.057200
     41 HAJA        1.3480    0.8440   -0.8180 h1        1 GBE      0.057200
     42 HAK        -1.7630   -5.9010   -5.9940 h1        1 GBE      0.058700
     43 HAKA       -3.0960   -6.3980   -4.8630 h1        1 GBE      0.058700
     44 HAL        -0.3910    0.2070   -4.4160 hn        1 GBE      0.436400
     45 HALA        0.3990   -0.6800   -2.4130 h4        1 GBE     -0.001200
     46 HAM        -5.0420   -4.4080   -9.2150 hc        1 GBE      0.043700
     47 HAMA       -4.4580   -3.8680   -6.8340 h4        1 GBE     -0.024200
     48 HAN         4.4910   -1.7600   -0.7640 ha        1 GBE      0.117500
     49 HANA        2.9490   -0.9410   -0.1530 ha        1 GBE      0.117500
     50 HAO        -6.3780   -4.8950   -8.0840 hc        1 GBE      0.043700
     51 HAOA       -5.2900   -6.1580   -8.8020 hc        1 GBE      0.043700
     52 HAP         3.1050   -3.4060   -2.0590 ha        1 GBE      0.117500
     53 HAPA        1.5540   -2.5910   -1.4560 ha        1 GBE      0.117500
     54 HAQ        -0.7600   -4.5480   -4.1900 h1        1 GBE      0.077700
     55 HAQA       -2.0760   -5.0260   -3.0730 h1        1 GBE      0.077700
     56 CAK        -2.8000   -5.6320   -5.6370 c3        1 GBE      0.105800
@<TRIPOS>BOND
     1    1    3 1   
     2    1   10 2   
     3    1   28 1   
     4    2   17 1   
     5    2   27 1   
     6    3    4 1   
     7    3    5 1   
     8    3   29 1   
     9    4   30 1   
    10    5    7 3   
    11    6   31 1   
    12    6   32 1   
    13    7    9 1   
    14    8   33 1   
    15    8   34 1   
    16    9   11 2   
    17    9   35 1   
    18   11   12 1   
    19   11   36 1   
    20   12   37 1   
    21   13   26 1   
    22   14   26 1   
    23   15   26 1   
    24   16   23 1   
    25   16   38 1   
    26   16   39 1   
    27   16   56 1   
    28   17   18 1   
    29   17   40 1   
    30   17   41 1   
    31   18   25 2   
    32   18   45 1   
    33   19   21 1   
    34   19   24 2   
    35   19   47 1   
    36   20   22 2   
    37   20   48 1   
    38   20   49 1   
    39   21   46 1   
    40   21   50 1   
    41   21   51 1   
    42   22   52 1   
    43   22   53 1   
    44   23   26 1   
    45   23   54 1   
    46   23   55 1   
    47   24   56 1   
    48   25   44 1   
    49   42   56 1   
    50   43   56 1   
@<TRIPOS>SUBSTRUCTURE
     1 GBE         1 TEMP              0 ****  ****    0 ROOT
