@<TRIPOS>MOLECULE
GBH
   53    54     1     0     0
SMALL
bcc


@<TRIPOS>ATOM
      1 C1         -0.0030    0.1470   -0.0250 c3        1 GBH      0.307900
      2 O1         -0.5610    0.5560   -1.2490 os        1 GBH     -0.410600
      3 C2          1.5200    0.3590   -0.1410 c3        1 GBH      0.092100
      4 O2          2.1070   -0.6570   -0.9320 oh        1 GBH     -0.607800
      5 C3          2.1550    0.2530    1.2510 c3        1 GBH      0.107100
      6 O3          3.5210    0.6290    1.2200 oh        1 GBH     -0.612800
      7 C4          1.4530    1.2270    2.2110 c3        1 GBH      0.121100
      8 O4          1.9200    1.0450    3.5370 oh        1 GBH     -0.599800
      9 C5         -0.0580    0.9460    2.2200 c3        1 GBH      0.109100
     10 O5         -0.5960    1.0520    0.9030 os        1 GBH     -0.452600
     11 C6         -0.7990    1.9900    3.0590 c3        1 GBH      0.141400
     12 O6         -2.1730    1.6880    3.1600 oh        1 GBH     -0.599800
     13 OAA         0.3510   -6.4760   -7.7660 o         1 GBH     -0.750200
     14 OAB        -0.7160   -5.6990   -9.7360 o         1 GBH     -0.750200
     15 OAG        -1.9900   -6.7380   -8.0240 o         1 GBH     -0.750200
     16 CAI        -1.9330    0.1880   -1.4240 c3        1 GBH      0.137400
     17 CAJ        -2.1860    0.1500   -2.9370 c3        1 GBH      0.165800
     18 CAK        -2.6780   -2.1740   -3.4020 c3        1 GBH      0.169800
     19 CAL        -1.3400   -0.8810   -4.9540 c3        1 GBH      0.169800
     20 CAM        -2.2410   -3.4660   -4.1180 c3        1 GBH      0.169800
     21 CAN        -0.9280   -2.1830   -5.6680 c3        1 GBH      0.169800
     22 CAO        -1.5100   -4.4980   -6.1670 c3        1 GBH      0.203800
     23 CAP        -1.0870   -4.3810   -7.6110 c3        1 GBH     -0.291600
     24 NAX        -1.7300   -1.0800   -3.5640 n3        1 GBH     -0.735600
     25 NAY        -1.9050   -3.2480   -5.5170 n3        1 GBH     -0.728600
     26 SAZ        -0.8380   -5.9890   -8.3580 s6        1 GBH      1.427800
     27 H1         -0.2570   -0.9160    0.2420 h2        1 GBH      0.059700
     28 H2          1.7280    1.3680   -0.5940 h1        1 GBH      0.074700
     29 HO2         1.6280   -0.6700   -1.7740 ho        1 GBH      0.439000
     30 H3          2.0680   -0.8030    1.6320 h1        1 GBH      0.064700
     31 HO3         3.9360    0.0990    0.5250 ho        1 GBH      0.430000
     32 H4          1.6510    2.2850    1.8820 h1        1 GBH      0.061700
     33 HO4         2.8860    1.0840    3.4910 ho        1 GBH      0.424000
     34 H5         -0.2530   -0.0860    2.6230 h1        1 GBH      0.065700
     35 H6         -0.4050    1.9650    4.1100 h1        1 GBH      0.060700
     36 H6A        -0.6560    3.0100    2.6120 h1        1 GBH      0.060700
     37 HO6        -2.5180    1.6390    2.2590 ho        1 GBH      0.412000
     38 HAI        -2.1480   -0.7940   -0.9290 h1        1 GBH      0.039200
     39 HAIA       -2.5620    0.9890   -0.9530 h1        1 GBH      0.039200
     40 HAJ        -1.6360    1.0210   -3.3940 h1        1 GBH      0.042200
     41 HAJA       -3.2920    0.3210   -3.0900 h1        1 GBH      0.042200
     42 HAK        -2.7600   -2.3980   -2.3020 h1        1 GBH      0.025950
     43 HAKA       -3.7070   -1.8880   -3.7710 h1        1 GBH      0.025950
     44 HAL        -0.4530   -0.1880   -4.9620 h1        1 GBH      0.025950
     45 HALA       -2.1670   -0.3910   -5.5460 h1        1 GBH      0.025950
     46 HAM        -3.1040   -4.1880   -4.0800 h1        1 GBH      0.038450
     47 HAMA       -1.3840   -3.9240   -3.5410 h1        1 GBH      0.038450
     48 HAN         0.0930   -2.4900   -5.2970 h1        1 GBH      0.038450
     49 HANA       -0.8420   -1.9520   -6.7670 h1        1 GBH      0.038450
     50 HAO        -0.6690   -4.9980   -5.5970 h1        1 GBH      0.045200
     51 HAOA       -2.4120   -5.1780   -6.1180 h1        1 GBH      0.045200
     52 HAP        -1.8550   -3.8300   -8.2030 h1        1 GBH      0.067700
     53 HAPA       -0.1310   -3.8120   -7.6960 h1        1 GBH      0.067700
@<TRIPOS>BOND
     1    1    2 1   
     2    1    3 1   
     3    1   10 1   
     4    1   27 1   
     5    2   16 1   
     6    3    4 1   
     7    3    5 1   
     8    3   28 1   
     9    4   29 1   
    10    5    6 1   
    11    5    7 1   
    12    5   30 1   
    13    6   31 1   
    14    7    8 1   
    15    7    9 1   
    16    7   32 1   
    17    8   33 1   
    18    9   10 1   
    19    9   11 1   
    20    9   34 1   
    21   11   12 1   
    22   11   35 1   
    23   11   36 1   
    24   12   37 1   
    25   13   26 1   
    26   14   26 1   
    27   15   26 1   
    28   16   17 1   
    29   16   38 1   
    30   16   39 1   
    31   17   24 1   
    32   17   40 1   
    33   17   41 1   
    34   18   20 1   
    35   18   24 1   
    36   18   42 1   
    37   18   43 1   
    38   19   21 1   
    39   19   24 1   
    40   19   44 1   
    41   19   45 1   
    42   20   25 1   
    43   20   46 1   
    44   20   47 1   
    45   21   25 1   
    46   21   48 1   
    47   21   49 1   
    48   22   23 1   
    49   22   25 1   
    50   22   50 1   
    51   22   51 1   
    52   23   26 1   
    53   23   52 1   
    54   23   53 1   
@<TRIPOS>SUBSTRUCTURE
     1 GBH         1 TEMP              0 ****  ****    0 ROOT
