@<TRIPOS>MOLECULE
GBH
   53    54     1     0     0
SMALL
bcc


@<TRIPOS>ATOM
      1 C1          3.3340   -0.0230    0.0210 c3        1 GBH      0.307900
      2 O1          2.4560   -0.7960    0.8000 os        1 GBH     -0.410600
      3 C2          3.5550    1.2980    0.7850 c3        1 GBH      0.092100
      4 O2          2.4310    2.1480    0.6510 oh        1 GBH     -0.607800
      5 C3          4.7460    2.0460    0.1720 c3        1 GBH      0.107100
      6 O3          5.1050    3.1700    0.9590 oh        1 GBH     -0.612800
      7 C4          5.9730    1.1210    0.1420 c3        1 GBH      0.121100
      8 O4          7.0450    1.7360   -0.5520 oh        1 GBH     -0.599800
      9 C5          5.6270   -0.1720   -0.6130 c3        1 GBH      0.109100
     10 O5          4.5120   -0.8250   -0.0060 os        1 GBH     -0.452600
     11 C6          6.7860   -1.1700   -0.5370 c3        1 GBH      0.141400
     12 O6          6.5240   -2.3210   -1.3100 oh        1 GBH     -0.599800
     13 OAA        -6.6110    2.0830   -0.7060 o         1 GBH     -0.750200
     14 OAB        -7.9880    0.6370    0.5750 o         1 GBH     -0.750200
     15 OAG        -7.2790   -0.0090   -1.5970 o         1 GBH     -0.750200
     16 CAI         1.9300   -1.9460    0.1290 c3        1 GBH      0.137400
     17 CAJ         0.6100   -2.2950    0.8300 c3        1 GBH      0.165800
     18 CAK        -1.0810   -1.9330   -0.8640 c3        1 GBH      0.169800
     19 CAL        -1.5100   -1.3050    1.4360 c3        1 GBH      0.169800
     20 CAM        -2.3070   -1.1130   -1.3060 c3        1 GBH      0.169800
     21 CAN        -2.7450   -0.5050    0.9770 c3        1 GBH      0.169800
     22 CAO        -4.4710   -0.2320   -0.7240 c3        1 GBH      0.203800
     23 CAP        -5.5590   -0.0080    0.2970 c3        1 GBH     -0.291600
     24 NAX        -0.5060   -1.4730    0.3930 n3        1 GBH     -0.735600
     25 NAY        -3.3160   -1.0030   -0.2630 n3        1 GBH     -0.728600
     26 SAZ        -7.0060    0.7510   -0.4360 s6        1 GBH      1.427800
     27 H1          2.9550    0.1580   -1.0230 h2        1 GBH      0.059700
     28 H2          3.7440    1.0800    1.8720 h1        1 GBH      0.074700
     29 HO2         1.6570    1.6360    0.9280 ho        1 GBH      0.439000
     30 H3          4.4880    2.3890   -0.8690 h1        1 GBH      0.064700
     31 HO3         4.2980    3.6880    1.0810 ho        1 GBH      0.430000
     32 H4          6.2900    0.8850    1.1960 h1        1 GBH      0.061700
     33 HO4         7.1580    2.6110   -0.1550 ho        1 GBH      0.424000
     34 H5          5.3860    0.0630   -1.6860 h1        1 GBH      0.065700
     35 H6          7.7020   -0.7040   -0.9890 h1        1 GBH      0.060700
     36 H6A         6.9770   -1.4530    0.5320 h1        1 GBH      0.060700
     37 HO6         5.6990   -2.7010   -0.9780 ho        1 GBH      0.412000
     38 HAI         1.7920   -1.7400   -0.9640 h1        1 GBH      0.039200
     39 HAIA        2.6650   -2.7830    0.2620 h1        1 GBH      0.039200
     40 HAJ         0.4250   -3.3950    0.6520 h1        1 GBH      0.042200
     41 HAJA        0.7650   -2.1460    1.9370 h1        1 GBH      0.042200
     42 HAK        -1.3750   -3.0220   -0.8100 h1        1 GBH      0.025950
     43 HAKA       -0.2910   -1.8320   -1.6600 h1        1 GBH      0.025950
     44 HAL        -1.0300   -0.7400    2.2830 h1        1 GBH      0.025950
     45 HALA       -1.8560   -2.3020    1.8380 h1        1 GBH      0.025950
     46 HAM        -1.9530   -0.1020   -1.6640 h1        1 GBH      0.038450
     47 HAMA       -2.7750   -1.6420   -2.1830 h1        1 GBH      0.038450
     48 HAN        -3.5290   -0.6040    1.7790 h1        1 GBH      0.038450
     49 HANA       -2.4600    0.5860    0.9030 h1        1 GBH      0.038450
     50 HAO        -4.9130   -0.8110   -1.5880 h1        1 GBH      0.045200
     51 HAOA       -4.1470    0.7800   -1.1160 h1        1 GBH      0.045200
     52 HAP        -5.8650   -0.9730    0.7650 h1        1 GBH      0.067700
     53 HAPA       -5.2000    0.6600    1.1160 h1        1 GBH      0.067700
@<TRIPOS>BOND
     1    1    2 1   
     2    1    3 1   
     3    1   10 1   
     4    1   27 1   
     5    2   16 1   
     6    3    4 1   
     7    3    5 1   
     8    3   28 1   
     9    4   29 1   
    10    5    6 1   
    11    5    7 1   
    12    5   30 1   
    13    6   31 1   
    14    7    8 1   
    15    7    9 1   
    16    7   32 1   
    17    8   33 1   
    18    9   10 1   
    19    9   11 1   
    20    9   34 1   
    21   11   12 1   
    22   11   35 1   
    23   11   36 1   
    24   12   37 1   
    25   13   26 1   
    26   14   26 1   
    27   15   26 1   
    28   16   17 1   
    29   16   38 1   
    30   16   39 1   
    31   17   24 1   
    32   17   40 1   
    33   17   41 1   
    34   18   20 1   
    35   18   24 1   
    36   18   42 1   
    37   18   43 1   
    38   19   21 1   
    39   19   24 1   
    40   19   44 1   
    41   19   45 1   
    42   20   25 1   
    43   20   46 1   
    44   20   47 1   
    45   21   25 1   
    46   21   48 1   
    47   21   49 1   
    48   22   23 1   
    49   22   25 1   
    50   22   50 1   
    51   22   51 1   
    52   23   26 1   
    53   23   52 1   
    54   23   53 1   
@<TRIPOS>SUBSTRUCTURE
     1 GBH         1 TEMP              0 ****  ****    0 ROOT
