@<TRIPOS>MOLECULE
GBH
   53    54     1     0     0
SMALL
bcc


@<TRIPOS>ATOM
      1 C1          1.7560   -0.3330    2.2730 c3        1 GBH      0.307900
      2 O1          1.4090    0.0930    1.0020 os        1 GBH     -0.427600
      3 C2          2.9560   -1.2460    2.1700 c3        1 GBH      0.088100
      4 O2          2.5610   -2.4620    1.4830 oh        1 GBH     -0.608800
      5 C3          3.5040   -1.6030    3.4970 c3        1 GBH      0.108100
      6 O3          4.7370   -2.3180    3.3130 oh        1 GBH     -0.611800
      7 C4          3.7660   -0.3920    4.3490 c3        1 GBH      0.113100
      8 O4          4.1270   -0.8260    5.6800 oh        1 GBH     -0.611800
      9 C5          2.5620    0.5180    4.4420 c3        1 GBH      0.108100
     10 O5          2.0200    0.8650    3.1290 os        1 GBH     -0.426600
     11 C6          2.9610    1.7940    5.1640 c3        1 GBH      0.144400
     12 O6          2.6430    1.6770    6.5430 oh        1 GBH     -0.600800
     13 OAA        -6.3070   -0.6520   -5.3200 o         1 GBH     -0.750200
     14 OAB        -5.8890    1.8090   -5.3060 o         1 GBH     -0.750200
     15 OAG        -5.7940    0.3910   -7.3510 o         1 GBH     -0.750200
     16 CAI        -0.0030    0.1140    0.7600 c3        1 GBH      0.134400
     17 CAJ        -0.2650    0.1110   -0.7880 c3        1 GBH      0.158800
     18 CAK        -2.3520   -0.6670   -1.5100 c3        1 GBH      0.122800
     19 CAL        -1.6740    1.5660   -1.9720 c3        1 GBH      0.122800
     20 CAM        -1.9350   -1.0800   -2.9060 c3        1 GBH      0.136300
     21 CAN        -1.2590    1.1530   -3.3690 c3        1 GBH      0.136300
     22 CAO        -3.3890    0.3940   -4.1020 c3        1 GBH      0.195800
     23 CAP        -3.6980    0.1970   -5.5840 c3        1 GBH     -0.290600
     24 NAX        -1.6350    0.4730   -1.0440 n3        1 GBH     -0.717600
     25 NAY        -1.9750    0.0150   -3.8340 n3        1 GBH     -0.716600
     26 SAZ        -5.4670    0.4790   -5.8810 s6        1 GBH      1.426800
     27 H1          0.9880   -0.8490    2.6640 h2        1 GBH      0.053700
     28 H2          3.6430   -0.8050    1.6550 h1        1 GBH      0.077700
     29 HO2         3.2270   -2.7210    0.9140 ho        1 GBH      0.430000
     30 H3          2.8630   -2.1870    3.9610 h1        1 GBH      0.062700
     31 HO3         4.6050   -3.1960    3.4910 ho        1 GBH      0.428000
     32 H4          4.5150    0.1100    3.9650 h1        1 GBH      0.064700
     33 HO4         5.0180   -0.9120    5.7340 ho        1 GBH      0.428000
     34 H5          1.8600    0.0640    4.9640 h1        1 GBH      0.065700
     35 H6          2.4700    2.5570    4.7780 h1        1 GBH      0.059200
     36 H6A         3.9210    1.9390    5.0640 h1        1 GBH      0.059200
     37 HO6         2.6690    2.4930    6.9280 ho        1 GBH      0.417000
     38 HAI        -0.3970    0.9310    1.1600 h1        1 GBH      0.045700
     39 HAIA       -0.4180   -0.6820    1.1660 h1        1 GBH      0.045700
     40 HAJ        -0.0880   -0.7970   -1.1520 h1        1 GBH      0.042200
     41 HAJA        0.3350    0.7630   -1.2240 h1        1 GBH      0.042200
     42 HAK        -3.3090   -0.4580   -1.5150 h1        1 GBH      0.054700
     43 HAKA       -2.1970   -1.4030   -0.9060 h1        1 GBH      0.054700
     44 HAL        -1.0640    2.2750   -1.6550 h1        1 GBH      0.054700
     45 HALA       -2.5810    1.9200   -2.0050 h1        1 GBH      0.054700
     46 HAM        -2.5430   -1.7920   -3.2240 h1        1 GBH      0.048700
     47 HAMA       -0.9990   -1.4420   -2.8710 h1        1 GBH      0.048700
     48 HAN        -0.3040    0.9470   -3.3670 h1        1 GBH      0.048700
     49 HANA       -1.4210    1.8920   -3.9740 h1        1 GBH      0.048700
     50 HAO        -3.9920   -0.1750   -3.5620 h1        1 GBH      0.044200
     51 HAOA       -3.5260    1.3450   -3.8600 h1        1 GBH      0.044200
     52 HAP        -3.1700    0.8390   -6.1160 h1        1 GBH      0.067700
     53 HAPA       -3.4620   -0.7250   -5.8510 h1        1 GBH      0.067700
@<TRIPOS>BOND
     1    1    2 1   
     2    1    3 1   
     3    1   10 1   
     4    1   27 1   
     5    2   16 1   
     6    3    4 1   
     7    3    5 1   
     8    3   28 1   
     9    4   29 1   
    10    5    6 1   
    11    5    7 1   
    12    5   30 1   
    13    6   31 1   
    14    7    8 1   
    15    7    9 1   
    16    7   32 1   
    17    8   33 1   
    18    9   10 1   
    19    9   11 1   
    20    9   34 1   
    21   11   12 1   
    22   11   35 1   
    23   11   36 1   
    24   12   37 1   
    25   13   26 1   
    26   14   26 1   
    27   15   26 1   
    28   16   17 1   
    29   16   38 1   
    30   16   39 1   
    31   17   24 1   
    32   17   40 1   
    33   17   41 1   
    34   18   20 1   
    35   18   24 1   
    36   18   42 1   
    37   18   43 1   
    38   19   21 1   
    39   19   24 1   
    40   19   44 1   
    41   19   45 1   
    42   20   25 1   
    43   20   46 1   
    44   20   47 1   
    45   21   25 1   
    46   21   48 1   
    47   21   49 1   
    48   22   23 1   
    49   22   25 1   
    50   22   50 1   
    51   22   51 1   
    52   23   26 1   
    53   23   52 1   
    54   23   53 1   
@<TRIPOS>SUBSTRUCTURE
     1 GBH         1 TEMP              0 ****  ****    0 ROOT
