@<TRIPOS>MOLECULE
GBH
   53    54     1     0     0
SMALL
bcc


@<TRIPOS>ATOM
      1 C1         -0.0010    0.1490   -0.0240 c3        1 GBH      0.307900
      2 O1         -0.5740    0.5500   -1.2440 os        1 GBH     -0.410600
      3 C2          1.5170    0.3830   -0.1520 c3        1 GBH      0.092100
      4 O2          2.1130   -0.6240   -0.9480 oh        1 GBH     -0.607800
      5 C3          2.1640    0.2860    1.2360 c3        1 GBH      0.107100
      6 O3          3.5250    0.6810    1.1940 oh        1 GBH     -0.612800
      7 C4          1.4560    1.2500    2.2010 c3        1 GBH      0.121100
      8 O4          1.9360    1.0750    3.5230 oh        1 GBH     -0.599800
      9 C5         -0.0500    0.9470    2.2220 c3        1 GBH      0.109100
     10 O5         -0.6000    1.0460    0.9080 os        1 GBH     -0.452600
     11 C6         -0.8000    1.9820    3.0660 c3        1 GBH      0.141400
     12 O6         -2.1690    1.6600    3.1780 oh        1 GBH     -0.599800
     13 OAA         0.3720   -6.4510   -7.7910 o         1 GBH     -0.750200
     14 OAB        -0.7230   -5.6810   -9.7500 o         1 GBH     -0.750200
     15 OAG        -1.9680   -6.7420   -8.0290 o         1 GBH     -0.750200
     16 CAI        -1.9430    0.1630   -1.4070 c3        1 GBH      0.137400
     17 CAJ        -2.2080    0.1260   -2.9180 c3        1 GBH      0.165800
     18 CAK        -2.6730   -2.2030   -3.3860 c3        1 GBH      0.169800
     19 CAL        -1.3670   -0.8870   -4.9450 c3        1 GBH      0.169800
     20 CAM        -2.2250   -3.4870   -4.1100 c3        1 GBH      0.170300
     21 CAN        -0.9440   -2.1810   -5.6680 c3        1 GBH      0.170300
     22 CAO        -1.4990   -4.5030   -6.1690 c3        1 GBH      0.203800
     23 CAP        -1.0910   -4.3750   -7.6160 c3        1 GBH     -0.291600
     24 NAX        -1.7410   -1.0960   -3.5530 n3        1 GBH     -0.735600
     25 NAY        -1.9050   -3.2600   -5.5110 n3        1 GBH     -0.728600
     26 SAZ        -0.8280   -5.9770   -8.3710 s6        1 GBH      1.427800
     27 H1         -0.2380   -0.9170    0.2450 h2        1 GBH      0.059700
     28 H2          1.7080    1.3950   -0.6060 h1        1 GBH      0.074700
     29 HO2         1.6280   -0.6440   -1.7850 ho        1 GBH      0.439000
     30 H3          2.0960   -0.7710    1.6170 h1        1 GBH      0.064700
     31 HO3         3.9420    0.1580    0.4960 ho        1 GBH      0.430000
     32 H4          1.6370    2.3110    1.8710 h1        1 GBH      0.061700
     33 HO4         2.9000    1.1270    3.4710 ho        1 GBH      0.424000
     34 H5         -0.2280   -0.0870    2.6260 h1        1 GBH      0.065700
     35 H6         -0.6750    3.0030    2.6190 h1        1 GBH      0.060700
     36 H6A        -0.3970    1.9620    4.1140 h1        1 GBH      0.060700
     37 HO6        -2.5200    1.6060    2.2790 ho        1 GBH      0.412000
     38 HAI        -2.1390   -0.8230   -0.9140 h1        1 GBH      0.039200
     39 HAIA       -2.5790    0.9530   -0.9280 h1        1 GBH      0.039200
     40 HAJ        -1.6740    1.0060   -3.3780 h1        1 GBH      0.042200
     41 HAJA       -3.3180    0.2830   -3.0610 h1        1 GBH      0.042200
     42 HAK        -2.7420   -2.4320   -2.2860 h1        1 GBH      0.025950
     43 HAKA       -3.7090   -1.9300   -3.7450 h1        1 GBH      0.025950
     44 HAL        -0.4890   -0.1830   -4.9600 h1        1 GBH      0.025950
     45 HALA       -2.2050   -0.4060   -5.5290 h1        1 GBH      0.025950
     46 HAM        -1.3570   -3.9350   -3.5420 h1        1 GBH      0.038450
     47 HAMA       -3.0780   -4.2200   -4.0660 h1        1 GBH      0.038450
     48 HAN        -0.8700   -1.9460   -6.7670 h1        1 GBH      0.038450
     49 HANA        0.0850   -2.4760   -5.3060 h1        1 GBH      0.038450
     50 HAO        -0.6470   -4.9930   -5.6080 h1        1 GBH      0.045200
     51 HAOA       -2.3920   -5.1940   -6.1140 h1        1 GBH      0.045200
     52 HAP        -0.1430   -3.7940   -7.7080 h1        1 GBH      0.067700
     53 HAPA       -1.8710   -3.8330   -8.1990 h1        1 GBH      0.067700
@<TRIPOS>BOND
     1    1    2 1   
     2    1    3 1   
     3    1   10 1   
     4    1   27 1   
     5    2   16 1   
     6    3    4 1   
     7    3    5 1   
     8    3   28 1   
     9    4   29 1   
    10    5    6 1   
    11    5    7 1   
    12    5   30 1   
    13    6   31 1   
    14    7    8 1   
    15    7    9 1   
    16    7   32 1   
    17    8   33 1   
    18    9   10 1   
    19    9   11 1   
    20    9   34 1   
    21   11   12 1   
    22   11   35 1   
    23   11   36 1   
    24   12   37 1   
    25   13   26 1   
    26   14   26 1   
    27   15   26 1   
    28   16   17 1   
    29   16   38 1   
    30   16   39 1   
    31   17   24 1   
    32   17   40 1   
    33   17   41 1   
    34   18   20 1   
    35   18   24 1   
    36   18   42 1   
    37   18   43 1   
    38   19   21 1   
    39   19   24 1   
    40   19   44 1   
    41   19   45 1   
    42   20   25 1   
    43   20   46 1   
    44   20   47 1   
    45   21   25 1   
    46   21   48 1   
    47   21   49 1   
    48   22   23 1   
    49   22   25 1   
    50   22   50 1   
    51   22   51 1   
    52   23   26 1   
    53   23   52 1   
    54   23   53 1   
@<TRIPOS>SUBSTRUCTURE
     1 GBH         1 TEMP              0 ****  ****    0 ROOT
