@<TRIPOS>MOLECULE
GBH
   53    54     1     0     0
SMALL
bcc


@<TRIPOS>ATOM
      1 C1          0.0030    0.1420   -0.0170 c3        1 GBH      0.306900
      2 O1         -0.5640    0.5370   -1.2410 os        1 GBH     -0.410600
      3 C2          1.5240    0.3650   -0.1420 c3        1 GBH      0.092100
      4 O2          2.1150   -0.6510   -0.9290 oh        1 GBH     -0.607800
      5 C3          2.1660    0.2730    1.2480 c3        1 GBH      0.107100
      6 O3          3.5300    0.6590    1.2080 oh        1 GBH     -0.612800
      7 C4          1.4610    1.2480    2.2050 c3        1 GBH      0.121100
      8 O4          1.9370    1.0790    3.5300 oh        1 GBH     -0.599800
      9 C5         -0.0470    0.9550    2.2240 c3        1 GBH      0.109100
     10 O5         -0.5930    1.0490    0.9080 os        1 GBH     -0.452600
     11 C6         -0.7920    2.0000    3.0590 c3        1 GBH      0.141400
     12 O6         -2.1630    1.6870    3.1680 oh        1 GBH     -0.599800
     13 OAA         0.3560   -6.4510   -7.8060 o         1 GBH     -0.750200
     14 OAB        -0.7380   -5.6730   -9.7620 o         1 GBH     -0.750200
     15 OAG        -1.9850   -6.7330   -8.0430 o         1 GBH     -0.750200
     16 CAI        -1.9340    0.1570   -1.4050 c3        1 GBH      0.137400
     17 CAJ        -2.1980    0.1250   -2.9170 c3        1 GBH      0.166800
     18 CAK        -2.6750   -2.2000   -3.3920 c3        1 GBH      0.169800
     19 CAL        -1.3610   -0.8870   -4.9460 c3        1 GBH      0.169800
     20 CAM        -2.2330   -3.4840   -4.1180 c3        1 GBH      0.169800
     21 CAN        -0.9440   -2.1810   -5.6710 c3        1 GBH      0.169800
     22 CAO        -1.5100   -4.4980   -6.1790 c3        1 GBH      0.203800
     23 CAP        -1.0990   -4.3700   -7.6250 c3        1 GBH     -0.291600
     24 NAX        -1.7380   -1.0970   -3.5540 n3        1 GBH     -0.735600
     25 NAY        -1.9100   -3.2550   -5.5180 n3        1 GBH     -0.728600
     26 SAZ        -0.8430   -5.9710   -8.3830 s6        1 GBH      1.427800
     27 H1         -0.2410   -0.9210    0.2600 h2        1 GBH      0.059700
     28 H2          1.7220    1.3730   -0.6020 h1        1 GBH      0.074700
     29 HO2         1.6330   -0.6720   -1.7690 ho        1 GBH      0.439000
     30 H3          2.0900   -0.7810    1.6370 h1        1 GBH      0.063700
     31 HO3         3.9450    0.1290    0.5140 ho        1 GBH      0.430000
     32 H4          1.6500    2.3050    1.8680 h1        1 GBH      0.061700
     33 HO4         2.9010    1.1250    3.4800 ho        1 GBH      0.424000
     34 H5         -0.2330   -0.0760    2.6340 h1        1 GBH      0.065700
     35 H6         -0.3930    1.9840    4.1080 h1        1 GBH      0.060700
     36 H6A        -0.6590    3.0170    2.6050 h1        1 GBH      0.060700
     37 HO6        -2.5120    1.6310    2.2690 ho        1 GBH      0.412000
     38 HAI        -2.1330   -0.8300   -0.9150 h1        1 GBH      0.039200
     39 HAIA       -2.5680    0.9480   -0.9240 h1        1 GBH      0.039200
     40 HAJ        -3.3080    0.2880   -3.0590 h1        1 GBH      0.042200
     41 HAJA       -1.6600    1.0040   -3.3730 h1        1 GBH      0.042200
     42 HAK        -2.7470   -2.4310   -2.2920 h1        1 GBH      0.025950
     43 HAKA       -3.7100   -1.9210   -3.7510 h1        1 GBH      0.025950
     44 HAL        -2.1970   -0.4010   -5.5290 h1        1 GBH      0.025950
     45 HALA       -0.4790   -0.1870   -4.9570 h1        1 GBH      0.025950
     46 HAM        -3.0900   -4.2130   -4.0770 h1        1 GBH      0.038200
     47 HAMA       -1.3680   -3.9380   -3.5510 h1        1 GBH      0.038200
     48 HAN        -0.8680   -1.9430   -6.7690 h1        1 GBH      0.038200
     49 HANA        0.0830   -2.4820   -5.3100 h1        1 GBH      0.038200
     50 HAO        -0.6610   -4.9940   -5.6180 h1        1 GBH      0.045200
     51 HAOA       -2.4060   -5.1860   -6.1270 h1        1 GBH      0.045200
     52 HAP        -1.8770   -3.8220   -8.2080 h1        1 GBH      0.067700
     53 HAPA       -0.1490   -3.7920   -7.7150 h1        1 GBH      0.067700
@<TRIPOS>BOND
     1    1    2 1   
     2    1    3 1   
     3    1   10 1   
     4    1   27 1   
     5    2   16 1   
     6    3    4 1   
     7    3    5 1   
     8    3   28 1   
     9    4   29 1   
    10    5    6 1   
    11    5    7 1   
    12    5   30 1   
    13    6   31 1   
    14    7    8 1   
    15    7    9 1   
    16    7   32 1   
    17    8   33 1   
    18    9   10 1   
    19    9   11 1   
    20    9   34 1   
    21   11   12 1   
    22   11   35 1   
    23   11   36 1   
    24   12   37 1   
    25   13   26 1   
    26   14   26 1   
    27   15   26 1   
    28   16   17 1   
    29   16   38 1   
    30   16   39 1   
    31   17   24 1   
    32   17   40 1   
    33   17   41 1   
    34   18   20 1   
    35   18   24 1   
    36   18   42 1   
    37   18   43 1   
    38   19   21 1   
    39   19   24 1   
    40   19   44 1   
    41   19   45 1   
    42   20   25 1   
    43   20   46 1   
    44   20   47 1   
    45   21   25 1   
    46   21   48 1   
    47   21   49 1   
    48   22   23 1   
    49   22   25 1   
    50   22   50 1   
    51   22   51 1   
    52   23   26 1   
    53   23   52 1   
    54   23   53 1   
@<TRIPOS>SUBSTRUCTURE
     1 GBH         1 TEMP              0 ****  ****    0 ROOT
