@<TRIPOS>MOLECULE
GBI
   51    51     1     0     0
SMALL
bcc


@<TRIPOS>ATOM
      1 N1         -0.0340    0.4730    0.5080 nz        1 GBI     -0.828600
      2 CA1         0.3630    1.1150   -0.7830 c3        1 GBI     -0.070500
      3 C1          0.7160   -0.0220   -1.8360 c         1 GBI      0.956600
      4 O11         0.3950   -1.1870   -1.5230 o         1 GBI     -0.789800
      5 O12         1.2640    0.3700   -2.8980 o         1 GBI     -0.789800
      6 CB1         1.5130    2.1030   -0.6090 c3        1 GBI     -0.071400
      7 CG1         1.6720    2.9830   -1.8390 c3        1 GBI     -0.130400
      8 CD1         2.7190    2.4370   -2.7680 c         1 GBI      0.596100
      9 OE1         3.8440    2.0600   -2.4780 o         1 GBI     -0.427100
     10 N2          2.3800    2.3480   -4.2430 ny        1 GBI     -0.682800
     11 CA2         2.2250    3.6600   -4.9310 c3        1 GBI      0.062500
     12 C2          0.8960    4.3700   -4.5870 c         1 GBI      0.638100
     13 O2          0.9440    5.4500   -3.9770 o         1 GBI     -0.540100
     14 CB2         2.3810    3.5350   -6.4450 c3        1 GBI     -0.068300
     15 SG2         3.9260    2.7420   -6.7720 ss        1 GBI     -0.289200
     16 N3         -0.2860    3.8120   -5.0250 ns        1 GBI     -0.542900
     17 CA3        -1.5520    4.3810   -4.6630 c3        1 GBI     -0.008000
     18 C3         -2.1080    3.8880   -3.3370 c         1 GBI      0.619100
     19 O31        -3.3600    4.2610   -2.9700 oh        1 GBI     -0.549100
     20 O32        -1.5350    3.1690   -2.5140 o         1 GBI     -0.539000
     21 C'          3.5950    1.7300   -8.2070 c3        1 GBI      0.067000
     22 C1'         4.8150    0.9240   -8.4140 ca        1 GBI     -0.120300
     23 C2'         5.9190    1.4800   -9.0730 ca        1 GBI     -0.068000
     24 C3'         7.0680    0.7190   -9.2820 ca        1 GBI      0.017900
     25 I3'         8.6550    1.5340  -10.2290 i         1 GBI     -0.108900
     26 C4'         7.1180   -0.6030   -8.8390 ca        1 GBI     -0.069000
     27 C5'         6.0180   -1.1630   -8.1870 ca        1 GBI     -0.129000
     28 C6'         4.8690   -0.4060   -7.9730 ca        1 GBI     -0.092000
     29 HN11       -0.8050    0.9730    0.9460 hn        1 GBI      0.458133
     30 HN12       -0.3220   -0.5040    0.2790 hn        1 GBI      0.458133
     31 HA1        -0.5500    1.6470   -1.1880 hx        1 GBI      0.130700
     32 HB11        1.3130    2.7810    0.2660 hc        1 GBI      0.074200
     33 HB12        2.4680    1.5480   -0.4050 hc        1 GBI      0.074200
     34 HG11        0.6790    3.1070   -2.3530 hc        1 GBI      0.111200
     35 HG12        2.0270    4.0070   -1.5280 hc        1 GBI      0.111200
     36 HN2         3.1510    1.8300   -4.7270 hn        1 GBI      0.490300
     37 HA2         3.0530    4.3400   -4.5450 hx        1 GBI      0.146700
     38 HB21        1.5390    2.9690   -6.9120 h1        1 GBI      0.102700
     39 HB22        2.3740    4.5700   -6.8750 h1        1 GBI      0.102700
     40 HN3        -0.2940    2.8860   -5.3840 hn        1 GBI      0.327500
     41 HA31       -1.4450    5.5060   -4.5880 h1        1 GBI      0.110700
     42 HA32       -2.2970    4.1380   -5.4750 h1        1 GBI      0.110700
     43 H'1         2.6990    1.0870   -8.0330 h1        1 GBI      0.078700
     44 H'2         3.3910    2.3900   -9.0870 h1        1 GBI      0.078700
     45 H2'         5.8700    2.5240   -9.4250 ha        1 GBI      0.152000
     46 H4'         8.0210   -1.2150   -9.0020 ha        1 GBI      0.158000
     47 H5'         6.0590   -2.2090   -7.8440 ha        1 GBI      0.151000
     48 H6'         4.0030   -0.8560   -7.4640 ha        1 GBI      0.136000
     49 H13         0.7590    0.4340    1.1490 hn        1 GBI      0.458133
     50 H22         1.5210    1.7750   -4.3180 hn        1 GBI      0.490300
     51 H32        -3.7580    4.8360   -3.6420 ho        1 GBI      0.444000
@<TRIPOS>BOND
     1    1    2 1   
     2    1   29 1   
     3    1   30 1   
     4    1   49 1   
     5    2    3 1   
     6    2    6 1   
     7    2   31 1   
     8    3    4 1   
     9    3    5 1   
    10    6    7 1   
    11    6   32 1   
    12    6   33 1   
    13    7    8 1   
    14    7   34 1   
    15    7   35 1   
    16    8    9 2   
    17    8   10 1   
    18   10   11 1   
    19   10   36 1   
    20   10   50 1   
    21   11   12 1   
    22   11   14 1   
    23   11   37 1   
    24   12   13 2   
    25   12   16 1   
    26   14   15 1   
    27   14   38 1   
    28   14   39 1   
    29   15   21 1   
    30   16   17 1   
    31   16   40 1   
    32   17   18 1   
    33   17   41 1   
    34   17   42 1   
    35   18   19 1   
    36   18   20 2   
    37   19   51 1   
    38   21   22 1   
    39   21   43 1   
    40   21   44 1   
    41   22   23 ar  
    42   22   28 ar  
    43   23   24 ar  
    44   23   45 1   
    45   24   25 1   
    46   24   26 ar  
    47   26   27 ar  
    48   26   46 1   
    49   27   28 ar  
    50   27   47 1   
    51   28   48 1   
@<TRIPOS>SUBSTRUCTURE
     1 GBI         1 TEMP              0 ****  ****    0 ROOT
