@<TRIPOS>MOLECULE
GBI
   48    46     1     0     0
SMALL
bcc


@<TRIPOS>ATOM
      1 N1         -3.7490   -2.7830    4.4430 n3        1 GBI     -0.326000
      2 CA1        -2.5940   -2.8780    3.6030 c3        1 GBI     -0.124000
      3 C1         -1.4830   -3.5220    4.3560 c2        1 GBI      0.309000
      4 O11        -1.1390   -3.0690    5.4730 o         1 GBI     -0.584500
      5 O12        -0.8430   -4.4740    3.8380 o         1 GBI     -0.584500
      6 CB1        -2.1690   -1.4850    3.1660 c3        1 GBI     -0.145000
      7 CG1        -2.3210   -1.3570    1.6700 c3        1 GBI     -0.173000
      8 CD1        -1.6710   -0.0480    1.2030 c2        1 GBI      0.300000
      9 OE1        -1.0380    0.6220    1.9820 o         1 GBI     -0.388000
     10 N2         -1.7900    0.3650   -0.1790 n         1 GBI     -0.363000
     11 CA2        -0.9050    1.3610   -0.7090 c3        1 GBI      0.000000
     12 C2         -1.6730    2.6190   -0.9780 c2        1 GBI      0.259000
     13 O2         -2.6650    2.5840   -1.6600 o         1 GBI     -0.424000
     14 CB2        -0.2970    0.8590   -2.0050 c3        1 GBI     -0.278000
     15 SG2         1.4180    0.4500   -1.7370 ss        1 GBI      0.047000
     16 N3         -1.2400    3.8360   -0.4310 n         1 GBI     -0.322000
     17 CA3        -1.9370    5.0320   -0.7200 c3        1 GBI     -0.115000
     18 C3         -1.4490    6.1300    0.1970 c2        1 GBI      0.327000
     19 O31        -0.4980    6.8650   -0.1590 o         1 GBI     -0.576000
     20 O32        -2.0620    6.3720    1.2660 o         1 GBI     -0.576000
     21 C'          1.8360   -1.0200   -2.6670 c3        1 GBI     -0.234000
     22 C1'         3.3180   -1.2270   -2.6330 c2        1 GBI     -0.066000
     23 C2'         3.9510   -1.5010   -1.4390 c2        1 GBI     -0.098000
     24 C3'         5.3300   -1.6740   -1.4080 c1        1 GBI     -0.269000
     25 I3'         6.3340   -1.8800    0.4530 i         1 GBI      0.083000
     26 C4'         6.0600   -1.5700   -2.5690 c2        1 GBI     -0.119000
     27 C5'         5.4180   -1.2920   -3.7770 c1        1 GBI     -0.135000
     28 C6'         4.0640   -1.1230   -3.8080 c1        1 GBI     -0.093000
     29 HN11       -3.7610   -3.4920    5.0290 hn        1 GBI      0.128000
     30 HN12       -4.5130   -2.8010    3.9200 hn        1 GBI      0.128000
     31 HA1        -2.8050   -3.4080    2.8260 h1        1 GBI      0.084000
     32 HB11       -1.2340   -1.3390    3.4130 hc        1 GBI      0.093500
     33 HB12       -2.7220   -0.8310    3.6000 hc        1 GBI      0.093500
     34 HG11       -1.8930   -2.1000    1.2400 hc        1 GBI      0.105500
     35 HG12       -3.2610   -1.3490    1.4420 hc        1 GBI      0.105500
     36 HN2        -2.4950    0.0450   -0.7000 hn        1 GBI      0.233000
     37 HA2        -0.1750    1.5470   -0.0470 h1        1 GBI      0.148000
     38 HB21       -0.7770    0.0660   -2.3040 h1        1 GBI      0.123500
     39 HB22       -0.3630    1.5600   -2.6890 h1        1 GBI      0.123500
     40 HN3        -0.5000    3.8620    0.0600 hn        1 GBI      0.244000
     41 HA31       -2.8890    4.8940   -0.5840 h1        1 GBI      0.079000
     42 HA32       -1.7760    5.2850   -1.6410 h1        1 GBI      0.079000
     43 H'1         1.3930   -1.7890   -2.2750 h1        1 GBI      0.128000
     44 H'2         1.5430   -0.9120   -3.6000 h1        1 GBI      0.128000
     45 H2'         3.4440   -1.5200   -0.6190 ha        1 GBI      0.158000
     46 H4'         7.0300   -1.6910   -2.5490 ha        1 GBI      0.122000
     47 H5'         5.9470   -1.2180   -4.6130 ha        1 GBI      0.143000
     48 H6'         3.6000   -1.0010   -4.6810 ha        1 GBI      0.220000
@<TRIPOS>BOND
     1    1    2 1   
     2    1   29 1   
     3    1   30 1   
     4    2    3 1   
     5    2    6 1   
     6    2   31 1   
     7    3    4 1   
     8    3    5 1   
     9    6    7 1   
    10    6   32 1   
    11    6   33 1   
    12    7    8 1   
    13    7   34 1   
    14    7   35 1   
    15    8    9 1   
    16    8   10 1   
    17   10   11 1   
    18   10   36 1   
    19   11   12 1   
    20   11   14 1   
    21   11   37 1   
    22   12   13 1   
    23   12   16 1   
    24   14   15 1   
    25   14   38 1   
    26   14   39 1   
    27   15   21 1   
    28   16   17 1   
    29   16   40 1   
    30   17   18 1   
    31   17   41 1   
    32   17   42 1   
    33   18   19 1   
    34   18   20 1   
    35   21   22 1   
    36   21   43 1   
    37   21   44 1   
    38   22   23 1   
    39   22   28 1   
    40   23   24 1   
    41   23   45 1   
    42   24   26 1   
    43   26   27 1   
    44   26   46 1   
    45   27   47 1   
    46   28   48 1   
@<TRIPOS>SUBSTRUCTURE
     1 GBI         1 TEMP              0 ****  ****    0 ROOT
