@<TRIPOS>MOLECULE
GBI
   51    51     1     0     0
SMALL
bcc


@<TRIPOS>ATOM
      1 N1          2.0220   -0.8850   -1.2280 n4        1 GBI     -0.825600
      2 CA1         1.1630    0.1850   -1.8240 c3        1 GBI     -0.034500
      3 C1          1.5910    0.3920   -3.3170 c         1 GBI      0.891600
      4 O11         2.8300    0.4210   -3.5460 o         1 GBI     -0.786800
      5 O12         0.6810    0.6160   -4.1510 o         1 GBI     -0.786800
      6 CB1         1.3100    1.5170   -1.0800 c3        1 GBI     -0.085400
      7 CG1         0.7450    2.6710   -1.8910 c3        1 GBI     -0.152400
      8 CD1         1.8300    3.4050   -2.6410 c         1 GBI      0.560100
      9 OE1         2.6390    4.1860   -2.1620 o         1 GBI     -0.419100
     10 N2          1.9370    3.1260   -4.1150 n4        1 GBI     -0.699800
     11 CA2         2.0700    4.3380   -4.9790 c3        1 GBI      0.052500
     12 C2          0.7740    5.1760   -5.0170 c         1 GBI      0.636100
     13 O2          0.8190    6.3600   -4.6550 o         1 GBI     -0.518100
     14 CB2         2.5190    3.9680   -6.3910 c3        1 GBI     -0.075300
     15 SG2         3.9390    2.9260   -6.3400 ss        1 GBI     -0.256200
     16 N3         -0.3820    4.5850   -5.4980 n         1 GBI     -0.541900
     17 CA3        -1.6650    5.1390   -5.1710 c3        1 GBI     -0.012000
     18 C3         -2.1980    4.6730   -3.8250 c         1 GBI      0.614100
     19 O31        -3.4300    5.0660   -3.4220 oh        1 GBI     -0.544100
     20 O32        -1.6050    3.9460   -3.0200 o         1 GBI     -0.548000
     21 C'          3.3180    1.3340   -6.8670 c3        1 GBI      0.039000
     22 C1'         4.5120    0.4890   -7.0740 ca        1 GBI     -0.106300
     23 C2'         5.1560    0.4680   -8.3180 ca        1 GBI     -0.068000
     24 C3'         6.2750   -0.3410   -8.5140 ca        1 GBI      0.016900
     25 I3'         7.1980   -0.3650  -10.3090 i         1 GBI     -0.114900
     26 C4'         6.7540   -1.1320   -7.4680 ca        1 GBI     -0.073000
     27 C5'         6.1120   -1.1150   -6.2300 ca        1 GBI     -0.140000
     28 C6'         4.9940   -0.3100   -6.0290 ca        1 GBI     -0.093000
     29 HN11        2.0330   -0.8310   -0.2100 hn        1 GBI      0.460800
     30 HN12        2.9800   -0.7570   -1.5990 hn        1 GBI      0.460800
     31 HA1         0.0890   -0.1600   -1.7890 hx        1 GBI      0.124700
     32 HB11        2.3880    1.7190   -0.8360 hc        1 GBI      0.078200
     33 HB12        0.7460    1.4630   -0.1100 hc        1 GBI      0.078200
     34 HG11        0.2730    3.4320   -1.2020 hc        1 GBI      0.137200
     35 HG12       -0.0770    2.3120   -2.5740 hc        1 GBI      0.137200
     36 HN2         1.1260    2.5560   -4.4150 hn        1 GBI      0.497300
     37 HA2         2.8640    5.0000   -4.5000 hx        1 GBI      0.157700
     38 HB21        2.8080    4.9200   -6.9100 h1        1 GBI      0.112200
     39 HB22        1.6920    3.5000   -6.9790 h1        1 GBI      0.112200
     40 HN3        -0.3710    3.6220   -5.7460 hn        1 GBI      0.319500
     41 HA31       -1.5880    6.2680   -5.1470 h1        1 GBI      0.112700
     42 HA32       -2.4020    4.8400   -5.9720 h1        1 GBI      0.112700
     43 H'1         2.7270    1.4420   -7.8090 h1        1 GBI      0.084700
     44 H'2         2.6540    0.9020   -6.0720 h1        1 GBI      0.084700
     45 H2'         4.7720    1.0960   -9.1380 ha        1 GBI      0.149000
     46 H4'         7.6390   -1.7740   -7.6130 ha        1 GBI      0.154000
     47 H5'         6.4930   -1.7420   -5.4100 ha        1 GBI      0.139000
     48 H6'         4.4800   -0.2980   -5.0520 ha        1 GBI      0.155000
     49 H13         1.6770   -1.8010   -1.5250 hn        1 GBI      0.460800
     50 H22         2.7960    2.5310   -4.2800 hn        1 GBI      0.497300
     51 H32        -3.8330    5.6520   -4.0820 ho        1 GBI      0.444000
@<TRIPOS>BOND
     1    1    2 1   
     2    1   29 1   
     3    1   30 1   
     4    1   49 1   
     5    2    3 1   
     6    2    6 1   
     7    2   31 1   
     8    3    4 1   
     9    3    5 1   
    10    6    7 1   
    11    6   32 1   
    12    6   33 1   
    13    7    8 1   
    14    7   34 1   
    15    7   35 1   
    16    8    9 2   
    17    8   10 1   
    18   10   11 1   
    19   10   36 1   
    20   10   50 1   
    21   11   12 1   
    22   11   14 1   
    23   11   37 1   
    24   12   13 2   
    25   12   16 1   
    26   14   15 1   
    27   14   38 1   
    28   14   39 1   
    29   15   21 1   
    30   16   17 1   
    31   16   40 1   
    32   17   18 1   
    33   17   41 1   
    34   17   42 1   
    35   18   19 1   
    36   18   20 2   
    37   19   51 1   
    38   21   22 1   
    39   21   43 1   
    40   21   44 1   
    41   22   23 ar  
    42   22   28 ar  
    43   23   24 ar  
    44   23   45 1   
    45   24   25 1   
    46   24   26 ar  
    47   26   27 ar  
    48   26   46 1   
    49   27   28 ar  
    50   27   47 1   
    51   28   48 1   
@<TRIPOS>SUBSTRUCTURE
     1 GBI         1 TEMP              0 ****  ****    0 ROOT
