@<TRIPOS>MOLECULE
GBI
   48    48     1     0     0
SMALL
bcc


@<TRIPOS>ATOM
      1 N1          4.2130   -0.5840    4.4080 n3        1 GBI     -0.893800
      2 CA1         3.2950   -1.2490    3.4920 c3        1 GBI      0.023500
      3 C1          3.9920   -1.9720    2.2940 c         1 GBI      0.890600
      4 O11         5.2550   -2.0060    2.2630 o         1 GBI     -0.849800
      5 O12         3.2510   -2.5130    1.4230 o         1 GBI     -0.849800
      6 CB1         2.2190   -0.3200    2.9260 c3        1 GBI     -0.062400
      7 CG1         1.3210    0.2470    4.0050 c3        1 GBI     -0.145400
      8 CD1         0.2400    1.1180    3.3890 c         1 GBI      0.666100
      9 OE1         0.4090    2.3440    3.2240 o         1 GBI     -0.624100
     10 N2         -0.9340    0.4950    3.0010 n         1 GBI     -0.570900
     11 CA2        -2.0220    1.1900    2.3730 c3        1 GBI      0.034700
     12 C2         -3.2530    1.3900    3.3070 c         1 GBI      0.618100
     13 O2         -3.6850    2.5510    3.4790 o         1 GBI     -0.642100
     14 CB2        -2.5460    0.5030    1.1070 c3        1 GBI     -0.032300
     15 SG2        -1.4630    0.5820   -0.2860 ss        1 GBI     -0.314200
     16 N3         -3.7760    0.2870    3.9280 n         1 GBI     -0.511900
     17 CA3        -5.0510    0.3150    4.6000 c3        1 GBI     -0.059000
     18 C3         -5.9080   -0.9650    4.3740 c         1 GBI      0.904600
     19 O31        -5.4480   -1.8890    3.6440 o         1 GBI     -0.842300
     20 O32        -7.0290   -0.9930    4.9510 o         1 GBI     -0.842300
     21 C'         -0.5760   -0.9580   -0.1950 c3        1 GBI      0.039000
     22 C1'         0.3690   -1.0350   -1.3310 ca        1 GBI     -0.078300
     23 C2'        -0.0700   -0.7740   -2.6370 ca        1 GBI     -0.094000
     24 C3'         0.8170   -0.8740   -3.7050 ca        1 GBI      0.013900
     25 I3'         0.1790   -0.4980   -5.5910 i         1 GBI     -0.204900
     26 C4'         2.1470   -1.2360   -3.4830 ca        1 GBI     -0.115000
     27 C5'         2.5840   -1.4960   -2.1860 ca        1 GBI     -0.130000
     28 C6'         1.7040   -1.3970   -1.1070 ca        1 GBI     -0.079000
     29 HN11        4.5090    0.2830    3.9960 hn        1 GBI      0.332800
     30 HN12        5.0360   -1.1610    4.4780 hn        1 GBI      0.332800
     31 HA1         2.7840   -2.0580    4.0920 h1        1 GBI      0.044700
     32 HB11        2.6950    0.5190    2.3560 hc        1 GBI      0.053700
     33 HB12        1.6150   -0.9240    2.1960 hc        1 GBI      0.053700
     34 HG11        0.8770   -0.5840    4.6130 hc        1 GBI      0.064200
     35 HG12        1.9160    0.8960    4.7010 hc        1 GBI      0.064200
     36 HN2        -1.0640   -0.4640    3.2160 hn        1 GBI      0.311500
     37 HA2        -1.6620    2.2320    2.1050 h1        1 GBI      0.120700
     38 HB21       -2.8290   -0.5580    1.3170 h1        1 GBI      0.085700
     39 HB22       -3.4690    1.0500    0.7840 h1        1 GBI      0.085700
     40 HN3        -3.5420   -0.6150    3.5600 hn        1 GBI      0.317500
     41 HA31       -4.8650    0.4190    5.7040 h1        1 GBI      0.042200
     42 HA32       -5.6490    1.2060    4.2660 h1        1 GBI      0.042200
     43 H'1        -0.0290   -1.0350    0.7790 h1        1 GBI      0.077700
     44 H'2        -1.3050   -1.8060   -0.2420 h1        1 GBI      0.077700
     45 H2'        -1.1210   -0.4800   -2.7970 ha        1 GBI      0.149000
     46 H4'         2.8530   -1.3160   -4.3220 ha        1 GBI      0.124000
     47 H5'         3.6300   -1.7850   -1.9970 ha        1 GBI      0.152000
     48 H6'         2.0730   -1.6200   -0.0810 ha        1 GBI      0.220000
@<TRIPOS>BOND
     1    1    2 1   
     2    1   29 1   
     3    1   30 1   
     4    2    3 1   
     5    2    6 1   
     6    2   31 1   
     7    3    4 1   
     8    3    5 1   
     9    6    7 1   
    10    6   32 1   
    11    6   33 1   
    12    7    8 1   
    13    7   34 1   
    14    7   35 1   
    15    8    9 2   
    16    8   10 1   
    17   10   11 1   
    18   10   36 1   
    19   11   12 1   
    20   11   14 1   
    21   11   37 1   
    22   12   13 2   
    23   12   16 1   
    24   14   15 1   
    25   14   38 1   
    26   14   39 1   
    27   15   21 1   
    28   16   17 1   
    29   16   40 1   
    30   17   18 1   
    31   17   41 1   
    32   17   42 1   
    33   18   19 1   
    34   18   20 1   
    35   21   22 1   
    36   21   43 1   
    37   21   44 1   
    38   22   23 ar  
    39   22   28 ar  
    40   23   24 ar  
    41   23   45 1   
    42   24   25 1   
    43   24   26 ar  
    44   26   27 ar  
    45   26   46 1   
    46   27   28 ar  
    47   27   47 1   
    48   28   48 1   
@<TRIPOS>SUBSTRUCTURE
     1 GBI         1 TEMP              0 ****  ****    0 ROOT
