@<TRIPOS>MOLECULE
GBI
   51    51     1     0     0
SMALL
bcc


@<TRIPOS>ATOM
      1 N1          1.5090   -1.2110   -1.2270 n4        1 GBI     -0.829600
      2 CA1         1.1260    0.0830   -1.8770 c3        1 GBI     -0.052500
      3 C1          1.6220    0.0510   -3.3830 c         1 GBI      0.925600
      4 O11         2.5770   -0.7180   -3.6350 o         1 GBI     -0.782800
      5 O12         1.0210    0.8170   -4.1760 o         1 GBI     -0.782800
      6 CB1         1.7420    1.2870   -1.1630 c3        1 GBI     -0.084400
      7 CG1         1.1010    2.5880   -1.6160 c3        1 GBI     -0.147400
      8 CD1         2.0370    3.4080   -2.4720 c         1 GBI      0.560100
      9 OE1         2.9500    4.1140   -2.0700 o         1 GBI     -0.420100
     10 N2          1.8100    3.3140   -3.9520 n4        1 GBI     -0.684800
     11 CA2         2.2390    4.4950   -4.7610 c3        1 GBI      0.045500
     12 C2          1.0980    5.5340   -4.8450 c         1 GBI      0.633100
     13 O2          1.2330    6.6260   -4.2820 o         1 GBI     -0.500100
     14 CB2         2.7390    4.0880   -6.1460 c3        1 GBI     -0.069300
     15 SG2         3.9010    2.7660   -6.0190 ss        1 GBI     -0.272200
     16 N3         -0.0480    5.1970   -5.5650 n         1 GBI     -0.528900
     17 CA3        -1.3250    5.6220   -5.0620 c3        1 GBI     -0.018000
     18 C3         -1.7860    4.7910   -3.8720 c         1 GBI      0.615100
     19 O31        -3.0080    4.9870   -3.3300 oh        1 GBI     -0.538100
     20 O32        -1.1130    3.9120   -3.3150 o         1 GBI     -0.577000
     21 C'          3.1180    1.4130   -6.8950 c3        1 GBI      0.045000
     22 C1'         4.1960    0.4600   -7.2270 ca        1 GBI     -0.113300
     23 C2'         4.9790    0.6530   -8.3730 ca        1 GBI     -0.069000
     24 C3'         5.9840   -0.2560   -8.6970 ca        1 GBI      0.013900
     25 I3'         7.1080    0.0330  -10.3500 i         1 GBI     -0.119900
     26 C4'         6.2120   -1.3640   -7.8790 ca        1 GBI     -0.073000
     27 C5'         5.4310   -1.5610   -6.7400 ca        1 GBI     -0.138000
     28 C6'         4.4240   -0.6550   -6.4090 ca        1 GBI     -0.090000
     29 HN11        1.6740   -1.1000   -0.2280 hn        1 GBI      0.460133
     30 HN12        2.3760   -1.5440   -1.6970 hn        1 GBI      0.460133
     31 HA1         0.0020    0.1560   -1.8690 hx        1 GBI      0.113700
     32 HB11        1.5870    1.2000   -0.0520 hc        1 GBI      0.074700
     33 HB12        2.8510    1.3050   -1.3420 hc        1 GBI      0.074700
     34 HG11        0.8670    3.2280   -0.7180 hc        1 GBI      0.125700
     35 HG12        0.1260    2.3930   -2.1470 hc        1 GBI      0.125700
     36 HN2         2.3630    2.4770   -4.2970 hn        1 GBI      0.498800
     37 HA2         3.0960    4.9980   -4.2040 hx        1 GBI      0.159700
     38 HB21        3.2640    4.9790   -6.5830 h1        1 GBI      0.108200
     39 HB22        1.9060    3.8170   -6.8370 h1        1 GBI      0.108200
     40 HN3        -3.4780    5.6950   -3.7990 ho        1 GBI      0.449000
     41 HA31       -1.2570    6.7030   -4.7370 h1        1 GBI      0.117700
     42 HA32       -2.0880    5.5370   -5.8880 h1        1 GBI      0.117700
     43 H'1         2.6160    1.7930   -7.8180 h1        1 GBI      0.088700
     44 H'2         2.3480    0.9390   -6.2310 h1        1 GBI      0.088700
     45 H2'         4.7930    1.5300   -9.0140 ha        1 GBI      0.145000
     46 H4'         7.0040   -2.0890   -8.1270 ha        1 GBI      0.153000
     47 H5'         5.6100   -2.4380   -6.0990 ha        1 GBI      0.143000
     48 H6'         3.8040   -0.8180   -5.5100 ha        1 GBI      0.171000
     49 H13         0.7740   -1.9020   -1.3850 hn        1 GBI      0.460133
     50 H22         0.8110    3.0820   -4.1070 hn        1 GBI      0.498800
     51 H32        -0.0520    4.3150   -6.0300 hn        1 GBI      0.310500
@<TRIPOS>BOND
     1    1    2 1   
     2    1   29 1   
     3    1   30 1   
     4    1   49 1   
     5    2    3 1   
     6    2    6 1   
     7    2   31 1   
     8    3    4 1   
     9    3    5 1   
    10    6    7 1   
    11    6   32 1   
    12    6   33 1   
    13    7    8 1   
    14    7   34 1   
    15    7   35 1   
    16    8    9 2   
    17    8   10 1   
    18   10   11 1   
    19   10   36 1   
    20   10   50 1   
    21   11   12 1   
    22   11   14 1   
    23   11   37 1   
    24   12   13 2   
    25   12   16 1   
    26   14   15 1   
    27   14   38 1   
    28   14   39 1   
    29   15   21 1   
    30   16   17 1   
    31   16   51 1   
    32   17   18 1   
    33   17   41 1   
    34   17   42 1   
    35   18   19 1   
    36   18   20 2   
    37   19   40 1   
    38   21   22 1   
    39   21   43 1   
    40   21   44 1   
    41   22   23 ar  
    42   22   28 ar  
    43   23   24 ar  
    44   23   45 1   
    45   24   25 1   
    46   24   26 ar  
    47   26   27 ar  
    48   26   46 1   
    49   27   28 ar  
    50   27   47 1   
    51   28   48 1   
@<TRIPOS>SUBSTRUCTURE
     1 GBI         1 TEMP              0 ****  ****    0 ROOT
