@<TRIPOS>MOLECULE
GBJ
   44    47     1     0     0
SMALL
bcc


@<TRIPOS>ATOM
      1 C1          0.1270    0.6420    0.1530 c3        1 GBJ     -0.101100
      2 C2          1.4620   -0.0790   -0.0340 c3        1 GBJ      0.198000
      3 C3          2.1260   -0.2830    1.2890 c2        1 GBJ     -0.222200
      4 C4          3.3780    0.1210    1.5440 ce        1 GBJ     -0.058200
      5 C5          4.1340    0.7990    0.5140 ca        1 GBJ     -0.165800
      6 C6          3.5010    1.0740   -0.7120 ca        1 GBJ      0.181100
      7 C7          4.1810    1.7410   -1.7490 ca        1 GBJ     -0.195000
      8 C8          5.4960    2.1340   -1.5500 ca        1 GBJ     -0.059000
      9 C9          6.1610    1.8790   -0.3440 ca        1 GBJ     -0.188300
     10 C10         5.4730    1.2080    0.6800 ca        1 GBJ      0.179100
     11 O1          6.0360    0.9390    1.9120 os        1 GBJ     -0.324900
     12 C11         7.4600    1.0610    1.9780 c3        1 GBJ      0.135400
     13 C12         7.9580    2.3370    1.3080 c3        1 GBJ     -0.043400
     14 C13         7.5700    2.3140   -0.1670 c3        1 GBJ     -0.018100
     15 C14         9.4310    2.4870    1.4880 ca        1 GBJ     -0.139300
     16 C15        10.3210    1.5270    0.9970 ca        1 GBJ     -0.058000
     17 C16        11.6970    1.6580    1.1570 ca        1 GBJ     -0.246000
     18 C17        12.2060    2.7810    1.8260 ca        1 GBJ      0.165100
     19 C18        11.3480    3.7660    2.3330 ca        1 GBJ     -0.246000
     20 C19         9.9680    3.6080    2.1580 ca        1 GBJ      0.167100
     21 O2          9.0780    4.5420    2.6350 oh        1 GBJ     -0.494100
     22 O3         13.5510    2.9820    2.0230 oh        1 GBJ     -0.495100
     23 O4          2.1960    0.7460   -0.9790 os        1 GBJ     -0.327900
     24 C20         1.2460   -1.4250   -0.7230 c3        1 GBJ     -0.101100
     25 H1         -0.5580    0.0030    0.7570 hc        1 GBJ      0.047533
     26 H2          0.2850    1.6140    0.6770 hc        1 GBJ      0.047533
     27 H3         -0.3360    0.8440   -0.8430 hc        1 GBJ      0.047533
     28 H4          1.5110   -0.8010    2.0370 ha        1 GBJ      0.138000
     29 H6          3.8700   -0.0350    2.5160 ha        1 GBJ      0.151000
     30 H8          3.6600    1.9430   -2.6940 ha        1 GBJ      0.150000
     31 H9          6.0320    2.6610   -2.3540 ha        1 GBJ      0.134000
     32 H10         7.9180    0.1540    1.5030 h1        1 GBJ      0.058700
     33 H11         7.6660    1.0670    3.0810 h1        1 GBJ      0.058700
     34 H12         7.4320    3.2090    1.7950 hc        1 GBJ      0.093700
     35 H13         7.7130    3.3380   -0.6020 hc        1 GBJ      0.054200
     36 H14         8.2470    1.6150   -0.7290 hc        1 GBJ      0.054200
     37 H15         9.9230    0.6450    0.4700 ha        1 GBJ      0.139000
     38 H16        12.3780    0.8910    0.7640 ha        1 GBJ      0.138000
     39 H17        11.7630    4.6390    2.8540 ha        1 GBJ      0.154000
     40 H18         9.5850    5.2480    3.0640 ho        1 GBJ      0.425000
     41 H19        14.0260    2.2370    1.6270 ho        1 GBJ      0.423000
     42 H20         0.7630   -1.2680   -1.7160 hc        1 GBJ      0.047533
     43 H21         2.2240   -1.9400   -0.8770 hc        1 GBJ      0.047533
     44 H22         0.5890   -2.0670   -0.0910 hc        1 GBJ      0.047533
@<TRIPOS>BOND
     1    1    2 1   
     2    1   25 1   
     3    1   26 1   
     4    1   27 1   
     5    2    3 1   
     6    2   23 1   
     7    2   24 1   
     8    3    4 2   
     9    3   28 1   
    10    4    5 1   
    11    4   29 1   
    12    5    6 ar  
    13    5   10 ar  
    14    6    7 ar  
    15    6   23 1   
    16    7    8 ar  
    17    7   30 1   
    18    8    9 ar  
    19    8   31 1   
    20    9   10 ar  
    21    9   14 1   
    22   10   11 1   
    23   11   12 1   
    24   12   13 1   
    25   12   32 1   
    26   12   33 1   
    27   13   14 1   
    28   13   15 1   
    29   13   34 1   
    30   14   35 1   
    31   14   36 1   
    32   15   16 ar  
    33   15   20 ar  
    34   16   17 ar  
    35   16   37 1   
    36   17   18 ar  
    37   17   38 1   
    38   18   19 ar  
    39   18   22 1   
    40   19   20 ar  
    41   19   39 1   
    42   20   21 1   
    43   21   40 1   
    44   22   41 1   
    45   24   42 1   
    46   24   43 1   
    47   24   44 1   
@<TRIPOS>SUBSTRUCTURE
     1 GBJ         1 TEMP              0 ****  ****    0 ROOT
