@<TRIPOS>MOLECULE
GBJ
   44    47     1     0     0
SMALL
bcc


@<TRIPOS>ATOM
      1 C1          0.1240    0.5880    0.2260 c3        1 GBJ     -0.101100
      2 C2          1.4650   -0.1030   -0.0160 c3        1 GBJ      0.198000
      3 C3          2.1620   -0.3480    1.2820 c2        1 GBJ     -0.222200
      4 C4          3.4130    0.0650    1.5250 ce        1 GBJ     -0.058200
      5 C5          4.1370    0.7920    0.5060 ca        1 GBJ     -0.165800
      6 C6          3.4720    1.1040   -0.6950 ca        1 GBJ      0.181100
      7 C7          4.1190    1.8200   -1.7200 ca        1 GBJ     -0.195000
      8 C8          5.4330    2.2240   -1.5360 ca        1 GBJ     -0.059000
      9 C9          6.1290    1.9310   -0.3560 ca        1 GBJ     -0.188300
     10 C10         5.4740    1.2130    0.6570 ca        1 GBJ      0.179100
     11 O1          6.0680    0.9040    1.8650 os        1 GBJ     -0.324900
     12 C11         7.4920    1.0440    1.9030 c3        1 GBJ      0.135400
     13 C12         7.9580    2.3520    1.2720 c3        1 GBJ     -0.043400
     14 C13         7.5360    2.3790   -0.1940 c3        1 GBJ     -0.018100
     15 C14         9.4320    2.5160    1.4240 ca        1 GBJ     -0.139300
     16 C15        10.3230    1.5880    0.8770 ca        1 GBJ     -0.058000
     17 C16        11.7010    1.7320    1.0110 ca        1 GBJ     -0.246000
     18 C17        12.2090    2.8360    1.7110 ca        1 GBJ      0.165100
     19 C18        11.3510    3.7890    2.2750 ca        1 GBJ     -0.246000
     20 C19         9.9690    3.6180    2.1250 ca        1 GBJ      0.167100
     21 O2          9.0780    4.5200    2.6580 oh        1 GBJ     -0.494100
     22 O3         13.5560    3.0490    1.8870 oh        1 GBJ     -0.495100
     23 O4          2.1650    0.7690   -0.9450 os        1 GBJ     -0.327900
     24 C20         1.2550   -1.4260   -0.7520 c3        1 GBJ     -0.101100
     25 H1         -0.5380   -0.0840    0.8190 hc        1 GBJ      0.047533
     26 H2         -0.3630    0.8200   -0.7500 hc        1 GBJ      0.047533
     27 H3          0.2790    1.5410    0.7840 hc        1 GBJ      0.047533
     28 H4          1.5700   -0.9020    2.0240 ha        1 GBJ      0.138000
     29 H6          3.9290   -0.1210    2.4790 ha        1 GBJ      0.151000
     30 H8          3.5740    2.0510   -2.6450 ha        1 GBJ      0.150000
     31 H9          5.9440    2.7890   -2.3310 ha        1 GBJ      0.134000
     32 H10         7.7230    1.0110    3.0010 h1        1 GBJ      0.058700
     33 H11         7.9510    0.1620    1.3830 h1        1 GBJ      0.058700
     34 H12         7.4300    3.1970    1.8040 hc        1 GBJ      0.093700
     35 H13         8.2090    1.7120   -0.7980 hc        1 GBJ      0.054200
     36 H14         7.6560    3.4210   -0.5930 hc        1 GBJ      0.054200
     37 H15         9.9250    0.7210    0.3260 ha        1 GBJ      0.139000
     38 H16        12.3830    0.9910    0.5740 ha        1 GBJ      0.138000
     39 H17        11.7660    4.6480    2.8200 ha        1 GBJ      0.154000
     40 H18         9.5840    5.2170    3.1020 ho        1 GBJ      0.425000
     41 H19        14.0310    2.3260    1.4520 ho        1 GBJ      0.423000
     42 H20         2.2360   -1.9180   -0.9480 hc        1 GBJ      0.047533
     43 H21         0.6220   -2.1020   -0.1320 hc        1 GBJ      0.047533
     44 H22         0.7480   -1.2380   -1.7290 hc        1 GBJ      0.047533
@<TRIPOS>BOND
     1    1    2 1   
     2    1   25 1   
     3    1   26 1   
     4    1   27 1   
     5    2    3 1   
     6    2   23 1   
     7    2   24 1   
     8    3    4 2   
     9    3   28 1   
    10    4    5 1   
    11    4   29 1   
    12    5    6 ar  
    13    5   10 ar  
    14    6    7 ar  
    15    6   23 1   
    16    7    8 ar  
    17    7   30 1   
    18    8    9 ar  
    19    8   31 1   
    20    9   10 ar  
    21    9   14 1   
    22   10   11 1   
    23   11   12 1   
    24   12   13 1   
    25   12   32 1   
    26   12   33 1   
    27   13   14 1   
    28   13   15 1   
    29   13   34 1   
    30   14   35 1   
    31   14   36 1   
    32   15   16 ar  
    33   15   20 ar  
    34   16   17 ar  
    35   16   37 1   
    36   17   18 ar  
    37   17   38 1   
    38   18   19 ar  
    39   18   22 1   
    40   19   20 ar  
    41   19   39 1   
    42   20   21 1   
    43   21   40 1   
    44   22   41 1   
    45   24   42 1   
    46   24   43 1   
    47   24   44 1   
@<TRIPOS>SUBSTRUCTURE
     1 GBJ         1 TEMP              0 ****  ****    0 ROOT
