@<TRIPOS>MOLECULE
GBL
   12    12     1     0     0
SMALL
bcc


@<TRIPOS>ATOM
      1 CA         -0.0110   -0.0600   -0.0100 c3        1 GBL     -0.172400
      2 C           1.4890    0.0570   -0.0260 c         1 GBL      0.713600
      3 O           2.3110   -0.0510   -0.9260 o         1 GBL     -0.564500
      4 CB         -0.4020    0.1890    1.4410 c3        1 GBL     -0.115400
      5 CG          0.9160    0.4370    2.1820 c3        1 GBL      0.119400
      6 OD          1.9920    0.3400    1.2290 os        1 GBL     -0.412900
      7 HAC1       -0.3160   -1.0780   -0.3600 hc        1 GBL      0.088700
      8 HAC2       -0.4580    0.6960   -0.7020 hc        1 GBL      0.088700
      9 HBC1       -1.0760    1.0740    1.5320 hc        1 GBL      0.063700
     10 HBC2       -0.9340   -0.6940    1.8730 hc        1 GBL      0.063700
     11 HGC1        0.9730    1.4650    2.6220 h1        1 GBL      0.063700
     12 HGC2        1.1170   -0.3320    2.9690 h1        1 GBL      0.063700
@<TRIPOS>BOND
     1    1    2 1   
     2    1    4 1   
     3    1    7 1   
     4    1    8 1   
     5    2    3 2   
     6    2    6 1   
     7    4    5 1   
     8    4    9 1   
     9    4   10 1   
    10    5    6 1   
    11    5   11 1   
    12    5   12 1   
@<TRIPOS>SUBSTRUCTURE
     1 GBL         1 TEMP              0 ****  ****    0 ROOT
