@<TRIPOS>MOLECULE
GBL
   12    12     1     0     0
SMALL
bcc


@<TRIPOS>ATOM
      1 CA         -0.0290   -0.0860   -0.0070 c3        1 GBL     -0.172400
      2 C           1.4660    0.0800   -0.0510 c         1 GBL      0.713600
      3 O           2.2750   -0.0080   -0.9660 o         1 GBL     -0.564500
      4 CB         -0.4020    0.1620    1.4490 c3        1 GBL     -0.115400
      5 CG          0.9210    0.4600    2.1640 c3        1 GBL      0.119400
      6 OD          1.9820    0.3890    1.1920 os        1 GBL     -0.412900
      7 HAC1       -0.5130    0.6500   -0.6970 hc        1 GBL      0.088700
      8 HAC2       -0.3070   -1.1160   -0.3440 hc        1 GBL      0.088700
      9 HBC1       -0.8980   -0.7330    1.8970 hc        1 GBL      0.063700
     10 HBC2       -1.1030    1.0260    1.5450 hc        1 GBL      0.063700
     11 HGC1        0.9520    1.4920    2.5950 h1        1 GBL      0.063700
     12 HGC2        1.1610   -0.2970    2.9530 h1        1 GBL      0.063700
@<TRIPOS>BOND
     1    1    2 1   
     2    1    4 1   
     3    1    7 1   
     4    1    8 1   
     5    2    3 2   
     6    2    6 1   
     7    4    5 1   
     8    4    9 1   
     9    4   10 1   
    10    5    6 1   
    11    5   11 1   
    12    5   12 1   
@<TRIPOS>SUBSTRUCTURE
     1 GBL         1 TEMP              0 ****  ****    0 ROOT
