@<TRIPOS>MOLECULE
GBL
   12    12     1     0     0
SMALL
bcc


@<TRIPOS>ATOM
      1 CA          0.0960    1.2640    0.0660 c3        1 GBL     -0.172400
      2 C          -0.8060    0.0670   -0.0690 c         1 GBL      0.713600
      3 O          -2.0250   -0.0470   -0.0810 o         1 GBL     -0.564500
      4 CB          1.5070    0.6940   -0.0010 c3        1 GBL     -0.115400
      5 CG          1.3290   -0.8180   -0.1730 c3        1 GBL      0.119400
      6 OD         -0.0830   -1.1030   -0.2030 os        1 GBL     -0.412900
      7 HAC1       -0.1070    1.9870   -0.7640 hc        1 GBL      0.088700
      8 HAC2       -0.1050    1.7820    1.0370 hc        1 GBL      0.088700
      9 HBC1        2.0750    1.1230   -0.8620 hc        1 GBL      0.063700
     10 HBC2        2.0770    0.9190    0.9330 hc        1 GBL      0.063700
     11 HGC1        1.7500   -1.1920   -1.1390 h1        1 GBL      0.063700
     12 HGC2        1.7520   -1.3990    0.6840 h1        1 GBL      0.063700
@<TRIPOS>BOND
     1    1    2 1   
     2    1    4 1   
     3    1    7 1   
     4    1    8 1   
     5    2    3 2   
     6    2    6 1   
     7    4    5 1   
     8    4    9 1   
     9    4   10 1   
    10    5    6 1   
    11    5   11 1   
    12    5   12 1   
@<TRIPOS>SUBSTRUCTURE
     1 GBL         1 TEMP              0 ****  ****    0 ROOT
