@<TRIPOS>MOLECULE
GBM
   64    65     1     0     0
SMALL
bcc


@<TRIPOS>ATOM
      1 O3        203.0730 -203.8480  191.9330 o         1 GBM     -0.484100
      2 O4       -132.9790  138.4290 -119.1060 os        1 GBM     -0.434900
      3 O5       -134.1430  140.3350 -118.6040 o         1 GBM     -0.299000
      4 O6       -128.6600  132.4040 -122.5520 o         1 GBM     -0.439100
      5 Cl1      -127.3110  127.9180 -125.0010 cl        1 GBM     -0.003400
      6 S2       -133.3690  139.4460 -117.8800 ss        1 GBM      1.421800
      7 O7       -127.0770  130.0770 -119.5510 os        1 GBM     -0.404900
      8 N8        201.1700 -202.7330  191.2000 ny        1 GBM     -0.672800
      9 N9        201.4610 -205.1870  190.9280 nt        1 GBM     -0.618000
     10 N10      -128.6610  132.0730 -120.2530 ny        1 GBM     -0.670800
     11 C11       200.9450 -202.3580  189.7530 c3        1 GBM      0.122500
     12 C12       201.1830 -200.8560  189.5370 c3        1 GBM     -0.099900
     13 C13       199.5350 -202.7340  189.2860 c3        1 GBM     -0.099900
     14 C14       201.0240 -200.5290  188.0640 c3        1 GBM     -0.078900
     15 C15       199.3850 -202.3990  187.8130 c3        1 GBM     -0.078900
     16 C16       199.6600 -200.9350  187.5480 c3        1 GBM     -0.092400
     17 C17       201.9840 -204.0160  191.3720 c         1 GBM      0.644100
     18 C18      -132.1710  137.3170 -118.8950 ca        1 GBM      0.049100
     19 C19      -130.6090  135.0250 -118.8320 ca        1 GBM     -0.063300
     20 C20      -129.7670  133.7950 -118.7880 c3        1 GBM     -0.064100
     21 C21      -132.7730  136.0960 -118.5630 ca        1 GBM     -0.105000
     22 C22      -130.8050  137.4190 -119.1930 ca        1 GBM     -0.105000
     23 C23      -131.9760  134.9520 -118.5320 ca        1 GBM     -0.092000
     24 C24      -130.0320  136.2610 -119.1550 ca        1 GBM     -0.092000
     25 C25      -129.5020  133.2990 -120.2100 c3        1 GBM      0.104800
     26 C26      -128.3480  131.6100 -121.6730 c         1 GBM      0.590700
     27 C27      -127.7460  130.2930 -121.8270 ca        1 GBM     -0.238600
     28 C28      -127.1120  129.5340 -120.8160 ca        1 GBM      0.188100
     29 C29      -127.7930  129.7700 -123.1410 ca        1 GBM     -0.023000
     30 C30      -126.5510  128.2840 -121.1210 ca        1 GBM     -0.193000
     31 C31      -127.2390  128.5280 -123.4300 ca        1 GBM     -0.020600
     32 C32      -126.6150  127.7820 -122.4140 ca        1 GBM     -0.003000
     33 C33      -126.3080  129.3780 -118.5610 c3        1 GBM      0.117700
     34 H1        201.7160 -201.9880  191.6620 hn        1 GBM      0.466300
     35 H2        202.0100 -206.0120  191.0630 hn        1 GBM      0.367000
     36 H3       -129.1260  131.3000 -119.7610 hn        1 GBM      0.465800
     37 H4        201.7090 -202.9300  189.1440 hx        1 GBM      0.111700
     38 H5        202.2170 -200.5720  189.8690 hc        1 GBM      0.063950
     39 H6        200.4440 -200.2600  190.1350 hc        1 GBM      0.063950
     40 H7        199.3440 -203.8290  189.4360 hc        1 GBM      0.063950
     41 H8        198.7690 -202.1630  189.8750 hc        1 GBM      0.063950
     42 H9        201.1670 -199.4240  187.9270 hc        1 GBM      0.070700
     43 H10       201.8250 -201.0460  187.4740 hc        1 GBM      0.070700
     44 H11       200.0860 -203.0340  187.2080 hc        1 GBM      0.070700
     45 H12       198.3400 -202.6520  187.4920 hc        1 GBM      0.070700
     46 H13       198.8680 -200.3070  188.0360 hc        1 GBM      0.070200
     47 H14       199.6080 -200.7400  186.4440 hc        1 GBM      0.070200
     48 H15      -128.7960  134.0300 -118.2700 hc        1 GBM      0.081700
     49 H16      -130.2850  132.9980 -118.1870 hc        1 GBM      0.081700
     50 H17      -133.8530  136.0280 -118.3620 ha        1 GBM      0.171500
     51 H18      -130.3560  138.3830 -119.4810 ha        1 GBM      0.171500
     52 H19      -132.4390  133.9850 -118.2720 ha        1 GBM      0.167500
     53 H20      -128.9550  136.3260 -119.3860 ha        1 GBM      0.167500
     54 H21      -128.9770  134.1020 -120.8070 hx        1 GBM      0.117700
     55 H22      -130.4760  133.0650 -120.7300 hx        1 GBM      0.117700
     56 H23      -128.2740  130.3660 -123.9390 ha        1 GBM      0.186000
     57 H24      -126.0530  127.6870 -120.3390 ha        1 GBM      0.177000
     58 H25      -126.1720  126.7950 -122.6440 ha        1 GBM      0.189000
     59 H26      -125.2500  129.2670 -118.8990 h1        1 GBM      0.072700
     60 H27      -126.3740  130.0530 -117.6690 h1        1 GBM      0.072700
     61 H28      -126.7750  128.3870 -118.3460 h1        1 GBM      0.072700
     62 H82       200.2700 -202.8190  191.6810 hn        1 GBM      0.466300
     63 H92       200.5910 -205.2560  190.4570 hn        1 GBM      0.367000
     64 H102     -127.7650  132.2350 -119.7730 hn        1 GBM      0.465800
@<TRIPOS>BOND
     1    1   17 2   
     2    2    6 1   
     3    2   18 1   
     4    3    6 1   
     5    4   26 2   
     6    5   31 1   
     7    7   28 1   
     8    7   33 1   
     9    8   11 1   
    10    8   17 1   
    11    8   34 1   
    12    8   62 1   
    13    9   17 1   
    14    9   35 1   
    15    9   63 1   
    16   10   25 1   
    17   10   26 1   
    18   10   36 1   
    19   10   64 1   
    20   11   12 1   
    21   11   13 1   
    22   11   37 1   
    23   12   14 1   
    24   12   38 1   
    25   12   39 1   
    26   13   15 1   
    27   13   40 1   
    28   13   41 1   
    29   14   16 1   
    30   14   42 1   
    31   14   43 1   
    32   15   16 1   
    33   15   44 1   
    34   15   45 1   
    35   16   46 1   
    36   16   47 1   
    37   18   21 ar  
    38   18   22 ar  
    39   19   20 1   
    40   19   23 ar  
    41   19   24 ar  
    42   20   25 1   
    43   20   48 1   
    44   20   49 1   
    45   21   23 ar  
    46   21   50 1   
    47   22   24 ar  
    48   22   51 1   
    49   23   52 1   
    50   24   53 1   
    51   25   54 1   
    52   25   55 1   
    53   26   27 1   
    54   27   28 ar  
    55   27   29 ar  
    56   28   30 ar  
    57   29   31 ar  
    58   29   56 1   
    59   30   32 ar  
    60   30   57 1   
    61   31   32 ar  
    62   32   58 1   
    63   33   59 1   
    64   33   60 1   
    65   33   61 1   
@<TRIPOS>SUBSTRUCTURE
     1 GBM         1 TEMP              0 ****  ****    0 ROOT
