@<TRIPOS>MOLECULE
GBM
   64    65     1     0     0
SMALL
bcc


@<TRIPOS>ATOM
      1 O3        152.6880 -204.4860  270.9670 o         1 GBM     -0.484100
      2 O4        -92.3510  138.4870 -180.2470 o         1 GBM     -0.368900
      3 O5        -93.5350  137.1900 -181.8610 o         1 GBM     -0.368900
      4 O6        -98.4200  132.8820 -175.6860 o         1 GBM     -0.444100
      5 CL1      -100.7240  129.9150 -171.9810 cl        1 GBM      0.001600
      6 S2        -93.3980  137.7360 -180.6380 s4        1 GBM      1.658300
      7 O7       -101.0920  135.4560 -173.8720 os        1 GBM     -0.407900
      8 N8        150.6990 -203.3040  271.1740 n4        1 GBM     -0.672800
      9 N9        150.7550 -205.7760  270.9210 n         1 GBM     -0.618000
     10 N10       -98.9650  135.1180 -175.3910 n4        1 GBM     -0.672800
     11 C11       149.8200 -202.9630  269.9920 c3        1 GBM      0.122500
     12 C12       149.9670 -201.4820  269.6140 c3        1 GBM     -0.099900
     13 C13       148.3480 -203.2850  270.2730 c3        1 GBM     -0.099900
     14 C14       149.1330 -201.1930  268.3800 c3        1 GBM     -0.078900
     15 C15       147.5220 -202.9880  269.0340 c3        1 GBM     -0.078900
     16 C16       147.6780 -201.5480  268.5970 c3        1 GBM     -0.092400
     17 C17       151.4600 -204.6180  271.0020 c         1 GBM      0.644100
     18 C18       -94.5290  137.4760 -179.6000 ca        1 GBM     -0.618500
     19 C19       -96.6050  137.0230 -177.7150 ca        1 GBM      0.067700
     20 C20       -97.7180  136.8370 -176.7400 c3        1 GBM     -0.090100
     21 C21       -95.6720  136.6960 -179.9260 ca        1 GBM      0.054500
     22 C22       -94.4710  138.0140 -178.2860 ca        1 GBM      0.054500
     23 C23       -96.6840  136.4750 -179.0070 ca        1 GBM     -0.150000
     24 C24       -95.4830  137.7930 -177.3660 ca        1 GBM     -0.150000
     25 C25       -97.8530  135.3670 -176.3460 c3        1 GBM      0.108800
     26 C26       -99.1280  133.6390 -175.0340 c         1 GBM      0.595700
     27 C27      -100.0670  133.3070 -173.9760 ca        1 GBM     -0.240600
     28 C28      -101.0360  134.1640 -173.4010 ca        1 GBM      0.192100
     29 C29       -99.9890  131.9690 -173.5170 ca        1 GBM     -0.022000
     30 C30      -101.8900  133.6880 -172.3940 ca        1 GBM     -0.194000
     31 C31      -100.8380  131.5090 -172.5170 ca        1 GBM     -0.020600
     32 C32      -101.7930  132.3740 -171.9530 ca        1 GBM      0.002000
     33 C33      -102.1470  136.2920 -173.3720 c3        1 GBM      0.117700
     34 H1        150.1360 -203.3300  272.0290 hn        1 GBM      0.466300
     35 H2        151.2790 -206.6220  270.8200 hn        1 GBM      0.367000
     36 H3        -98.8160  135.6400 -174.5180 hn        1 GBM      0.467800
     37 H4        150.1830 -203.5900  269.1230 hx        1 GBM      0.111700
     38 H5        149.6210 -200.8320  270.4600 hc        1 GBM      0.063950
     39 H6        151.0420 -201.2380  269.3980 hc        1 GBM      0.063950
     40 H7        148.2210 -204.3630  270.5510 hc        1 GBM      0.063950
     41 H8        147.9730 -202.6590  271.1260 hc        1 GBM      0.063950
     42 H9        149.2240 -200.1010  268.1350 hc        1 GBM      0.070700
     43 H10       149.5400 -201.7670  267.5060 hc        1 GBM      0.070700
     44 H11       147.8300 -203.6750  268.2020 hc        1 GBM      0.070700
     45 H12       146.4440 -203.2000  269.2630 hc        1 GBM      0.070700
     46 H13       147.2330 -200.8670  269.3700 hc        1 GBM      0.070200
     47 H14       147.1090 -201.3860  267.6430 hc        1 GBM      0.070200
     48 H15       -97.5370  137.4680 -175.8270 hc        1 GBM      0.096700
     49 H16       -98.6700  137.2040 -177.2190 hc        1 GBM      0.096700
     50 H17       -95.7570  136.2590 -180.9430 ha        1 GBM      0.191500
     51 H18       -93.5950  138.6290 -177.9910 ha        1 GBM      0.191500
     52 H19       -97.5630  135.8750 -179.3020 ha        1 GBM      0.183500
     53 H20       -95.4040  138.2360 -176.3570 ha        1 GBM      0.183500
     54 H21       -96.9000  135.0020 -175.8620 hx        1 GBM      0.119700
     55 H22       -98.0380  134.7320 -177.2620 hx        1 GBM      0.119700
     56 H23       -99.2430  131.2890 -173.9700 ha        1 GBM      0.186000
     57 H24      -102.6480  134.3490 -171.9420 ha        1 GBM      0.178000
     58 H25      -102.4690  132.0090 -171.1570 ha        1 GBM      0.191000
     59 H26      -103.1410  135.8330 -173.5920 h1        1 GBM      0.074033
     60 H27      -102.0100  136.4640 -172.2770 h1        1 GBM      0.074033
     61 H28      -102.0090  137.2430 -173.9460 h1        1 GBM      0.074033
     62 H82       151.4200 -202.5720  271.2820 hn        1 GBM      0.466300
     63 H92       149.7650 -205.8170  270.9250 hn        1 GBM      0.367000
     64 H102      -99.8590  135.4450 -175.7830 hn        1 GBM      0.467800
@<TRIPOS>BOND
     1    1   17 2   
     2    2    6 1   
     3    3    6 1   
     4    4   26 2   
     5    5   31 1   
     6    6   18 1   
     7    7   28 1   
     8    7   33 1   
     9    8   11 1   
    10    8   17 1   
    11    8   34 1   
    12    8   62 1   
    13    9   17 1   
    14    9   35 1   
    15    9   63 1   
    16   10   25 1   
    17   10   26 1   
    18   10   36 1   
    19   10   64 1   
    20   11   12 1   
    21   11   13 1   
    22   11   37 1   
    23   12   14 1   
    24   12   38 1   
    25   12   39 1   
    26   13   15 1   
    27   13   40 1   
    28   13   41 1   
    29   14   16 1   
    30   14   42 1   
    31   14   43 1   
    32   15   16 1   
    33   15   44 1   
    34   15   45 1   
    35   16   46 1   
    36   16   47 1   
    37   18   21 ar  
    38   18   22 ar  
    39   19   20 1   
    40   19   23 ar  
    41   19   24 ar  
    42   20   25 1   
    43   20   48 1   
    44   20   49 1   
    45   21   23 ar  
    46   21   50 1   
    47   22   24 ar  
    48   22   51 1   
    49   23   52 1   
    50   24   53 1   
    51   25   54 1   
    52   25   55 1   
    53   26   27 1   
    54   27   28 ar  
    55   27   29 ar  
    56   28   30 ar  
    57   29   31 ar  
    58   29   56 1   
    59   30   32 ar  
    60   30   57 1   
    61   31   32 ar  
    62   32   58 1   
    63   33   59 1   
    64   33   60 1   
    65   33   61 1   
@<TRIPOS>SUBSTRUCTURE
     1 GBM         1 TEMP              0 ****  ****    0 ROOT
