@<TRIPOS>MOLECULE
GBN
   29    29     1     0     0
SMALL
bcc


@<TRIPOS>ATOM
      1 N1         -0.0950   -0.3600    0.3840 n3        1 GBN     -0.939800
      2 C2          1.2690    0.0550    0.1690 c3        1 GBN      0.157800
      3 C3          1.9780   -1.1690    2.2600 c3        1 GBN     -0.159400
      4 C1R         2.1330    0.1220    1.4460 c3        1 GBN     -0.038000
      5 C2R         1.7720    1.3310    2.3080 c3        1 GBN     -0.075900
      6 C3R         2.1460    2.6570    1.6820 c3        1 GBN     -0.075900
      7 C4R         3.6040    2.7010    1.2790 c3        1 GBN     -0.078400
      8 C5R         3.9540    1.5380    0.3760 c3        1 GBN     -0.075900
      9 C6R         3.6060    0.2160    1.0250 c3        1 GBN     -0.075900
     10 C           0.7320   -1.2280    3.0940 c         1 GBN      0.634100
     11 OA         -0.2810   -2.0770    2.7540 oh        1 GBN     -0.583100
     12 OB          0.5190   -0.6160    4.1430 o         1 GBN     -0.511000
     13 HN11       -0.5120    0.1230    1.1560 hn        1 GBN      0.359800
     14 HN12       -0.6410   -0.2040   -0.4400 hn        1 GBN      0.359800
     15 H21         1.3370    1.0620   -0.3410 h1        1 GBN      0.033700
     16 H22         1.7320   -0.7000   -0.5320 h1        1 GBN      0.033700
     17 H31         2.0150   -2.0450    1.5610 hc        1 GBN      0.071700
     18 H32         2.8430   -1.2580    2.9740 hc        1 GBN      0.071700
     19 H2R1        2.2990    1.2260    3.2950 hc        1 GBN      0.050450
     20 H2R2        0.6720    1.3250    2.5320 hc        1 GBN      0.050450
     21 H3R1        1.5040    2.8530    0.7840 hc        1 GBN      0.041200
     22 H3R2        1.9380    3.4770    2.4210 hc        1 GBN      0.041200
     23 H4R1        4.2470    2.6670    2.1980 hc        1 GBN      0.042700
     24 H4R2        3.8210    3.6670    0.7520 hc        1 GBN      0.042700
     25 H5R1        5.0530    1.5560    0.1490 hc        1 GBN      0.041200
     26 H5R2        3.4120    1.6400   -0.6000 hc        1 GBN      0.041200
     27 H6R1        3.8450   -0.6240    0.3220 hc        1 GBN      0.050450
     28 H6R2        4.2480    0.0860    1.9380 hc        1 GBN      0.050450
     29 H13        -0.1280   -2.4450    1.8710 ho        1 GBN      0.440000
@<TRIPOS>BOND
     1    1    2 1   
     2    1   13 1   
     3    1   14 1   
     4    2    4 1   
     5    2   15 1   
     6    2   16 1   
     7    3    4 1   
     8    3   10 1   
     9    3   17 1   
    10    3   18 1   
    11    4    5 1   
    12    4    9 1   
    13    5    6 1   
    14    5   19 1   
    15    5   20 1   
    16    6    7 1   
    17    6   21 1   
    18    6   22 1   
    19    7    8 1   
    20    7   23 1   
    21    7   24 1   
    22    8    9 1   
    23    8   25 1   
    24    8   26 1   
    25    9   27 1   
    26    9   28 1   
    27   10   11 1   
    28   10   12 2   
    29   11   29 1   
@<TRIPOS>SUBSTRUCTURE
     1 GBN         1 TEMP              0 ****  ****    0 ROOT
