@<TRIPOS>MOLECULE
GBN
   28    28     1     0     0
SMALL
bcc


@<TRIPOS>ATOM
      1 N1          0.9230    2.9630    0.0140 n3        1 GBN     -0.906800
      2 C2          1.1140    1.7160   -0.6850 c3        1 GBN      0.145800
      3 C3         -1.2240    0.8970   -0.2950 c3        1 GBN     -0.195400
      4 C1R         0.2540    0.5050   -0.2500 c3        1 GBN     -0.057000
      5 C2R         0.4970   -0.6370   -1.2400 c3        1 GBN     -0.079400
      6 C3R         1.8690   -1.2630   -1.1130 c3        1 GBN     -0.069900
      7 C4R         2.1360   -1.7250    0.3040 c3        1 GBN     -0.071400
      8 C5R         1.9740   -0.5800    1.2820 c3        1 GBN     -0.069900
      9 C6R         0.6060    0.0570    1.1660 c3        1 GBN     -0.079400
     10 C          -2.1820   -0.2870   -0.0610 c         1 GBN      0.908600
     11 OA         -2.6920   -0.8500   -1.0720 o         1 GBN     -0.848800
     12 OB         -2.4300   -0.6300    1.1320 o         1 GBN     -0.848800
     13 HN11       -0.0210    3.2820   -0.1100 hn        1 GBN      0.336300
     14 HN12        1.0690    2.8320    0.9980 hn        1 GBN      0.336300
     15 H21         0.9120    1.9100   -1.7770 h1        1 GBN      0.036200
     16 H22         2.2010    1.4380   -0.5830 h1        1 GBN      0.036200
     17 H31        -1.4320    1.6600    0.4980 hc        1 GBN      0.022200
     18 H32        -1.4500    1.3470   -1.2950 hc        1 GBN      0.022200
     19 H2R1       -0.2920   -1.4210   -1.0700 hc        1 GBN      0.062200
     20 H2R2        0.3570   -0.2540   -2.2840 hc        1 GBN      0.062200
     21 H3R1        1.9400   -2.1390   -1.8110 hc        1 GBN      0.018950
     22 H3R2        2.6590   -0.5290   -1.4220 hc        1 GBN      0.018950
     23 H4R1        1.4160   -2.5430    0.5690 hc        1 GBN      0.028700
     24 H4R2        3.1720   -2.1460    0.3790 hc        1 GBN      0.028700
     25 H5R1        2.1160   -0.9610    2.3270 hc        1 GBN      0.018950
     26 H5R2        2.7740    0.1850    1.0960 hc        1 GBN      0.018950
     27 H6R1        0.5470    0.9300    1.8670 hc        1 GBN      0.062200
     28 H6R2       -0.1850   -0.6770    1.4960 hc        1 GBN      0.062200
@<TRIPOS>BOND
     1    1    2 1   
     2    1   13 1   
     3    1   14 1   
     4    2    4 1   
     5    2   15 1   
     6    2   16 1   
     7    3    4 1   
     8    3   10 1   
     9    3   17 1   
    10    3   18 1   
    11    4    5 1   
    12    4    9 1   
    13    5    6 1   
    14    5   19 1   
    15    5   20 1   
    16    6    7 1   
    17    6   21 1   
    18    6   22 1   
    19    7    8 1   
    20    7   23 1   
    21    7   24 1   
    22    8    9 1   
    23    8   25 1   
    24    8   26 1   
    25    9   27 1   
    26    9   28 1   
    27   10   11 1   
    28   10   12 1   
@<TRIPOS>SUBSTRUCTURE
     1 GBN         1 TEMP              0 ****  ****    0 ROOT
