@<TRIPOS>MOLECULE
GBN
   29    29     1     0     0
SMALL
bcc


@<TRIPOS>ATOM
      1 N1         -0.0870   -0.4090    0.4120 n3        1 GBN     -0.939800
      2 C2          1.2500    0.0750    0.1730 c3        1 GBN      0.157800
      3 C3          2.0800   -1.2050    2.1840 c3        1 GBN     -0.159400
      4 C1R         2.1520    0.1260    1.4250 c3        1 GBN     -0.038000
      5 C2R         1.7680    1.2790    2.3500 c3        1 GBN     -0.075900
      6 C3R         2.0620    2.6460    1.7730 c3        1 GBN     -0.075900
      7 C4R         3.5030    2.7730    1.3270 c3        1 GBN     -0.078400
      8 C5R         3.8730    1.6670    0.3620 c3        1 GBN     -0.075900
      9 C6R         3.6050    0.3040    0.9620 c3        1 GBN     -0.075900
     10 C           0.8670   -1.3560    3.0540 c         1 GBN      0.634100
     11 OA         -0.1200   -2.2330    2.7080 oh        1 GBN     -0.583100
     12 OB          0.6640   -0.8000    4.1360 o         1 GBN     -0.511000
     13 HN11       -0.4990    0.0210    1.2170 hn        1 GBN      0.359800
     14 HN12        0.0180   -2.5540    1.8060 ho        1 GBN      0.440000
     15 H21         1.2570    1.1050   -0.2930 h1        1 GBN      0.033700
     16 H22         1.7210   -0.6280   -0.5750 h1        1 GBN      0.033700
     17 H31         2.9720   -1.2870    2.8650 hc        1 GBN      0.071700
     18 H32         2.1310   -2.0480    1.4450 hc        1 GBN      0.071700
     19 H2R1        0.6770    1.2130    2.6080 hc        1 GBN      0.050450
     20 H2R2        2.3310    1.1550    3.3150 hc        1 GBN      0.050450
     21 H3R1        1.3820    2.8520    0.9050 hc        1 GBN      0.041200
     22 H3R2        1.8440    3.4220    2.5530 hc        1 GBN      0.041200
     23 H4R1        3.6600    3.7690    0.8370 hc        1 GBN      0.042700
     24 H4R2        4.1770    2.7290    2.2220 hc        1 GBN      0.042700
     25 H5R1        3.2940    1.7860   -0.5910 hc        1 GBN      0.041200
     26 H5R2        4.9620    1.7440    0.1020 hc        1 GBN      0.041200
     27 H6R1        3.8560   -0.4930    0.2150 hc        1 GBN      0.050450
     28 H6R2        4.2820    0.1630    1.8470 hc        1 GBN      0.050450
     29 H13        -0.6670   -0.2420   -0.3860 hn        1 GBN      0.359800
@<TRIPOS>BOND
     1    1    2 1   
     2    1   13 1   
     3    1   29 1   
     4    2    4 1   
     5    2   15 1   
     6    2   16 1   
     7    3    4 1   
     8    3   10 1   
     9    3   17 1   
    10    3   18 1   
    11    4    5 1   
    12    4    9 1   
    13    5    6 1   
    14    5   19 1   
    15    5   20 1   
    16    6    7 1   
    17    6   21 1   
    18    6   22 1   
    19    7    8 1   
    20    7   23 1   
    21    7   24 1   
    22    8    9 1   
    23    8   25 1   
    24    8   26 1   
    25    9   27 1   
    26    9   28 1   
    27   10   11 1   
    28   10   12 2   
    29   11   14 1   
@<TRIPOS>SUBSTRUCTURE
     1 GBN         1 TEMP              0 ****  ****    0 ROOT
