@<TRIPOS>MOLECULE
GBN
   29    29     1     0     0
SMALL
bcc


@<TRIPOS>ATOM
      1 N1         -0.0860   -0.3820    0.3830 n8        1 GBN     -0.939800
      2 C2          1.2630    0.0800    0.1630 c3        1 GBN      0.157800
      3 C3          2.0400   -1.2000    2.1960 c3        1 GBN     -0.159400
      4 C1R         2.1450    0.1240    1.4290 c3        1 GBN     -0.038000
      5 C2R         1.7640    1.2890    2.3410 c3        1 GBN     -0.075900
      6 C3R         2.0910    2.6480    1.7590 c3        1 GBN     -0.075900
      7 C4R         3.5410    2.7490    1.3360 c3        1 GBN     -0.078400
      8 C5R         3.9080    1.6300    0.3850 c3        1 GBN     -0.075900
      9 C6R         3.6080    0.2760    0.9900 c3        1 GBN     -0.075900
     10 C           0.8100   -1.3260    3.0460 c         1 GBN      0.634100
     11 OA         -0.1850   -2.1900    2.6900 oh        1 GBN     -0.583100
     12 OB          0.5970   -0.7590    4.1210 o         1 GBN     -0.511000
     13 HN11       -0.0360   -2.5200    1.7920 ho        1 GBN      0.440000
     14 HN12       -0.6490   -0.2110   -0.4250 hn        1 GBN      0.359800
     15 H21         1.7340   -0.6360   -0.5720 h1        1 GBN      0.033700
     16 H22         1.2940    1.1060   -0.3090 h1        1 GBN      0.033700
     17 H31         2.9180   -1.2910    2.8930 hc        1 GBN      0.071700
     18 H32         2.0900   -2.0490    1.4640 hc        1 GBN      0.071700
     19 H2R1        0.6690    1.2430    2.5810 hc        1 GBN      0.050450
     20 H2R2        2.3100    1.1630    3.3150 hc        1 GBN      0.050450
     21 H3R1        1.8720    3.4330    2.5310 hc        1 GBN      0.041200
     22 H3R2        1.4280    2.8580    0.8790 hc        1 GBN      0.041200
     23 H4R1        3.7210    3.7390    0.8420 hc        1 GBN      0.042700
     24 H4R2        4.1990    2.6990    2.2430 hc        1 GBN      0.042700
     25 H5R1        3.3470    1.7520   -0.5790 hc        1 GBN      0.041200
     26 H5R2        5.0020    1.6880    0.1420 hc        1 GBN      0.041200
     27 H6R1        3.8580   -0.5310    0.2520 hc        1 GBN      0.050450
     28 H6R2        4.2680    0.1300    1.8870 hc        1 GBN      0.050450
     29 H13        -0.5040    0.0600    1.1790 hn        1 GBN      0.359800
@<TRIPOS>BOND
     1    1    2 1   
     2    1   14 1   
     3    1   29 1   
     4    2    4 1   
     5    2   15 1   
     6    2   16 1   
     7    3    4 1   
     8    3   10 1   
     9    3   17 1   
    10    3   18 1   
    11    4    5 1   
    12    4    9 1   
    13    5    6 1   
    14    5   19 1   
    15    5   20 1   
    16    6    7 1   
    17    6   21 1   
    18    6   22 1   
    19    7    8 1   
    20    7   23 1   
    21    7   24 1   
    22    8    9 1   
    23    8   25 1   
    24    8   26 1   
    25    9   27 1   
    26    9   28 1   
    27   10   11 1   
    28   10   12 2   
    29   11   13 1   
@<TRIPOS>SUBSTRUCTURE
     1 GBN         1 TEMP              0 ****  ****    0 ROOT
