@<TRIPOS>MOLECULE
GBN
   28    28     1     0     0
SMALL
bcc


@<TRIPOS>ATOM
      1 N1         -2.2780    0.6480   -1.3860 n3        1 GBN     -0.906800
      2 C2         -0.8920    0.3170   -1.3970 c3        1 GBN      0.145800
      3 C3         -1.1240    1.4340    0.7980 c3        1 GBN     -0.195400
      4 C1R        -0.3480    0.3770    0.0130 c3        1 GBN     -0.057000
      5 C2R        -0.5500   -0.9720    0.6750 c3        1 GBN     -0.079400
      6 C3R         0.3260   -2.0490    0.0740 c3        1 GBN     -0.069900
      7 C4R         1.7880   -1.6440    0.0190 c3        1 GBN     -0.071400
      8 C5R         1.9910   -0.2940   -0.6430 c3        1 GBN     -0.069900
      9 C6R         1.1150    0.7820   -0.0420 c3        1 GBN     -0.079400
     10 C          -0.4070    1.7230    2.0990 c         1 GBN      0.908600
     11 OA         -0.5640    0.9600    3.0870 o         1 GBN     -0.848800
     12 OB          0.3450    2.7280    2.1930 o         1 GBN     -0.848800
     13 HN11       -2.7690   -0.0820   -1.6410 hn        1 GBN      0.336300
     14 HN12       -2.4320    1.3380   -1.9690 hn        1 GBN      0.336300
     15 H21        -0.4080    0.9550   -1.9620 h1        1 GBN      0.036200
     16 H22        -0.7750   -0.5880   -1.7540 h1        1 GBN      0.036200
     17 H31        -2.0240    1.1030    0.9890 hc        1 GBN      0.022200
     18 H32        -1.1830    2.2540    0.2690 hc        1 GBN      0.022200
     19 H2R1       -0.3430   -0.8910    1.6280 hc        1 GBN      0.062200
     20 H2R2       -1.4870   -1.2360    0.5760 hc        1 GBN      0.062200
     21 H3R1        0.0170   -2.2380   -0.8340 hc        1 GBN      0.018950
     22 H3R2        0.2440   -2.8610    0.6130 hc        1 GBN      0.018950
     23 H4R1        2.1390   -1.6040    0.9310 hc        1 GBN      0.028700
     24 H4R2        2.2850   -2.3200   -0.4830 hc        1 GBN      0.028700
     25 H5R1        2.9280   -0.0310   -0.5440 hc        1 GBN      0.018950
     26 H5R2        1.7840   -0.3750   -1.5950 hc        1 GBN      0.018950
     27 H6R1        1.1980    1.5950   -0.5800 hc        1 GBN      0.062200
     28 H6R2        1.4250    0.9720    0.8660 hc        1 GBN      0.062200
@<TRIPOS>BOND
     1    1    2 1   
     2    1   13 1   
     3    1   14 1   
     4    2    4 1   
     5    2   15 1   
     6    2   16 1   
     7    3    4 1   
     8    3   10 1   
     9    3   17 1   
    10    3   18 1   
    11    4    5 1   
    12    4    9 1   
    13    5    6 1   
    14    5   19 1   
    15    5   20 1   
    16    6    7 1   
    17    6   21 1   
    18    6   22 1   
    19    7    8 1   
    20    7   23 1   
    21    7   24 1   
    22    8    9 1   
    23    8   25 1   
    24    8   26 1   
    25    9   27 1   
    26    9   28 1   
    27   10   11 1   
    28   10   12 1   
@<TRIPOS>SUBSTRUCTURE
     1 GBN         1 TEMP              0 ****  ****    0 ROOT
