@<TRIPOS>MOLECULE
GBO
   68    69     1     0     0
SMALL
bcc


@<TRIPOS>ATOM
      1 O2          0.0000    0.0000    0.0000 o         1 GBO     -0.462833
      2 P1          1.6090    0.0000    0.0000 p5        1 GBO      0.880900
      3 O8          2.1460    0.0000    1.5170 o         1 GBO     -0.462833
      4 O1          2.1020   -1.2090   -0.6980 o         1 GBO     -0.462833
      5 O3          2.1470    1.3140   -0.7590 os        1 GBO     -0.490800
      6 P2          2.2360    1.7540   -2.3060 p5        1 GBO      0.963800
      7 O4          3.4400    0.9590   -3.0200 o         1 GBO     -0.679000
      8 O9          0.9610    1.4330   -2.9850 o         1 GBO     -0.679000
      9 O5          2.5080    3.3380   -2.3980 os        1 GBO     -0.504200
     10 C1          2.5370    4.0530   -3.6350 c3        1 GBO      0.333600
     11 C2          2.8150    5.5090   -3.3680 c2        1 GBO     -0.104200
     12 C3          2.1140    6.4330   -3.9770 c2        1 GBO     -0.236400
     13 C4          1.1160    6.0450   -5.0380 c3        1 GBO      0.072100
     14 C5          2.3060    7.8840   -3.6180 c3        1 GBO      0.050800
     15 C6          3.3060    8.5210   -4.5850 c3        1 GBO     -0.006200
     16 C7          3.4970    9.9720   -4.2260 c2        1 GBO     -0.117200
     17 C8          4.6890   10.4170   -3.9130 c2        1 GBO     -0.220400
     18 C9          5.8420    9.4570   -3.7820 c3        1 GBO      0.063100
     19 C10         4.9050   11.8910   -3.6820 c3        1 GBO      0.048000
     20 N1          4.8020   12.1810   -2.2500 ny        1 GBO      0.330200
     21 C11         4.9620   13.4430   -1.8040 c         1 GBO     -0.113900
     22 O6          5.1910   14.3390   -2.5900 o         1 GBO     -0.774100
     23 C12         4.8560   13.7420   -0.3310 c3        1 GBO      0.012600
     24 C13         5.0760   15.2390   -0.0980 c3        1 GBO     -0.005400
     25 C14         4.9690   15.5420    1.3980 c3        1 GBO     -0.042400
     26 C15         5.1890   17.0370    1.6320 c3        1 GBO     -0.019400
     27 C16         5.0810   17.3410    3.1280 c3        1 GBO      0.069400
     28 S1          3.3510   17.1310    3.7130 ss        1 GBO     -0.396200
     29 C17         3.5100   18.3290    5.0990 c3        1 GBO      0.075700
     30 C18         4.4640   19.3920    4.5200 c3        1 GBO     -0.000300
     31 C19         5.3590   18.8320    3.4050 c3        1 GBO      0.007700
     32 N2          4.9840   19.6180    2.2180 ns        1 GBO     -0.208900
     33 C20         4.0320   20.4970    2.5600 c         1 GBO      0.624500
     34 O7          3.5360   21.2760    1.7700 o         1 GBO     -0.732500
     35 N3          3.6750   20.4410    3.8550 ns        1 GBO     -0.220900
     36 H1          3.3150    3.6470   -4.2690 h1        1 GBO     -0.010800
     37 H1A         1.5790    3.9540   -4.1310 h1        1 GBO     -0.010800
     38 H2          3.5320    5.7900   -2.6060 ha        1 GBO      0.092000
     39 H4          1.5970    5.4060   -5.7690 hc        1 GBO      0.001033
     40 H4A         0.7430    6.9370   -5.5270 hc        1 GBO      0.001033
     41 H4B         0.2920    5.5120   -4.5800 hc        1 GBO      0.001033
     42 H5          1.3570    8.4020   -3.6880 hc        1 GBO      0.008200
     43 H5A         2.6840    7.9590   -2.6060 hc        1 GBO      0.008200
     44 H6          4.2550    8.0030   -4.5150 hc        1 GBO      0.028200
     45 H6A         2.9270    8.4460   -5.5970 hc        1 GBO      0.028200
     46 H7          2.6590   10.6560   -4.2730 ha        1 GBO      0.100000
     47 H9          6.7350   10.0010   -3.5000 hc        1 GBO      0.011700
     48 H9A         5.6140    8.7190   -3.0220 hc        1 GBO      0.011700
     49 H9B         6.0070    8.9590   -4.7300 hc        1 GBO      0.011700
     50 H10         4.1520   12.4550   -4.2190 hx        1 GBO      0.057700
     51 H10A        5.8890   12.1720   -4.0370 hx        1 GBO      0.057700
     52 HN1         3.8930   11.8820   -1.9570 hn        1 GBO      0.103800
     53 H12         5.6080   13.1780    0.2070 hc        1 GBO     -0.020300
     54 H12A        3.8710   13.4620    0.0240 hc        1 GBO     -0.020300
     55 H13         6.0600   15.5190   -0.4540 hc        1 GBO      0.027700
     56 H13A        4.3230   15.8030   -0.6350 hc        1 GBO      0.027700
     57 H14         3.9850   15.2610    1.7540 hc        1 GBO      0.018200
     58 H14A        5.7220   14.9780    1.9350 hc        1 GBO      0.018200
     59 H15         6.1730   17.3180    1.2770 hc        1 GBO      0.031200
     60 H15A        4.4370   17.6020    1.0940 hc        1 GBO      0.031200
     61 H16         5.7550   16.7160    3.7020 h1        1 GBO      0.058700
     62 H17         4.0410   17.8250    5.8970 h1        1 GBO      0.062200
     63 H17A        2.5440   18.8020    5.2240 h1        1 GBO      0.062200
     64 H18         5.0710   19.8230    5.3080 h1        1 GBO      0.031700
     65 H19         6.4040   18.9850    3.6450 h1        1 GBO      0.035700
     66 HN2         5.3820   19.5180    1.3060 hn        1 GBO      0.226500
     67 HN3         2.9840   21.0160    4.2940 hn        1 GBO      0.210500
     68 H121        5.4910   11.6200   -1.7890 hn        1 GBO      0.103800
@<TRIPOS>BOND
     1    1    2 1   
     2    2    3 1   
     3    2    4 1   
     4    2    5 1   
     5    5    6 1   
     6    6    7 1   
     7    6    8 1   
     8    6    9 1   
     9    9   10 1   
    10   10   11 1   
    11   10   36 1   
    12   10   37 1   
    13   11   12 2   
    14   11   38 1   
    15   12   13 1   
    16   12   14 1   
    17   13   39 1   
    18   13   40 1   
    19   13   41 1   
    20   14   15 1   
    21   14   42 1   
    22   14   43 1   
    23   15   16 1   
    24   15   44 1   
    25   15   45 1   
    26   16   17 2   
    27   16   46 1   
    28   17   18 1   
    29   17   19 1   
    30   18   47 1   
    31   18   48 1   
    32   18   49 1   
    33   19   20 1   
    34   19   50 1   
    35   19   51 1   
    36   20   21 1   
    37   20   52 1   
    38   20   68 1   
    39   21   22 2   
    40   21   23 1   
    41   23   24 1   
    42   23   53 1   
    43   23   54 1   
    44   24   25 1   
    45   24   55 1   
    46   24   56 1   
    47   25   26 1   
    48   25   57 1   
    49   25   58 1   
    50   26   27 1   
    51   26   59 1   
    52   26   60 1   
    53   27   28 1   
    54   27   31 1   
    55   27   61 1   
    56   28   29 1   
    57   29   30 1   
    58   29   62 1   
    59   29   63 1   
    60   30   31 1   
    61   30   35 1   
    62   30   64 1   
    63   31   32 1   
    64   31   65 1   
    65   32   33 1   
    66   32   66 1   
    67   33   34 2   
    68   33   35 1   
    69   35   67 1   
@<TRIPOS>SUBSTRUCTURE
     1 GBO         1 TEMP              0 ****  ****    0 ROOT
