@<TRIPOS>MOLECULE
GBP
   56    56     1     0     0
SMALL
bcc


@<TRIPOS>ATOM
      1 C           3.9220    1.4140    0.5700 c2        1 GBP      0.297000
      2 OT1         4.7600    2.3150    0.8230 o         1 GBP     -0.512500
      3 OT2         4.1650    0.2990    0.0460 o         1 GBP     -0.512500
      4 N           1.5680    1.7720   -0.0870 n4        1 GBP     -0.045000
      5 CA          2.4560    1.6250    1.1060 c3        1 GBP     -0.193000
      6 CB          2.0550    0.4260    1.9730 c3        1 GBP     -0.180000
      7 CB2         7.4970   -0.1750    2.6120 c3        1 GBP     -0.324000
      8 SG2         7.3480   -1.8640    2.1440 ss        1 GBP      0.192000
      9 CG          2.5650    0.5050    3.3980 c3        1 GBP     -0.187000
     10 CD          3.8910   -0.1730    3.6470 c2        1 GBP      0.275000
     11 OE          4.1080   -1.0950    4.4170 o         1 GBP     -0.183000
     12 N2          5.0510    0.3860    2.8690 n4        1 GBP     -0.133000
     13 CA2         6.3950    0.3500    3.5220 c3        1 GBP     -0.103000
     14 C2          6.7840    1.7750    4.0160 c2        1 GBP      0.272000
     15 O2          7.0490    1.9250    5.2130 o         1 GBP     -0.257000
     16 N3          6.8450    2.7980    3.0730 n         1 GBP     -0.327000
     17 CA3         6.3780    4.1030    3.4630 c3        1 GBP     -0.083000
     18 C3          4.8590    4.1840    3.5290 c2        1 GBP      0.307000
     19 O31         4.2380    5.3760    3.6660 oh        1 GBP     -0.247000
     20 O32         4.0860    3.2150    3.4700 o         1 GBP     -0.409000
     21 NE2         9.4660   -3.0530    3.5620 n4        1 GBP      0.262000
     22 OF2        10.0470   -1.8170    3.4050 oh        1 GBP     -0.293000
     23 CD2         7.9250   -2.8530    3.5140 c3        1 GBP     -0.037000
     24 OZ1         7.5240   -2.2690    4.7170 oh        1 GBP     -0.292000
     25 CG2         9.8770   -4.0570    2.6590 c2        1 GBP     -1.158000
     26 CL1         9.6530   -4.0090    0.9740 cl        1 GBP      0.881000
     27 CL2        10.9960   -5.2830    3.0330 cl        1 GBP      0.881000
     28 CM1        10.9510   -4.6210   -0.0240 c2        1 GBP     -0.184500
     29 CM2        12.1410   -5.7370    1.7950 c2        1 GBP     -0.184500
     30 CZ         12.0340   -5.3330    0.4720 c2        1 GBP     -0.267000
     31 BR         13.3930   -5.8420   -0.7290 br        1 GBP      0.142000
     32 H11N        1.7320    0.9750   -0.7170 hn        1 GBP      0.258000
     33 H12N        0.5820    1.8000    0.1820 hn        1 GBP      0.258000
     34 HA1         2.4150    2.5860    1.7020 hx        1 GBP      0.176000
     35 HB1         2.4170   -0.5170    1.4750 hc        1 GBP      0.126000
     36 HB2         0.9320    0.3590    2.0390 hc        1 GBP      0.126000
     37 HB21        8.4750    0.0020    3.1380 h1        1 GBP      0.174500
     38 HB22        7.5290    0.3820    1.6350 h1        1 GBP      0.174500
     39 HG1         1.8270   -0.0140    4.0770 hc        1 GBP      0.175500
     40 HG2         2.6400    1.5770    3.7460 hc        1 GBP      0.175500
     41 HN21        5.0970   -0.1240    1.9620 hn        1 GBP      0.295500
     42 HA2         6.3260   -0.3120    4.4460 hx        1 GBP      0.200000
     43 HN3         6.6420    2.5630    2.1180 hn        1 GBP      0.248000
     44 HA31        6.7920    4.3660    4.4820 h1        1 GBP      0.160000
     45 HA32        6.7540    4.8540    2.7090 h1        1 GBP      0.160000
     46 HOF2       10.8720   -1.9170    2.8890 ho        1 GBP      0.260000
     47 HD2         7.5090   -3.8910    3.3470 hx        1 GBP      0.186000
     48 HOZ1        7.3790   -2.9570    5.3890 ho        1 GBP      0.252000
     49 HL1         8.4730   -3.5570    0.5860 ha        1 GBP     -0.115000
     50 HL2        10.8600   -5.8350    4.2220 ha        1 GBP     -0.115000
     51 HM1        10.8780   -4.4370   -1.1130 h4        1 GBP      0.191500
     52 HM2        12.9750   -6.4000    2.0960 h4        1 GBP      0.191500
     53 HN31        1.8160    2.6370   -0.5780 hn        1 GBP      0.258000
     54 H22         4.8010    1.3820    2.6550 hn        1 GBP      0.295500
     55 H32         4.8870    6.0960    3.7290 ho        1 GBP      0.254000
     56 HE21        9.6980   -3.3540    4.5300 hn        1 GBP      0.239000
@<TRIPOS>BOND
     1    1    2 1   
     2    1    3 1   
     3    1    5 1   
     4    4    5 1   
     5    4   32 1   
     6    4   33 1   
     7    4   53 1   
     8    5    6 1   
     9    5   34 1   
    10    6    9 1   
    11    6   35 1   
    12    6   36 1   
    13    7    8 1   
    14    7   13 1   
    15    7   37 1   
    16    7   38 1   
    17    8   23 1   
    18    9   10 1   
    19    9   39 1   
    20    9   40 1   
    21   10   11 1   
    22   10   12 1   
    23   12   13 1   
    24   12   41 1   
    25   12   54 1   
    26   13   14 1   
    27   13   42 1   
    28   14   15 1   
    29   14   16 1   
    30   16   17 1   
    31   16   43 1   
    32   17   18 1   
    33   17   44 1   
    34   17   45 1   
    35   18   19 1   
    36   18   20 1   
    37   19   55 1   
    38   21   22 1   
    39   21   23 1   
    40   21   25 1   
    41   21   56 1   
    42   22   46 1   
    43   23   24 1   
    44   23   47 1   
    45   24   48 1   
    46   25   26 1   
    47   25   27 1   
    48   26   28 1   
    49   26   49 1   
    50   27   29 1   
    51   27   50 1   
    52   28   30 1   
    53   28   51 1   
    54   29   30 1   
    55   29   52 1   
    56   30   31 1   
@<TRIPOS>SUBSTRUCTURE
     1 GBP         1 TEMP              0 ****  ****    0 ROOT
