@<TRIPOS>MOLECULE
GBP
   52    49     1     0     0
SMALL
bcc


@<TRIPOS>ATOM
      1 C          -0.3300   -4.1430   -6.3940 c1        1 GBP      0.306000
      2 OT1        -0.3830   -5.4190   -6.2560 os        1 GBP     -0.583000
      3 OT2         0.6570   -3.6110   -7.0020 o         1 GBP     -0.581000
      4 N          -2.7090   -3.8600   -6.3090 n3        1 GBP     -0.320000
      5 CA         -1.5110   -3.2670   -5.9290 c3        1 GBP     -0.128000
      6 CB         -1.4770   -3.1250   -4.4030 c3        1 GBP     -0.123000
      7 CB2         0.5060    0.7620   -0.2020 c3        1 GBP     -0.297000
      8 SG2         0.2950    1.3650    1.4480 ss        1 GBP      0.129000
      9 CG         -1.2310   -1.6630   -4.0340 c3        1 GBP     -0.194000
     10 CD         -1.1090   -1.5330   -2.5130 c2        1 GBP      0.303000
     11 OE         -1.2810   -2.5050   -1.8050 o         1 GBP     -0.386000
     12 N2         -0.7260   -0.3140   -1.9440 n         1 GBP     -0.375000
     13 CA2        -0.6160   -0.1910   -0.5380 c3        1 GBP      0.014000
     14 C2         -1.9200    0.3430    0.0270 c2        1 GBP      0.274000
     15 O2         -2.4340    1.3110   -0.4640 o         1 GBP     -0.503000
     16 N3         -2.6060   -0.3880    1.0630 n         1 GBP     -0.290000
     17 CA3        -3.9120    0.0220    1.4870 c3        1 GBP     -0.124000
     18 C3         -4.8900   -1.1370    1.3130 c2        1 GBP      0.335000
     19 O31        -5.0590   -1.9620    2.2500 o         1 GBP     -0.560500
     20 O32        -5.6220   -1.1970    0.2780 o         1 GBP     -0.560500
     21 NE2         2.0550    2.7490    2.8160 n3        1 GBP      0.005000
     22 OF2         1.3790    3.8490    2.2740 oh        1 GBP     -0.249000
     23 CD2         1.8600    1.4330    2.2520 c3        1 GBP     -0.008000
     24 OZ1         1.9020    0.4740    3.2720 oh        1 GBP     -0.297000
     25 CG2         3.0070    2.9460    3.9370 c2        1 GBP     -0.525000
     26 CL1         4.0680    2.0590    4.1180 cl        1 GBP      0.774000
     27 CL2         2.8280    4.0150    4.8270 cl        1 GBP      0.799000
     28 CM1         4.9560    2.2390    5.1920 c1        1 GBP     -0.690000
     29 CM2         3.7110    4.1930    5.8940 c1        1 GBP     -0.683000
     30 CZ          4.7750    3.3060    6.0770 c1        1 GBP      0.121000
     31 BR          6.0260    3.5960    7.4980 br        1 GBP     -0.070000
     32 H11N       -2.5550   -4.4480   -6.9920 hn        1 GBP      0.125000
     33 H12N       -3.2930   -3.2120   -6.5880 hn        1 GBP      0.125000
     34 HA1        -1.4400   -2.3710   -6.3450 h1        1 GBP      0.082000
     35 HB1        -2.3360   -3.4180   -4.0280 hc        1 GBP      0.079000
     36 HB2        -0.7600   -3.6750   -4.0410 hc        1 GBP      0.079000
     37 HB21        1.3680    0.2900   -0.2710 h1        1 GBP      0.140000
     38 HB22        0.4950    1.5270   -0.8380 h1        1 GBP      0.140000
     39 HG1        -0.4030   -1.3550   -4.4550 hc        1 GBP      0.135500
     40 HG2        -1.9800   -1.1160   -4.3490 hc        1 GBP      0.135500
     41 HN21       -0.5470    0.3990   -2.4770 hn        1 GBP      0.227000
     42 HA2        -0.4290   -1.0620   -0.1510 h1        1 GBP      0.142000
     43 HN3        -2.1750   -1.0830    1.5010 hn        1 GBP      0.268000
     44 HA31       -3.8820    0.2840    2.4310 h1        1 GBP      0.074000
     45 HA32       -4.2050    0.7770    0.9500 h1        1 GBP      0.074000
     46 HOF2        1.3610    4.5060    2.8670 ho        1 GBP      0.272000
     47 HD2         2.5720    1.2490    1.5990 h3        1 GBP      0.175000
     48 HOZ1        2.3540   -0.2440    2.9880 ho        1 GBP      0.207000
     49 HL1         4.1960    1.3220    3.4990 ha        1 GBP     -0.145000
     50 HL2         2.1000    4.6540    4.6830 ha        1 GBP     -0.161000
     51 HM1         5.7380    1.6390    5.2940 ha        1 GBP      0.153000
     52 HM2         3.6170    4.9890    6.4920 ha        1 GBP      0.157000
@<TRIPOS>BOND
     1    1    3 1   
     2    1    5 1   
     3    4    5 1   
     4    4   32 1   
     5    4   33 1   
     6    5    6 1   
     7    5   34 1   
     8    6    9 1   
     9    6   35 1   
    10    6   36 1   
    11    7    8 1   
    12    7   13 1   
    13    7   37 1   
    14    7   38 1   
    15    8   23 1   
    16    9   10 1   
    17    9   39 1   
    18    9   40 1   
    19   10   11 1   
    20   10   12 1   
    21   12   13 1   
    22   12   41 1   
    23   13   14 1   
    24   13   42 1   
    25   14   15 1   
    26   14   16 1   
    27   16   17 1   
    28   16   43 1   
    29   17   18 1   
    30   17   44 1   
    31   17   45 1   
    32   18   19 1   
    33   18   20 1   
    34   21   22 1   
    35   21   23 1   
    36   21   25 1   
    37   22   46 1   
    38   23   24 1   
    39   23   47 1   
    40   24   48 1   
    41   25   26 1   
    42   25   27 1   
    43   26   28 1   
    44   26   49 1   
    45   27   50 1   
    46   28   51 1   
    47   29   30 1   
    48   29   52 1   
    49   30   31 1   
@<TRIPOS>SUBSTRUCTURE
     1 GBP         1 TEMP              0 ****  ****    0 ROOT
