@<TRIPOS>MOLECULE
GBP
   52    52     1     0     0
SMALL
bcc


@<TRIPOS>ATOM
      1 C           3.2430   -0.3630    7.4510 c2        1 GBP      0.308000
      2 OT1         3.0590    0.7760    7.9600 o         1 GBP     -0.578000
      3 OT2         3.2530   -1.4460    8.1060 o         1 GBP     -0.578000
      4 N           3.6990   -1.7900    5.3990 n3        1 GBP     -0.327000
      5 CA          3.5250   -0.4360    5.9130 c3        1 GBP     -0.131000
      6 CB          2.4450    0.3520    5.1660 c3        1 GBP     -0.141000
      7 CB2        -0.3310    0.5820    0.3290 c3        1 GBP     -0.304000
      8 SG2        -0.5030    1.7750   -0.9660 ss        1 GBP      0.015000
      9 CG          2.8980    0.6900    3.7620 c3        1 GBP     -0.176000
     10 CD          1.8490    1.4040    2.9320 c2        1 GBP      0.310000
     11 OE          2.0210    2.5680    2.5180 o         1 GBP     -0.388000
     12 N2          0.7120    0.6890    2.5870 n         1 GBP     -0.385000
     13 CA2        -0.3140    1.2200    1.7320 c3        1 GBP      0.006000
     14 C2         -1.7400    1.0710    2.3250 c2        1 GBP      0.266000
     15 O2         -2.4520    2.0850    2.4440 o         1 GBP     -0.352000
     16 N3         -2.1650   -0.1950    2.7320 n         1 GBP     -0.299000
     17 CA3        -3.5720   -0.5110    2.6030 c3        1 GBP     -0.123000
     18 C3         -4.0380   -0.7880    1.1610 c2        1 GBP      0.311000
     19 O31        -3.2270   -0.5240    0.2020 o         1 GBP     -0.590000
     20 O32        -5.1890   -1.2410    0.9580 o         1 GBP     -0.590000
     21 NE2        -2.6200    0.7340   -2.3860 n3        1 GBP      0.038000
     22 OF2        -3.8950    0.3710   -2.2850 oh        1 GBP     -0.267000
     23 CD2        -2.2260    1.8800   -1.5120 c3        1 GBP      0.058000
     24 OZ1        -3.1950    2.1470   -0.5550 oh        1 GBP     -0.288000
     25 CG2        -1.8740    0.2510   -3.3410 c2        1 GBP     -0.564000
     26 CL1        -2.3530   -1.0200   -4.5040 cl        1 GBP      0.801500
     27 CL2        -0.1490    0.7800   -3.7480 cl        1 GBP      0.801500
     28 CM1        -1.1810   -1.5220   -5.6480 c2        1 GBP     -0.694500
     29 CM2         0.3040    0.4290   -5.3600 c2        1 GBP     -0.694500
     30 CZ         -0.1430   -0.7050   -5.9870 c2        1 GBP      0.123000
     31 BR          0.8220   -1.1960   -7.5800 br        1 GBP     -0.089000
     32 H11N        4.2800   -2.2840    6.0590 hn        1 GBP      0.126500
     33 H12N        2.8070   -2.2520    5.4150 hn        1 GBP      0.126500
     34 HA1         4.5120    0.0920    5.7570 h1        1 GBP      0.080000
     35 HB1         1.4880   -0.2300    5.1430 hc        1 GBP      0.096000
     36 HB2         2.2550    1.2940    5.7490 hc        1 GBP      0.096000
     37 HB21        0.6530    0.0940    0.1070 h1        1 GBP      0.149500
     38 HB22       -1.1330   -0.1960    0.2390 h1        1 GBP      0.149500
     39 HG1         3.7920    1.3670    3.8140 hc        1 GBP      0.107500
     40 HG2         3.2100   -0.2440    3.2220 hc        1 GBP      0.107500
     41 HN21        0.5730   -0.2040    2.9940 hn        1 GBP      0.230000
     42 HA2        -0.1270    2.3350    1.6150 h1        1 GBP      0.169000
     43 HN3        -1.5890   -0.9370    2.3850 hn        1 GBP      0.189000
     44 HA31       -3.7790   -1.4180    3.2330 h1        1 GBP      0.107500
     45 HA32       -4.1760    0.3500    3.0020 h1        1 GBP      0.107500
     46 HOF2       -4.0290   -0.0850   -1.4070 ho        1 GBP      0.300000
     47 HD2        -2.2000    2.8030   -2.1710 h3        1 GBP      0.149000
     48 HOZ1       -3.1910    1.4560    0.1410 ho        1 GBP      0.272000
     49 HL1        -3.4490   -1.7070   -4.7880 ha        1 GBP     -0.171000
     50 HL2         0.9570    1.3130   -3.2490 ha        1 GBP     -0.171000
     51 HM1        -1.3560   -2.5020   -6.0830 h4        1 GBP      0.149500
     52 HM2         0.9880    1.1460   -5.8040 h4        1 GBP      0.149500
@<TRIPOS>BOND
     1    1    2 1   
     2    1    3 1   
     3    1    5 1   
     4    4    5 1   
     5    4   32 1   
     6    4   33 1   
     7    5    6 1   
     8    5   34 1   
     9    6    9 1   
    10    6   35 1   
    11    6   36 1   
    12    7    8 1   
    13    7   13 1   
    14    7   37 1   
    15    7   38 1   
    16    8   23 1   
    17    9   10 1   
    18    9   39 1   
    19    9   40 1   
    20   10   11 1   
    21   10   12 1   
    22   12   13 1   
    23   12   41 1   
    24   13   14 1   
    25   13   42 1   
    26   14   15 1   
    27   14   16 1   
    28   16   17 1   
    29   16   43 1   
    30   17   18 1   
    31   17   44 1   
    32   17   45 1   
    33   18   19 1   
    34   18   20 1   
    35   21   22 1   
    36   21   23 1   
    37   21   25 1   
    38   22   46 1   
    39   23   24 1   
    40   23   47 1   
    41   24   48 1   
    42   25   26 1   
    43   25   27 1   
    44   26   28 1   
    45   26   49 1   
    46   27   29 1   
    47   27   50 1   
    48   28   30 1   
    49   28   51 1   
    50   29   30 1   
    51   29   52 1   
    52   30   31 1   
@<TRIPOS>SUBSTRUCTURE
     1 GBP         1 TEMP              0 ****  ****    0 ROOT
