@<TRIPOS>MOLECULE
GBP
   55    55     1     0     0
SMALL
bcc


@<TRIPOS>ATOM
      1 C           4.1280   -2.2040    1.0800 c2        1 GBP      0.366000
      2 OT1         4.6440   -2.0100    2.2140 o         1 GBP     -0.527500
      3 OT2         3.4380   -3.1770    0.7140 o         1 GBP     -0.527500
      4 N           4.0000   -1.5370   -1.3390 nz        1 GBP     -0.071000
      5 CA          4.4220   -1.0710    0.0140 c3        1 GBP     -0.223000
      6 CB          3.7510    0.2260    0.4580 c3        1 GBP     -0.152000
      7 CB2         6.3990   -0.6680    5.9520 c3        1 GBP     -0.341000
      8 SG2         6.3760   -2.3160    5.3340 ss        1 GBP      0.236000
      9 CG          4.6030    0.9550    1.4840 c3        1 GBP     -0.158000
     10 CD          4.3760    0.4370    2.8790 c2        1 GBP      0.309000
     11 OE          3.3110    0.3310    3.4650 o         1 GBP     -0.183000
     12 N2          5.6320    0.0590    3.6500 ny        1 GBP     -0.122000
     13 CA2         5.5700    0.3120    5.1200 c3        1 GBP     -0.103000
     14 C2          5.9740    1.7720    5.4310 c2        1 GBP      0.273000
     15 O2          5.1330    2.5500    5.8920 o         1 GBP     -0.254000
     16 N3          7.2950    2.1530    5.1800 ns        1 GBP     -0.337000
     17 CA3         7.5400    3.4580    4.6330 c3        1 GBP     -0.088000
     18 C3          7.2960    3.5120    3.1310 c2        1 GBP      0.283000
     19 O31         7.5350    4.6450    2.4350 oh        1 GBP     -0.245000
     20 O32         6.8710    2.5690    2.4460 o         1 GBP     -0.388000
     21 NE2         8.3580   -1.6830    3.5240 n3        1 GBP     -0.042000
     22 OF2         8.7770   -0.4710    3.9250 oh        1 GBP     -0.268000
     23 CD2         8.0210   -2.5840    4.6570 c3        1 GBP     -0.015000
     24 OZ1         8.9700   -2.3760    5.6740 oh        1 GBP     -0.308000
     25 CG2         8.2500   -1.9500    2.2520 c2        1 GBP     -0.523000
     26 Cl1         8.7330   -0.7880    0.8560 cl        1 GBP      0.736000
     27 Cl2         7.5070   -3.4100    1.4430 cl        1 GBP      0.736000
     28 CM1         7.8090   -1.0040   -0.5730 c2        1 GBP     -0.644000
     29 CM2         7.4110   -3.4300   -0.2810 c2        1 GBP     -0.644000
     30 CZ          7.4570   -2.2680   -0.9860 c2        1 GBP      0.078000
     31 Br          6.8130   -2.3680   -2.7960 br        1 GBP     -0.016000
     32 H11N        3.4910   -0.8170   -1.8450 hn        1 GBP      0.253333
     33 H12N        4.8420   -1.8280   -1.8840 hn        1 GBP      0.253333
     34 HA1         5.5470   -0.9290   -0.0230 hx        1 GBP      0.164000
     35 HB1         2.7370    0.0030    0.8880 hc        1 GBP      0.117000
     36 HB2         3.6100    0.9260   -0.4110 hc        1 GBP      0.117000
     37 HB21        7.4590   -0.3300    6.0730 h1        1 GBP      0.163500
     38 HB22        5.9440   -0.6930    6.9800 h1        1 GBP      0.163500
     39 HG1         4.3070    2.0440    1.5120 hc        1 GBP      0.147500
     40 HG2         5.6860    0.9220    1.1840 hc        1 GBP      0.147500
     41 HN21        5.7290   -0.9820    3.5110 hn        1 GBP      0.284000
     42 HA2         4.4770    0.2020    5.4280 hx        1 GBP      0.205000
     43 HN3         7.9100    1.4410    4.8440 hn        1 GBP      0.222000
     44 HA31        8.6130    3.7420    4.8370 h1        1 GBP      0.157000
     45 HA32        6.8640    4.2110    5.1370 h1        1 GBP      0.157000
     46 HOF2        9.6340   -0.5890    4.3870 ho        1 GBP      0.248000
     47 HD2         8.0020   -3.6440    4.2730 h3        1 GBP      0.165000
     48 HOZ1        9.6960   -3.0110    5.5700 ho        1 GBP      0.243000
     49 HL1         9.6020    0.1480    0.5120 ha        1 GBP     -0.092500
     50 HL2         6.9020   -4.5380    1.7660 ha        1 GBP     -0.092500
     51 HM1         7.6850   -0.0990   -1.1620 h4        1 GBP      0.177000
     52 HM2         7.2680   -4.4190   -0.7160 h4        1 GBP      0.177000
     53 HN31        3.3890   -2.3670   -1.2050 hn        1 GBP      0.253333
     54 H22         6.4380    0.5310    3.2240 hn        1 GBP      0.284000
     55 H32         7.8470    5.3480    3.0270 ho        1 GBP      0.249000
@<TRIPOS>BOND
     1    1    2 1   
     2    1    3 1   
     3    1    5 1   
     4    4    5 1   
     5    4   32 1   
     6    4   33 1   
     7    4   53 1   
     8    5    6 1   
     9    5   34 1   
    10    6    9 1   
    11    6   35 1   
    12    6   36 1   
    13    7    8 1   
    14    7   13 1   
    15    7   37 1   
    16    7   38 1   
    17    8   23 1   
    18    9   10 1   
    19    9   39 1   
    20    9   40 1   
    21   10   11 1   
    22   10   12 1   
    23   12   13 1   
    24   12   41 1   
    25   12   54 1   
    26   13   14 1   
    27   13   42 1   
    28   14   15 1   
    29   14   16 1   
    30   16   17 1   
    31   16   43 1   
    32   17   18 1   
    33   17   44 1   
    34   17   45 1   
    35   18   19 1   
    36   18   20 1   
    37   19   55 1   
    38   21   22 1   
    39   21   23 1   
    40   21   25 1   
    41   22   46 1   
    42   23   24 1   
    43   23   47 1   
    44   24   48 1   
    45   25   26 1   
    46   25   27 1   
    47   26   28 1   
    48   26   49 1   
    49   27   29 1   
    50   27   50 1   
    51   28   30 1   
    52   28   51 1   
    53   29   30 1   
    54   29   52 1   
    55   30   31 1   
@<TRIPOS>SUBSTRUCTURE
     1 GBP         1 TEMP              0 ****  ****    0 ROOT
