@<TRIPOS>MOLECULE
GBS
   21    21     1     0     0
SMALL
bcc


@<TRIPOS>ATOM
      1 CD          0.1840   -0.0410   -3.2350 c         1 GBS      0.909200
      2 OD         -0.7770   -0.4310   -3.9550 o         1 GBS     -0.828300
      3 C1         -0.0600    0.0950   -1.7380 ca        1 GBS     -0.131600
      4 C21        -1.2980   -0.2420   -1.1870 ca        1 GBS     -0.091500
      5 C22         0.9540    0.5550   -0.8930 ca        1 GBS     -0.091500
      6 C31        -1.5230   -0.1400    0.1830 ca        1 GBS     -0.186000
      7 C32         0.7460    0.6730    0.4780 ca        1 GBS     -0.186000
      8 C4         -0.5010    0.3240    1.0380 ca        1 GBS      0.054600
      9 NE         -0.7420    0.5140    2.4270 nh        1 GBS     -0.707600
     10 CZ          0.1740   -0.1050    3.3720 c2        1 GBS      0.752100
     11 NH1         0.8890   -1.2630    2.9590 nh        1 GBS     -0.903800
     12 NH2         0.3360    0.3450    4.5940 n2        1 GBS     -0.883100
     13 OXT         1.3350    0.2400   -3.6720 o         1 GBS     -0.828300
     14 H21        -2.0910   -0.5960   -1.8660 ha        1 GBS      0.155500
     15 H22         1.9240    0.8240   -1.3430 ha        1 GBS      0.155500
     16 H31        -2.5060   -0.4160    0.5920 ha        1 GBS      0.112000
     17 H32         1.5530    1.0530    1.1210 ha        1 GBS      0.112000
     18 HE         -1.6920    0.3070    2.6710 hn        1 GBS      0.390800
     19 HH11        1.7030   -1.4560    3.5020 hn        1 GBS      0.404300
     20 HH12        1.0590   -1.3160    1.9760 hn        1 GBS      0.404300
     21 HH2        -0.2560    1.1060    4.8450 hn        1 GBS      0.389400
@<TRIPOS>BOND
     1    1    2 1   
     2    1    3 1   
     3    1   13 1   
     4    3    4 ar  
     5    3    5 ar  
     6    4    6 ar  
     7    4   14 1   
     8    5    7 ar  
     9    5   15 1   
    10    6    8 ar  
    11    6   16 1   
    12    7    8 ar  
    13    7   17 1   
    14    8    9 1   
    15    9   10 1   
    16    9   18 1   
    17   10   11 1   
    18   10   12 2   
    19   11   19 1   
    20   11   20 1   
    21   12   21 1   
@<TRIPOS>SUBSTRUCTURE
     1 GBS         1 TEMP              0 ****  ****    0 ROOT
