@<TRIPOS>MOLECULE
GBS
   22    22     1     0     0
SMALL
bcc


@<TRIPOS>ATOM
      1 CD          0.0900   -0.3230    0.0830 c         1 GBS      0.909200
      2 OD          1.3450   -0.3280    0.1450 o         1 GBS     -0.789300
      3 C1         -0.6540    0.0070    1.3870 ca        1 GBS     -0.093600
      4 C21        -2.0450   -0.1210    1.4590 ca        1 GBS     -0.102000
      5 C22         0.0640    0.3890    2.5260 ca        1 GBS     -0.102000
      6 C31        -2.7090    0.0410    2.6690 ca        1 GBS     -0.164500
      7 C32        -0.5790    0.5620    3.7450 ca        1 GBS     -0.164500
      8 C4         -1.9720    0.3460    3.8320 ca        1 GBS     -0.068400
      9 NE         -2.6040    0.4140    5.1130 nu        1 GBS     -0.656600
     10 CZ         -2.5520   -0.7730    5.8890 c2        1 GBS      0.703100
     11 NH1        -1.6390   -1.8590    5.3250 nz        1 GBS     -0.825600
     12 NH2        -3.0460   -1.0580    7.0490 n2        1 GBS     -0.816100
     13 OXT        -0.6220   -0.5940   -0.9160 o         1 GBS     -0.789300
     14 H21        -2.5910   -0.3640    0.5290 ha        1 GBS      0.183500
     15 H22         1.1540    0.5360    2.4240 ha        1 GBS      0.183500
     16 H31        -3.8040   -0.0640    2.7110 ha        1 GBS      0.128000
     17 H32        -0.0100    0.8870    4.6290 ha        1 GBS      0.128000
     18 HE         -3.5160    0.8330    5.0960 hn        1 GBS      0.438800
     19 HH11       -0.6990   -1.4580    5.1920 hn        1 GBS      0.477467
     20 HH12       -1.5960   -2.6630    5.9570 hn        1 GBS      0.477467
     21 HH2        -3.6250   -0.3780    7.4920 hn        1 GBS      0.465400
     22 HH13       -2.0020   -2.1420    4.4060 hn        1 GBS      0.477467
@<TRIPOS>BOND
     1    1    2 1   
     2    1    3 1   
     3    1   13 1   
     4    3    4 ar  
     5    3    5 ar  
     6    4    6 ar  
     7    4   14 1   
     8    5    7 ar  
     9    5   15 1   
    10    6    8 ar  
    11    6   16 1   
    12    7    8 ar  
    13    7   17 1   
    14    8    9 1   
    15    9   10 1   
    16    9   18 1   
    17   10   11 1   
    18   10   12 2   
    19   11   19 1   
    20   11   20 1   
    21   11   22 1   
    22   12   21 1   
@<TRIPOS>SUBSTRUCTURE
     1 GBS         1 TEMP              0 ****  ****    0 ROOT
