@<TRIPOS>MOLECULE
GBS
   22    22     1     0     0
SMALL
bcc


@<TRIPOS>ATOM
      1 CD          0.0910   -0.3200    0.0840 c         1 GBS      0.909200
      2 OD          1.3470   -0.3390    0.1460 o         1 GBS     -0.789300
      3 C1         -0.6500    0.0100    1.3890 ca        1 GBS     -0.093600
      4 C21        -2.0420   -0.1030    1.4600 ca        1 GBS     -0.102000
      5 C22         0.0710    0.3770    2.5310 ca        1 GBS     -0.102000
      6 C31        -2.7050    0.0580    2.6710 ca        1 GBS     -0.164500
      7 C32        -0.5700    0.5490    3.7520 ca        1 GBS     -0.164500
      8 C4         -1.9650    0.3470    3.8360 ca        1 GBS     -0.068400
      9 NE         -2.5970    0.4140    5.1180 nh        1 GBS     -0.656600
     10 CZ         -2.5580   -0.7780    5.8860 c2        1 GBS      0.703100
     11 NH1        -1.6550   -1.8690    5.3160 n4        1 GBS     -0.825600
     12 NH2        -3.0560   -1.0650    7.0440 n2        1 GBS     -0.816100
     13 OXT        -0.6230   -0.5740   -0.9180 o         1 GBS     -0.789300
     14 H21        -2.5910   -0.3340    0.5280 ha        1 GBS      0.183500
     15 H22         1.1640    0.5130    2.4310 ha        1 GBS      0.183500
     16 H31        -3.8010   -0.0350    2.7110 ha        1 GBS      0.128000
     17 H32         0.0030    0.8630    4.6380 ha        1 GBS      0.128000
     18 HE         -3.5040    0.8430    5.1020 hn        1 GBS      0.438800
     19 HH11       -0.7120   -1.4780    5.1860 hn        1 GBS      0.477467
     20 HH12       -2.0210   -2.1440    4.3950 hn        1 GBS      0.477467
     21 HH2        -3.6280   -0.3810    7.4900 hn        1 GBS      0.465400
     22 HH13       -1.6210   -2.6780    5.9430 hn        1 GBS      0.477467
@<TRIPOS>BOND
     1    1    2 1   
     2    1    3 1   
     3    1   13 1   
     4    3    4 ar  
     5    3    5 ar  
     6    4    6 ar  
     7    4   14 1   
     8    5    7 ar  
     9    5   15 1   
    10    6    8 ar  
    11    6   16 1   
    12    7    8 ar  
    13    7   17 1   
    14    8    9 1   
    15    9   10 1   
    16    9   18 1   
    17   10   11 1   
    18   10   12 2   
    19   11   19 1   
    20   11   20 1   
    21   11   22 1   
    22   12   21 1   
@<TRIPOS>SUBSTRUCTURE
     1 GBS         1 TEMP              0 ****  ****    0 ROOT
