@<TRIPOS>MOLECULE
GBS
   23    23     1     0     0
SMALL
bcc


@<TRIPOS>ATOM
      1 CD         -0.2040    0.3990   -0.0690 c         1 GBS      0.917200
      2 OD          0.8980    0.9690    0.0650 o         1 GBS     -0.736300
      3 C1         -0.8950    0.0010    1.2770 ca        1 GBS     -0.039600
      4 C21        -0.2760    0.3070    2.5010 ca        1 GBS     -0.093000
      5 C22        -2.1720   -0.5860    1.2640 ca        1 GBS     -0.093000
      6 C31        -0.9540    0.1420    3.6960 ca        1 GBS     -0.138000
      7 C32        -2.8780   -0.7640    2.4400 ca        1 GBS     -0.138000
      8 C4         -2.2800   -0.3530    3.6560 ca        1 GBS     -0.238400
      9 NE         -3.0520   -0.4190    4.8870 n4        1 GBS     -0.601400
     10 CZ         -3.8170    0.8730    5.1270 c2        1 GBS      0.598100
     11 NH1        -3.6030    1.9040    4.0550 n4        1 GBS     -0.799600
     12 NH2        -4.5910    1.1740    6.0960 n2        1 GBS     -0.641100
     13 OXT        -0.8720    0.1350   -1.0900 o         1 GBS     -0.736300
     14 H21         0.7640    0.6950    2.4650 ha        1 GBS      0.219000
     15 H22        -2.5880   -0.8840    0.2780 ha        1 GBS      0.219000
     16 H31        -0.4570    0.3750    4.6510 ha        1 GBS      0.145000
     17 H32        -3.8750   -1.2340    2.4210 ha        1 GBS      0.145000
     18 HE         -3.7320   -1.1930    4.8270 hn        1 GBS      0.486800
     19 HH11       -4.1430    2.7600    4.2640 hn        1 GBS      0.508800
     20 HH12       -2.5930    2.1280    3.9950 hn        1 GBS      0.508800
     21 HH2        -4.7900    0.5480    6.8520 hn        1 GBS      0.515400
     22 HE3        -2.4170   -0.5740    5.6850 hn        1 GBS      0.486800
     23 HH13       -3.9000    1.5130    3.1420 hn        1 GBS      0.508800
@<TRIPOS>BOND
     1    1    2 1   
     2    1    3 1   
     3    1   13 1   
     4    3    4 ar  
     5    3    5 ar  
     6    4    6 ar  
     7    4   14 1   
     8    5    7 ar  
     9    5   15 1   
    10    6    8 ar  
    11    6   16 1   
    12    7    8 ar  
    13    7   17 1   
    14    8    9 1   
    15    9   10 1   
    16    9   18 1   
    17    9   22 1   
    18   10   11 1   
    19   10   12 2   
    20   11   19 1   
    21   11   20 1   
    22   11   23 1   
    23   12   21 1   
@<TRIPOS>SUBSTRUCTURE
     1 GBS         1 TEMP              0 ****  ****    0 ROOT
