@<TRIPOS>MOLECULE
GBS
   21    17     1     0     0
SMALL
bcc


@<TRIPOS>ATOM
      1 CD          1.7130    0.5830   -3.3310 c1        1 GBS      0.357000
      2 OD          1.3210    1.4350   -4.1660 o         1 GBS     -0.561500
      3 C1          0.9260    0.3300   -2.1130 c1        1 GBS     -0.101000
      4 C21        -0.2560   -0.4370   -2.1850 c2        1 GBS     -0.098000
      5 C22         1.3150    0.8910   -0.9080 c1        1 GBS     -0.106000
      6 C31        -1.0330   -0.6290   -1.0380 c1        1 GBS     -0.188000
      7 C32         0.5440    0.6990    0.2280 c1        1 GBS     -0.152000
      8 C4         -0.6430   -0.0700    0.1600 c1        1 GBS     -0.040000
      9 NE         -1.5030   -0.1610    1.3060 n3        1 GBS     -0.274000
     10 CZ         -0.9530   -0.4960    2.5750 c2        1 GBS      0.181000
     11 NH1         0.2720    0.1340    3.0240 n3        1 GBS     -0.334000
     12 NH2        -1.5640   -1.4030    3.3510 n1        1 GBS     -0.394000
     13 OXT         2.7550   -0.1170   -3.5720 o         1 GBS     -0.561500
     14 H21        -0.5460   -0.8550   -3.0750 ha        1 GBS      0.156000
     15 H22         2.1790    1.4470   -0.8550 ha        1 GBS      0.157000
     16 H31        -1.8230   -1.2060   -1.0750 ha        1 GBS      0.107000
     17 H32         0.8270    1.1050    1.0970 ha        1 GBS      0.129000
     18 HE         -2.4140   -0.1530    1.1920 hn        1 GBS      0.188000
     19 HH11        0.7720    0.5960    2.4460 hn        1 GBS      0.203000
     20 HH12        0.4830    0.1290    3.8850 hn        1 GBS      0.203000
     21 HH2        -2.3720   -1.8230    3.0520 DU        1 GBS      0.131000
@<TRIPOS>BOND
     1    1    2 1   
     2    1   13 1   
     3    3    4 1   
     4    3    5 1   
     5    4    6 1   
     6    4   14 1   
     7    5   15 1   
     8    6   16 1   
     9    7    8 1   
    10    7   17 1   
    11    8    9 1   
    12    9   10 1   
    13    9   18 1   
    14   10   11 1   
    15   10   12 1   
    16   11   19 1   
    17   11   20 1   
@<TRIPOS>SUBSTRUCTURE
     1 GBS         1 TEMP              0 ****  ****    0 ROOT
