@<TRIPOS>MOLECULE
GBX
   71    71     1     0     0
SMALL
bcc


@<TRIPOS>ATOM
      1 O2          2.1420   -0.5440    0.5510 o         1 GBX     -0.359000
      2 C1          4.7000    2.9140   -1.3880 c2        1 GBX      0.349000
      3 C2          2.1920    0.1480   -0.4840 c2        1 GBX      0.303000
      4 C3          0.7800    2.9320    0.9490 c2        1 GBX      0.308000
      5 N1          3.8130    5.0660   -0.4690 n4        1 GBX     -0.061000
      6 C7          5.8410   -4.1770   -3.6740 c2        1 GBX      0.221000
      7 N2          4.5390   -0.5040   -0.9470 n4        1 GBX     -0.070000
      8 N3          1.3310    1.1930   -0.7390 n         1 GBX     -0.328000
      9 CA1         5.0520    4.2360   -0.6320 c3        1 GBX     -0.153000
     10 CB1         5.7090    3.9560    0.7210 c3        1 GBX     -0.159000
     11 CG1         7.0850    3.3440    0.5640 c3        1 GBX     -0.215000
     12 CD1         7.0690    1.8490    0.4400 c2        1 GBX      0.252000
     13 OE1         6.1810    1.1300    0.9130 o         1 GBX     -0.364000
     14 CA2         3.2160   -0.2000   -1.6030 c3        1 GBX      0.068000
     15 CB2         2.7030   -1.2690   -2.3950 c1        1 GBX     -1.026000
     16 SG2         2.0730   -2.2050   -3.1710 ss        1 GBX      1.410000
     17 CA3         0.4010    1.6370    0.2550 c3        1 GBX     -0.073000
     18 O31         0.1830    3.2550    2.1250 oh        1 GBX     -0.267000
     19 O32         1.5780    3.7890    0.5530 o         1 GBX     -0.392000
     20 O7          6.9910   -4.6120   -3.6800 o         1 GBX     -0.204000
     21 C8          5.1280   -3.7870   -2.4070 c2        1 GBX      0.190000
     22 O8          5.6120   -3.0380   -1.5580 o         1 GBX     -0.282000
     23 C9          3.7040   -4.3100   -2.3280 c3        1 GBX      0.026000
     24 O9          3.6720   -5.7190   -2.2880 oh        1 GBX     -0.283000
     25 C10         2.9070   -3.7440   -3.4980 c3        1 GBX     -0.579000
     26 C1'         5.6500   -4.0650   -6.1220 ca        1 GBX     -0.067000
     27 C2'         5.0140   -3.9880   -4.8810 ca        1 GBX     -0.156000
     28 C3'         3.6300   -3.7400   -4.7970 ca        1 GBX     -0.022000
     29 C4'         1.4900   -3.2190   -5.9690 c2        1 GBX     -0.363000
     30 C5'         0.9200   -2.4370   -5.0790 c1        1 GBX      0.072000
     31 C6'         0.7330   -4.6160   -9.2440 c2        1 GBX     -0.190000
     32 C7'         1.1230   -2.9180  -10.8750 c1        1 GBX      0.215000
     33 C8'         2.0780   -2.1170  -10.4170 c2        1 GBX     -0.465000
     34 C9'         6.9010   -4.2020   -8.8260 c1        1 GBX      0.267000
     35 C9A         5.6190   -3.9990   -8.5830 c2        1 GBX     -0.473000
     36 C11         4.9340   -3.8940   -7.3150 ca        1 GBX      0.033000
     37 C12         3.5540   -3.6250   -7.2500 ca        1 GBX      0.031000
     38 C13         2.9130   -3.5430   -5.9970 ca        1 GBX     -0.015000
     39 C16         2.0430   -4.6070   -8.9720 c2        1 GBX     -0.129000
     40 C17         2.7760   -3.4420   -8.4820 c2        1 GBX     -0.133000
     41 C18         2.7990   -2.2820   -9.1780 c2        1 GBX     -0.022000
     42 HN12        3.0740    4.6650   -1.0830 hn        1 GBX      0.258333
     43 HN2         7.9380    1.4160   -0.1030 h4        1 GBX      0.111000
     44 HN3         1.5900    1.8550   -1.4460 hn        1 GBX      0.275000
     45 HA1         7.6030    3.7690   -0.3370 hc        1 GBX      0.123000
     46 HB11        7.7070    3.6000    1.4660 hc        1 GBX      0.123000
     47 HB12        5.7630    4.8110   -1.2940 hx        1 GBX      0.144000
     48 HG11        5.0620    3.2590    1.3210 hc        1 GBX      0.106500
     49 HG12        5.8100    4.9170    1.2960 hc        1 GBX      0.106500
     50 HA2         4.9370    0.3710   -0.5610 hn        1 GBX      0.264333
     51 HB21        5.1890   -0.8750   -1.6440 hn        1 GBX      0.264333
     52 HB22        3.4180    0.7210   -2.2600 hx        1 GBX      0.221000
     53 HA31        0.2680    0.8290    1.0360 h1        1 GBX      0.144500
     54 HA32       -0.5960    1.8210   -0.2490 h1        1 GBX      0.144500
     55 H9          3.2360   -4.0080   -1.3430 h1        1 GBX      0.144000
     56 HO9         3.9900   -6.0510   -3.1390 ho        1 GBX      0.216000
     57 H10         2.0170   -4.4400   -3.6220 h1        1 GBX      0.172000
     58 H1'         6.7350   -4.2730   -6.1530 ha        1 GBX      0.171000
     59 H4'         0.8870   -3.6450   -6.8050 ha        1 GBX      0.222000
     60 H5'         2.6650   -5.5060   -9.1360 ha        1 GBX      0.147000
     61 H6'         0.2390   -5.5000   -9.6720 ha        1 GBX      0.137000
     62 H7'         0.0550   -3.7770   -9.0210 ha        1 GBX      0.137000
     63 H8'         2.3580   -1.2370  -11.0330 ha        1 GBX      0.197000
     64 H9'         3.3820   -1.4160   -8.8250 ha        1 GBX      0.141000
     65 H9A         4.9730   -3.8950   -9.4900 ha        1 GBX      0.214000
     66 O11         3.5280    2.7850   -1.8450 o         1 GBX     -0.552500
     67 O12         5.5960    2.0390   -1.5090 o         1 GBX     -0.552500
     68 H12         3.9850    6.0370   -0.7150 hn        1 GBX      0.258333
     69 H22         4.4270   -1.1940   -0.1990 hn        1 GBX      0.264333
     70 H32        -0.4270    2.5550    2.4040 ho        1 GBX      0.246000
     71 HN11        3.4640    5.0070    0.4940 hn        1 GBX      0.258333
@<TRIPOS>BOND
     1    1    3 1   
     2    2    9 1   
     3    2   66 1   
     4    2   67 1   
     5    3    8 1   
     6    3   14 1   
     7    4   17 1   
     8    4   18 1   
     9    4   19 1   
    10    5    9 1   
    11    5   42 1   
    12    5   68 1   
    13    5   71 1   
    14    6   20 1   
    15    6   21 1   
    16    6   27 1   
    17    7   14 1   
    18    7   50 1   
    19    7   51 1   
    20    7   69 1   
    21    8   17 1   
    22    8   44 1   
    23    9   10 1   
    24    9   47 1   
    25   10   11 1   
    26   10   48 1   
    27   10   49 1   
    28   11   12 1   
    29   11   45 1   
    30   11   46 1   
    31   12   13 1   
    32   12   43 1   
    33   14   15 1   
    34   14   52 1   
    35   15   16 1   
    36   16   25 1   
    37   17   53 1   
    38   17   54 1   
    39   18   70 1   
    40   21   22 1   
    41   21   23 1   
    42   23   24 1   
    43   23   25 1   
    44   23   55 1   
    45   24   56 1   
    46   25   28 1   
    47   25   57 1   
    48   26   27 1   
    49   26   36 1   
    50   26   58 1   
    51   27   28 1   
    52   28   38 1   
    53   29   30 1   
    54   29   38 1   
    55   29   59 1   
    56   31   39 1   
    57   31   61 1   
    58   31   62 1   
    59   32   33 1   
    60   33   41 1   
    61   33   63 1   
    62   34   35 1   
    63   35   36 1   
    64   35   65 1   
    65   36   37 1   
    66   37   38 1   
    67   37   40 1   
    68   39   40 1   
    69   39   60 1   
    70   40   41 1   
    71   41   64 1   
@<TRIPOS>SUBSTRUCTURE
     1 GBX         1 TEMP              0 ****  ****    0 ROOT
