@<TRIPOS>MOLECULE
GBX
   71    68     1     0     0
SMALL
bcc


@<TRIPOS>ATOM
      1 O2          1.3680    2.2510   -0.6070 o         1 GBX     -0.481000
      2 C1          6.2810    7.1760    0.4910 c1        1 GBX      0.437000
      3 C2          1.6790    1.2310   -1.2750 c2        1 GBX      0.261000
      4 C3          4.3740    0.5390    0.3060 c2        1 GBX      0.332000
      5 N1          3.4990    4.0630    0.0920 nz        1 GBX     -0.045000
      6 C7          5.8430   -1.9640   -5.0090 c2        1 GBX      0.229000
      7 N2          7.4000    0.3670   -0.6750 n+        1 GBX     -0.114000
      8 N3          2.0480    0.0380   -0.3790 ny        1 GBX     -0.078000
      9 CA1         2.7560    4.9460    0.9720 c2        1 GBX     -0.209000
     10 CB1         1.4260    4.9090    1.1000 c2        1 GBX     -0.127000
     11 CG1         5.6200    3.7700   -2.0760 c2        1 GBX     -0.537000
     12 CD1         5.2820    3.8920   -3.3390 c1        1 GBX      0.294000
     13 OE1         4.9410    4.0180   -4.4680 o         1 GBX     -0.109000
     14 CA2         1.7300    1.0400   -2.6490 c2        1 GBX     -0.256000
     15 CB2         2.1970   -0.0430   -3.3300 c1        1 GBX     -0.842000
     16 SG2         2.6040   -0.9630   -4.3000 ss        1 GBX      1.013000
     17 CA3         2.9110    0.4380    0.7560 c3        1 GBX     -0.182000
     18 O31         4.9290   -0.5090   -0.1180 o         1 GBX     -0.577000
     19 O32         4.9880    1.6540    0.3430 o         1 GBX     -0.577000
     20 O7          6.3310   -1.1780   -5.8100 o         1 GBX     -0.182000
     21 C8          5.7920   -1.6710   -3.5250 c2        1 GBX      0.190000
     22 O8          6.6690   -1.0180   -2.9530 o         1 GBX     -0.317000
     23 C9          4.5880   -2.2360   -2.7790 c3        1 GBX      0.015000
     24 O9          4.9910   -3.3920   -2.0640 oh        1 GBX     -0.301000
     25 C10         3.4040   -2.4860   -3.6930 c3        1 GBX     -0.514000
     26 C1'         5.5000   -3.7870   -6.6600 c1        1 GBX     -0.043000
     27 C2'         5.1750   -3.2790   -5.3270 c3        1 GBX     -0.174000
     28 C3'         3.7350   -3.2300   -4.9280 c2        1 GBX     -0.079000
     29 C4'         1.4010   -3.8650   -5.2910 c2        1 GBX     -0.431000
     30 C5'         0.3720   -4.6740   -5.4760 c1        1 GBX      0.149000
     31 C6'         0.0900   -6.4300   -6.9260 c2        1 GBX     -0.101000
     32 C7'         0.4440   -5.2050  -10.9750 c1        1 GBX      0.265000
     33 C8'         0.9250   -5.6100   -9.8140 c2        1 GBX     -0.482000
     34 C9'         6.1580   -4.9310   -9.1060 c1        1 GBX      0.288000
     35 C9A         4.9400   -5.0940   -8.6100 c2        1 GBX     -0.457000
     36 C11         4.4810   -4.4700   -7.3850 c2        1 GBX     -0.085000
     37 C12         3.1780   -4.5250   -6.9380 c2        1 GBX      0.074000
     38 C13         2.7950   -3.8680   -5.6940 c2        1 GBX     -0.003000
     39 C16         1.4230   -6.2420   -6.9040 c2        1 GBX     -0.168000
     40 C17         2.1320   -5.2370   -7.6850 c2        1 GBX     -0.103000
     41 C18         1.8960   -4.9460   -8.9840 c2        1 GBX     -0.017000
     42 HN12        4.0020    3.3400    0.6420 hn        1 GBX      0.270333
     43 HN2         8.1820    0.1800   -0.0570 hn        1 GBX      0.265250
     44 HN3         2.5340   -0.6660   -0.9460 hn        1 GBX      0.242500
     45 HA1         6.1630    4.5700   -1.5600 ha        1 GBX      0.179000
     46 HB11        5.4700    2.8270   -1.5330 ha        1 GBX      0.179000
     47 HB12        3.4170    5.6490    1.5150 hx        1 GBX      0.182000
     48 HG11        0.9150    5.6040    1.7860 ha        1 GBX      0.169500
     49 HG12        0.7720    4.2070    0.5530 ha        1 GBX      0.169500
     50 HA2         6.7830    1.0970   -0.2740 hn        1 GBX      0.265250
     51 HB21        7.7330    0.6440   -1.5970 hn        1 GBX      0.265250
     52 HB22        1.3250    1.8950   -3.2240 ha        1 GBX      0.156000
     53 HA31        2.5460    1.4210    1.1630 hx        1 GBX      0.138500
     54 HA32        2.8470   -0.3430    1.5650 hx        1 GBX      0.138500
     55 H9          4.3080   -1.5030   -1.9620 h1        1 GBX      0.146000
     56 HO9         4.8970   -4.1530   -2.6510 ho        1 GBX      0.209000
     57 H10         2.6450   -3.0590   -3.0940 h1        1 GBX      0.136000
     58 H1'         5.6830   -4.0740   -4.6710 hc        1 GBX      0.184000
     59 H4'         1.1020   -2.9800   -4.6730 ha        1 GBX      0.179000
     60 H5'         2.0680   -6.8720   -6.2640 ha        1 GBX      0.144000
     61 H6'        -0.3930   -7.1960   -6.3020 ha        1 GBX      0.137000
     62 H7'        -0.5880   -5.8440   -7.5650 ha        1 GBX      0.137000
     63 H8'         0.5410   -6.5880   -9.4370 ha        1 GBX      0.203000
     64 H9'         2.4840   -4.1460   -9.4740 ha        1 GBX      0.147000
     65 H9A         4.2330   -5.7610   -9.1440 ha        1 GBX      0.189000
     66 O11         5.5590    6.2360    0.3280 o         1 GBX     -0.218000
     67 O12         6.9970    8.1030    0.6540 o         1 GBX     -0.218000
     68 H12         2.8690    3.5740   -0.5650 hn        1 GBX      0.270333
     69 H22         6.8160   -0.4880   -0.7840 hn        1 GBX      0.265250
     70 H32         1.1810   -0.3630   -0.0200 hn        1 GBX      0.242500
     71 HN11        4.1920    4.6000   -0.4460 hn        1 GBX      0.270333
@<TRIPOS>BOND
     1    1    3 1   
     2    2   66 1   
     3    2   67 1   
     4    3    8 1   
     5    3   14 1   
     6    4   17 1   
     7    4   18 1   
     8    4   19 1   
     9    5    9 1   
    10    5   42 1   
    11    5   68 1   
    12    5   71 1   
    13    6   20 1   
    14    6   21 1   
    15    6   27 1   
    16    7   43 1   
    17    7   50 1   
    18    7   51 1   
    19    7   69 1   
    20    8   17 1   
    21    8   44 1   
    22    8   70 1   
    23    9   10 1   
    24    9   47 1   
    25   10   48 1   
    26   10   49 1   
    27   11   12 1   
    28   11   45 1   
    29   11   46 1   
    30   12   13 1   
    31   14   15 1   
    32   14   52 1   
    33   15   16 1   
    34   16   25 1   
    35   17   53 1   
    36   17   54 1   
    37   21   22 1   
    38   21   23 1   
    39   23   24 1   
    40   23   25 1   
    41   23   55 1   
    42   24   56 1   
    43   25   28 1   
    44   25   57 1   
    45   26   27 1   
    46   26   36 1   
    47   27   28 1   
    48   27   58 1   
    49   28   38 1   
    50   29   30 1   
    51   29   38 1   
    52   29   59 1   
    53   31   39 1   
    54   31   61 1   
    55   31   62 1   
    56   32   33 1   
    57   33   41 1   
    58   33   63 1   
    59   34   35 1   
    60   35   36 1   
    61   35   65 1   
    62   36   37 1   
    63   37   38 1   
    64   37   40 1   
    65   39   40 1   
    66   39   60 1   
    67   40   41 1   
    68   41   64 1   
@<TRIPOS>SUBSTRUCTURE
     1 GBX         1 TEMP              0 ****  ****    0 ROOT
