@<TRIPOS>MOLECULE
GBX
   71    68     1     0     0
SMALL
bcc


@<TRIPOS>ATOM
      1 O2         -0.1930   -0.2950   -0.0660 o         1 GBX     -0.236000
      2 C1          5.4740    7.3240   -4.1450 c1        1 GBX      0.449500
      3 C2          0.9380   -0.7400   -0.2740 c2        1 GBX      0.222000
      4 C3          5.1260    0.4520    1.3470 c1        1 GBX      0.449500
      5 N1          5.5820    3.1970    1.4110 n3        1 GBX     -0.379000
      6 C7          4.8800   -2.3520   -3.0780 c2        1 GBX      0.250000
      7 N2          2.7920   -0.0810   -1.8450 n4        1 GBX     -0.084000
      8 N3          1.7710   -1.2370    0.7690 n         1 GBX     -0.229000
      9 CA1         6.1930    4.0760    0.4360 c3        1 GBX     -0.082000
     10 CB1         5.3260    4.3060   -0.8000 c3        1 GBX     -0.154000
     11 CG1         5.2710    3.0690   -1.6730 c3        1 GBX     -0.237000
     12 CD1         4.2290    3.2200   -2.7360 c2        1 GBX      0.227000
     13 OE1         3.3430    2.3710   -2.9080 o         1 GBX     -0.398000
     14 CA2         1.4630   -0.7860   -1.7350 c3        1 GBX      0.077000
     15 CB2         1.4760   -2.1370   -2.1920 c1        1 GBX     -1.098000
     16 SG2         1.2690   -3.4300   -2.6020 ss        1 GBX      1.451000
     17 CA3         1.4720   -1.3270    2.0450 c1        1 GBX     -0.063000
     18 O31         4.2790    0.4580    0.4990 o         1 GBX     -0.225000
     19 O32         5.9550    0.4110    2.1900 o         1 GBX     -0.225000
     20 O7          5.1520   -1.1540   -3.0760 o         1 GBX     -0.237000
     21 C8          4.4240   -3.0330   -1.7990 c2        1 GBX      0.192000
     22 O8          4.4570   -2.4670   -0.7070 o         1 GBX     -0.253000
     23 C9          3.7700   -4.3940   -1.9970 c3        1 GBX      0.026000
     24 O9          4.8090   -5.3120   -2.2810 oh        1 GBX     -0.304000
     25 C10         2.7680   -4.2740   -3.1490 c3        1 GBX     -0.576000
     26 C1'         5.3990   -2.6780   -5.4830 c1        1 GBX     -0.036000
     27 C2'         4.7990   -3.2510   -4.2830 c3        1 GBX     -0.175000
     28 C3'         3.3970   -3.7630   -4.3890 c2        1 GBX     -0.072000
     29 C4'         1.3750   -4.1830   -5.7150 c2        1 GBX     -0.326000
     30 C5'         0.5850   -4.0220   -4.6780 c1        1 GBX      0.071000
     31 C6'         1.7090   -1.2940   -8.0940 c2        1 GBX     -0.186000
     32 C7'         2.7820   -5.6890  -11.1160 c1        1 GBX      0.284000
     33 C8'         2.5440   -4.7030  -10.2680 c2        1 GBX     -0.489000
     34 C9'         6.7270   -1.9280   -7.8460 c1        1 GBX      0.310000
     35 C9A         5.5310   -2.4990   -7.8990 c2        1 GBX     -0.464000
     36 C11         4.7630   -2.8980   -6.7410 c2        1 GBX     -0.058000
     37 C12         3.4770   -3.3900   -6.8240 c2        1 GBX      0.063000
     38 C13         2.7820   -3.7880   -5.6110 c2        1 GBX     -0.022000
     39 C16         1.6760   -2.5990   -8.3700 c2        1 GBX     -0.149000
     40 C17         2.7700   -3.5280   -8.1050 c2        1 GBX     -0.114000
     41 C18         3.1530   -4.4830   -8.9830 c2        1 GBX     -0.016000
     42 HN12        6.4370    5.0900    0.8720 h1        1 GBX      0.081500
     43 HN2         4.2860    4.1370   -3.3650 h4        1 GBX      0.134000
     44 HN3         2.9740    2.6270   -0.3100 ha        1 GBX      0.003500
     45 HA1         6.2650    2.9110   -2.1740 hc        1 GBX      0.117500
     46 HB11        5.0600    2.1590   -1.0470 hc        1 GBX      0.117500
     47 HB12        7.1680    3.6080    0.1160 h1        1 GBX      0.081500
     48 HG11        4.2880    4.6020   -0.4940 hc        1 GBX      0.096500
     49 HG12        5.7580    5.1590   -1.3890 hc        1 GBX      0.096500
     50 HA2         2.7470    0.8520   -1.4030 hn        1 GBX      0.263667
     51 HB21        3.0410    0.0590   -2.8320 hn        1 GBX      0.263667
     52 HB22        0.7390   -0.1670   -2.3620 hx        1 GBX      0.179000
     53 HA31        2.6850   -1.5460    0.4930 hn        1 GBX      0.258000
     54 HA32        0.4680   -0.9880    2.3740 ha        1 GBX      0.089000
     55 H9          3.2360   -4.6980   -1.0510 h1        1 GBX      0.116000
     56 HO9         4.4460   -6.2010   -2.1670 ho        1 GBX      0.234000
     57 H10         2.3770   -5.3160   -3.3620 h1        1 GBX      0.164000
     58 H1'         5.4850   -4.1560   -4.0750 hc        1 GBX      0.239000
     59 H4'         1.0270   -4.5610   -6.6990 ha        1 GBX      0.231000
     60 H5'         0.7910   -3.0500   -8.8550 ha        1 GBX      0.132000
     61 H6'         0.8670   -0.6300   -8.3310 ha        1 GBX      0.124000
     62 H7'         2.5770   -0.8030   -7.6330 ha        1 GBX      0.124000
     63 H8'         1.7930   -3.9490  -10.6040 ha        1 GBX      0.205000
     64 H9'         3.9900   -5.1580   -8.7240 ha        1 GBX      0.141000
     65 H9A         5.0770   -2.6840   -8.8960 ha        1 GBX      0.197000
     66 O11         5.7070    8.3470   -4.6970 o         1 GBX     -0.225000
     67 O12         5.2400    6.2940   -3.5880 o         1 GBX     -0.225000
     68 H12         6.2040    3.0540    2.1840 hn        1 GBX      0.155500
     69 H22         3.5510   -0.6090   -1.3960 hn        1 GBX      0.263667
     70 H32         2.6220    2.2970    0.1680 ha        1 GBX      0.003500
     71 HN11        4.7240    3.5880    1.7480 hn        1 GBX      0.155500
@<TRIPOS>BOND
     1    1    3 1   
     2    2   66 1   
     3    2   67 1   
     4    3    8 1   
     5    3   14 1   
     6    4   18 1   
     7    4   19 1   
     8    5    9 1   
     9    5   68 1   
    10    5   71 1   
    11    6   20 1   
    12    6   21 1   
    13    6   27 1   
    14    7   14 1   
    15    7   50 1   
    16    7   51 1   
    17    7   69 1   
    18    8   17 1   
    19    8   53 1   
    20    9   10 1   
    21    9   42 1   
    22    9   47 1   
    23   10   11 1   
    24   10   48 1   
    25   10   49 1   
    26   11   12 1   
    27   11   45 1   
    28   11   46 1   
    29   12   13 1   
    30   12   43 1   
    31   14   15 1   
    32   14   52 1   
    33   15   16 1   
    34   16   25 1   
    35   17   54 1   
    36   21   22 1   
    37   21   23 1   
    38   23   24 1   
    39   23   25 1   
    40   23   55 1   
    41   24   56 1   
    42   25   28 1   
    43   25   57 1   
    44   26   27 1   
    45   26   36 1   
    46   27   28 1   
    47   27   58 1   
    48   28   38 1   
    49   29   30 1   
    50   29   38 1   
    51   29   59 1   
    52   31   39 1   
    53   31   61 1   
    54   31   62 1   
    55   32   33 1   
    56   33   41 1   
    57   33   63 1   
    58   34   35 1   
    59   35   36 1   
    60   35   65 1   
    61   36   37 1   
    62   37   38 1   
    63   37   40 1   
    64   39   40 1   
    65   39   60 1   
    66   40   41 1   
    67   41   64 1   
    68   44   70 1   
@<TRIPOS>SUBSTRUCTURE
     1 GBX         1 TEMP              0 ****  ****    0 ROOT
