@<TRIPOS>MOLECULE
GBX
   68    72     1     0     0
SMALL
bcc


@<TRIPOS>ATOM
      1 O2         -0.6470    2.2320    0.7230 o         1 GBX     -0.622100
      2 C1          3.5730   -1.3360    7.4840 c         1 GBX      0.888600
      3 C2         -0.6590    1.3330    1.5890 c         1 GBX      0.624100
      4 C3         -3.7730    0.3800    1.3900 c         1 GBX      0.891600
      5 N1          5.1370    0.4780    6.6370 n3        1 GBX     -0.894800
      6 C7         -1.6970   -3.6060   -2.9470 c         1 GBX      0.504700
      7 N2          1.2030    0.4410    2.9590 n         1 GBX     -0.571900
      8 N3         -1.6830    1.2070    2.5230 n         1 GBX     -0.487900
      9 CA1         3.7670   -0.0190    6.6590 c3        1 GBX      0.018500
     10 CB1         3.1690   -0.2230    5.2640 c3        1 GBX     -0.064400
     11 CG1         3.0070    1.0930    4.5360 c3        1 GBX     -0.148400
     12 CD1         2.4860    0.9350    3.1200 c         1 GBX      0.665100
     13 OE1         3.1740    1.2710    2.1340 o         1 GBX     -0.633100
     14 CA2         0.5510    0.3610    1.6790 c3        1 GBX      0.030700
     15 CB2         0.0690   -1.0520    1.3160 c3        1 GBX     -0.047300
     16 SG2         0.2970   -1.4150   -0.4040 ss        1 GBX     -0.310200
     17 CA3        -3.0350    1.5290    2.1140 c3        1 GBX     -0.063000
     18 O31        -3.1450   -0.7090    1.1760 o         1 GBX     -0.854800
     19 O32        -4.9620    0.5670    1.0260 o         1 GBX     -0.854800
     20 O7         -1.9630   -4.5500   -3.7030 o         1 GBX     -0.523100
     21 C8         -1.7830   -3.7560   -1.4490 c         1 GBX      0.501100
     22 O8         -1.5040   -4.8120   -0.8850 o         1 GBX     -0.484100
     23 C9         -2.2170   -2.5030   -0.7120 c3        1 GBX      0.094100
     24 O9         -3.5740   -2.2800   -1.0400 oh        1 GBX     -0.626800
     25 C10        -1.3450   -1.3120   -1.1250 c3        1 GBX      0.003700
     26 C1'        -1.1240   -2.1440   -4.8320 ca        1 GBX     -0.063000
     27 C2'        -1.3030   -2.2750   -3.4500 ca        1 GBX     -0.162600
     28 C3'        -1.1400   -1.1710   -2.5920 ca        1 GBX      0.045700
     29 C4'        -0.5970    1.2590   -2.3390 ca        1 GBX     -0.075000
     30 C5'        -0.2780    2.4600   -2.8860 ca        1 GBX     -0.137000
     31 C6'         0.2180    3.8500   -4.8840 ca        1 GBX     -0.128000
     32 C7'         0.3780    3.9600   -6.2610 ca        1 GBX     -0.129000
     33 C8'         0.2150    2.8480   -7.0860 ca        1 GBX     -0.143000
     34 C9'        -0.2860    0.4350   -7.3630 ca        1 GBX     -0.138000
     35 C9A        -0.6050   -0.7640   -6.8190 ca        1 GBX     -0.099000
     36 C11        -0.7850   -0.9170   -5.3990 ca        1 GBX     -0.068000
     37 C12        -0.6210    0.2110   -4.5530 ca        1 GBX      0.009000
     38 C13        -0.7930    0.0830   -3.1490 ca        1 GBX     -0.034000
     39 C16        -0.1110    2.6170   -4.3030 ca        1 GBX     -0.007000
     40 C17        -0.2810    1.4790   -5.1340 ca        1 GBX     -0.029000
     41 C18        -0.1130    1.6030   -6.5390 ca        1 GBX     -0.022000
     42 HN11        5.5350    0.2910    7.5440 hn        1 GBX      0.331800
     43 HN12        5.6660   -0.0660    5.9790 hn        1 GBX      0.331800
     44 HN2         0.7080    0.1190    3.7560 hn        1 GBX      0.318500
     45 HN3        -1.6550    0.3420    3.0280 hn        1 GBX      0.283500
     46 HA1         3.1550    0.7700    7.1890 h1        1 GBX      0.040700
     47 HB11        3.8150   -0.9130    4.6630 hc        1 GBX      0.054700
     48 HB12        2.1750   -0.7260    5.4040 hc        1 GBX      0.054700
     49 HG11        2.3110    1.7620    5.1100 hc        1 GBX      0.068200
     50 HG12        3.9980    1.6160    4.4630 hc        1 GBX      0.068200
     51 HA2         1.2920    0.7040    0.8880 h1        1 GBX      0.124700
     52 HB21        0.6830   -1.8220    1.8510 h1        1 GBX      0.107700
     53 HB22       -1.0060   -1.2070    1.5970 h1        1 GBX      0.107700
     54 HA31       -3.6140    1.7970    3.0390 h1        1 GBX      0.060200
     55 HA32       -3.0150    2.4200    1.4300 h1        1 GBX      0.060200
     56 H9         -2.1130   -2.6580    0.4030 h1        1 GBX      0.100700
     57 HO9        -3.9280   -1.6580   -0.3700 ho        1 GBX      0.482000
     58 H10        -1.8770   -0.4060   -0.7050 h1        1 GBX      0.145700
     59 H1'        -1.2630   -3.0310   -5.4730 ha        1 GBX      0.146000
     60 H4'        -0.6920    1.1740   -1.2400 ha        1 GBX      0.183000
     61 H5'        -0.1330    3.3420   -2.2420 ha        1 GBX      0.150000
     62 H6'         0.3500    4.7310   -4.2380 ha        1 GBX      0.133000
     63 H7'         0.6360    4.9330   -6.7050 ha        1 GBX      0.118000
     64 H8'         0.3450    2.9460   -8.1730 ha        1 GBX      0.119000
     65 H9'        -0.1490    0.5510   -8.4490 ha        1 GBX      0.120000
     66 H9A        -0.7380   -1.6590   -7.4470 ha        1 GBX      0.125000
     67 O11         4.5740   -1.8030    8.1010 o         1 GBX     -0.843300
     68 O12         2.4180   -1.8420    7.5140 o         1 GBX     -0.843300
@<TRIPOS>BOND
     1    1    3 2   
     2    2    9 1   
     3    2   67 1   
     4    2   68 1   
     5    3    8 1   
     6    3   14 1   
     7    4   17 1   
     8    4   18 1   
     9    4   19 1   
    10    5    9 1   
    11    5   42 1   
    12    5   43 1   
    13    6   20 2   
    14    6   21 1   
    15    6   27 1   
    16    7   12 1   
    17    7   14 1   
    18    7   44 1   
    19    8   17 1   
    20    8   45 1   
    21    9   10 1   
    22    9   46 1   
    23   10   11 1   
    24   10   47 1   
    25   10   48 1   
    26   11   12 1   
    27   11   49 1   
    28   11   50 1   
    29   12   13 2   
    30   14   15 1   
    31   14   51 1   
    32   15   16 1   
    33   15   52 1   
    34   15   53 1   
    35   16   25 1   
    36   17   54 1   
    37   17   55 1   
    38   21   22 2   
    39   21   23 1   
    40   23   24 1   
    41   23   25 1   
    42   23   56 1   
    43   24   57 1   
    44   25   28 1   
    45   25   58 1   
    46   26   27 ar  
    47   26   36 ar  
    48   26   59 1   
    49   27   28 ar  
    50   28   38 ar  
    51   29   30 ar  
    52   29   38 ar  
    53   29   60 1   
    54   30   39 ar  
    55   30   61 1   
    56   31   32 ar  
    57   31   39 ar  
    58   31   62 1   
    59   32   33 ar  
    60   32   63 1   
    61   33   41 ar  
    62   33   64 1   
    63   34   35 ar  
    64   34   41 ar  
    65   34   65 1   
    66   35   36 ar  
    67   35   66 1   
    68   36   37 ar  
    69   37   38 ar  
    70   37   40 ar  
    71   39   40 ar  
    72   40   41 ar  
@<TRIPOS>SUBSTRUCTURE
     1 GBX         1 TEMP              0 ****  ****    0 ROOT
