@<TRIPOS>MOLECULE
GBX
   68    61     1     0     0
SMALL
bcc


@<TRIPOS>ATOM
      1 O2         -1.4000   -0.2540    2.1970 o         1 GBX     -0.440000
      2 C1          3.2130   -3.6650    7.3610 c1        1 GBX      0.311500
      3 C2         -0.3260    0.1890    2.5230 c1        1 GBX      0.263000
      4 C3         -1.5620    2.1710    5.2830 c1        1 GBX      0.311500
      5 N1          1.0240   -4.5190    7.7760 n3        1 GBX     -0.322000
      6 C7          2.8050    0.4440   -4.6590 c1        1 GBX      0.246000
      7 N2          1.5170   -1.3590    2.4810 n         1 GBX     -0.380000
      8 N3         -0.2550    1.2460    3.4840 n2        1 GBX     -0.316000
      9 CA1         1.8890   -4.1040    6.7570 c2        1 GBX     -0.124000
     10 O11         4.3140   -4.2070    6.9590 o         1 GBX     -0.576250
     11 O12         3.2240   -2.8620    8.3530 o         1 GBX     -0.576250
     12 CB1         1.2530   -2.9210    5.9900 c3        1 GBX     -0.137000
     13 CG1         1.4610   -3.1280    4.4140 c3        1 GBX     -0.190000
     14 CD1         0.8280   -1.9320    3.6480 c2        1 GBX      0.313000
     15 OE1        -0.2080   -1.4200    4.0590 o         1 GBX     -0.410000
     16 CA2         0.9460   -0.2750    1.7910 c3        1 GBX      0.031000
     17 CB2         0.5860   -0.7050    0.3760 c3        1 GBX     -0.264000
     18 SG2         1.0950    0.5760   -0.7900 ss        1 GBX      0.058000
     19 CA3        -1.4560    2.0090    3.8070 c2        1 GBX     -0.125000
     20 O31        -2.0360    1.2240    5.9930 o         1 GBX     -0.576250
     21 O32        -1.3090    3.3010    5.8170 o         1 GBX     -0.576250
     22 O7          2.6030   -0.6180   -5.1950 o         1 GBX     -0.277000
     23 C8          3.5400    0.3430   -3.3870 c1        1 GBX      0.216000
     24 O8          3.8470    1.4030   -2.9180 o         1 GBX     -0.231000
     25 C9          2.9200   -0.4630   -2.4250 c3        1 GBX     -0.003000
     26 O9          3.1540   -1.9020   -2.7090 oh        1 GBX     -0.323000
     27 C10         1.3670   -0.1170   -2.3080 c3        1 GBX     -0.228000
     28 C1'         1.1310    1.9090   -5.6820 c1        1 GBX     -0.097750
     29 C2'         1.6240    1.1950   -4.5860 c1        1 GBX     -0.141000
     30 C3'         0.7640    0.9090   -3.4660 c2        1 GBX      0.013000
     31 C4'        -1.4860    0.8140   -2.5100 c1        1 GBX     -0.141000
     32 C5'        -2.8600    1.0030   -2.6470 c1        1 GBX     -0.097750
     33 C6'        -4.7720    1.7810   -3.9690 c1        1 GBX     -0.097750
     34 C7'        -5.2790    2.4260   -5.1040 c1        1 GBX     -0.135500
     35 C8'        -4.3780    3.0400   -6.0500 c1        1 GBX     -0.135500
     36 C9'        -2.1140    3.3600   -6.8930 c1        1 GBX     -0.119000
     37 C9A        -0.7590    3.0470   -6.8240 c1        1 GBX     -0.097750
     38 C11        -0.2460    2.3610   -5.6920 c1        1 GBX     -0.035000
     39 C12        -1.1020    2.0520   -4.6080 c1        1 GBX      0.002000
     40 C13        -0.5910    1.3550   -3.4780 c2        1 GBX     -0.008000
     41 C16        -3.3670    1.7320   -3.7470 c1        1 GBX     -0.035000
     42 C17        -2.4660    2.2960   -4.7100 c1        1 GBX     -0.029000
     43 C18        -2.9790    2.9910   -5.8290 c1        1 GBX     -0.042000
     44 HN11        0.2670   -4.9030    7.4000 hn        1 GBX      0.127000
     45 HN12        1.4460   -5.1320    8.3050 hn        1 GBX      0.127000
     46 HN2         2.3450   -1.6740    2.2360 hn        1 GBX      0.236000
     47 HN3         0.5720    1.5240    3.8060 hn        1 GBX      0.240000
     48 HA1         2.0380   -4.8200    6.1620 h4        1 GBX      0.082000
     49 HB11        1.6710   -2.1050    6.2590 hc        1 GBX      0.071000
     50 HB12        0.2930   -2.8780    6.1920 hc        1 GBX      0.071000
     51 HG11        2.4350   -3.1750    4.2120 hc        1 GBX      0.142500
     52 HG12        1.0240   -3.9700    4.1270 hc        1 GBX      0.142500
     53 HA2         1.5720    0.4430    1.7550 h1        1 GBX      0.110000
     54 HB21       -0.3910   -0.8400    0.3120 h1        1 GBX      0.147000
     55 HB22        1.0390   -1.5330    0.1640 h1        1 GBX      0.147000
     56 HA31       -2.2390    1.5360    3.4760 h4        1 GBX      0.087000
     57 HA32       -1.4060    2.8780    3.3910 h4        1 GBX      0.087000
     58 H9          3.3470   -0.3740   -1.5750 h1        1 GBX      0.123000
     59 HO9         2.8600   -2.3620   -2.0780 ho        1 GBX      0.222000
     60 H10         0.8740   -0.9390   -2.3560 h1        1 GBX      0.177000
     61 H1'         1.7360    2.1320   -6.4480 ha        1 GBX      0.165250
     62 H4'        -1.1560    0.2910   -1.8100 ha        1 GBX      0.166000
     63 H5'        -3.4890    0.5920   -1.9900 ha        1 GBX      0.165250
     64 H6'        -5.2690    0.9360   -3.8910 ha        1 GBX      0.165250
     65 H7'        -5.9940    2.9870   -4.7740 ha        1 GBX      0.119500
     66 H8'        -5.1100    3.5170   -6.5080 ha        1 GBX      0.119500
     67 H9'        -2.4940    3.7270   -7.7350 ha        1 GBX      0.119000
     68 H9A        -0.1260    3.4180   -7.5130 ha        1 GBX      0.165250
@<TRIPOS>BOND
     1    1    3 1   
     2    2   10 1   
     3    2   11 1   
     4    3   16 1   
     5    4   20 1   
     6    4   21 1   
     7    5    9 1   
     8    5   44 1   
     9    5   45 1   
    10    6   22 1   
    11    6   29 1   
    12    7   14 1   
    13    7   16 1   
    14    7   46 1   
    15    8   19 1   
    16    8   47 1   
    17    9   12 1   
    18    9   48 1   
    19   12   13 1   
    20   12   49 1   
    21   12   50 1   
    22   13   14 1   
    23   13   51 1   
    24   13   52 1   
    25   14   15 1   
    26   16   17 1   
    27   16   53 1   
    28   17   18 1   
    29   17   54 1   
    30   17   55 1   
    31   18   27 1   
    32   19   56 1   
    33   19   57 1   
    34   23   24 1   
    35   23   25 1   
    36   25   26 1   
    37   25   27 1   
    38   25   58 1   
    39   26   59 1   
    40   27   30 1   
    41   27   60 1   
    42   28   38 1   
    43   28   61 1   
    44   29   30 1   
    45   30   40 1   
    46   31   40 1   
    47   31   62 1   
    48   32   41 1   
    49   32   63 1   
    50   33   41 1   
    51   33   64 1   
    52   34   35 1   
    53   34   65 1   
    54   35   66 1   
    55   36   43 1   
    56   36   67 1   
    57   37   38 1   
    58   37   68 1   
    59   39   40 1   
    60   39   42 1   
    61   42   43 1   
@<TRIPOS>SUBSTRUCTURE
     1 GBX         1 TEMP              0 ****  ****    0 ROOT
