@<TRIPOS>MOLECULE
GC1
   21    21     1     0     0
SMALL
bcc


@<TRIPOS>ATOM
      1 O4          1.4170   -2.4200   -3.0040 oh        1 GC1     -0.657800
      2 C1          3.7390    0.7760   -1.7800 c3        1 GC1      0.126400
      3 C2          4.4810   -0.3970   -2.4310 c3        1 GC1      0.108100
      4 C3          3.4740   -1.2780   -3.1820 c3        1 GC1      0.098100
      5 C4          2.3460   -1.6890   -2.2230 c3        1 GC1      0.115100
      6 C5          1.7160   -0.4450   -1.5830 c3        1 GC1     -0.024900
      7 C6          0.6200   -0.8260   -0.5410 c         1 GC1      0.932600
      8 O2          5.4490    0.1480   -3.3170 oh        1 GC1     -0.614800
      9 O3          4.1860   -2.4040   -3.6810 oh        1 GC1     -0.635800
     10 O5          2.7230    0.3090   -0.9080 os        1 GC1     -0.374600
     11 O6A         0.1730    0.0670    0.2170 o         1 GC1     -0.822300
     12 O6B         0.2080   -2.0240   -0.5790 o         1 GC1     -0.822300
     13 H2          5.0030   -1.0130   -1.6470 h1        1 GC1      0.049700
     14 H3          3.0470   -0.7160   -4.0590 h1        1 GC1      0.048700
     15 H4          2.7550   -2.3560   -1.4130 h1        1 GC1      0.056700
     16 H5          1.2390    0.1880   -2.3780 h1        1 GC1      0.033700
     17 HO4         0.6650   -2.6190   -2.4170 ho        1 GC1      0.463000
     18 HO2         5.7660   -0.5910   -3.8510 ho        1 GC1      0.409000
     19 HO3         3.5270   -3.0930   -3.8350 ho        1 GC1      0.423000
     20 H1          4.4330    1.3610   -1.1230 h1        1 GC1      0.044200
     21 H11         3.3110    1.4420   -2.5730 h1        1 GC1      0.044200
@<TRIPOS>BOND
     1    1    5 1   
     2    1   17 1   
     3    2    3 1   
     4    2   10 1   
     5    2   20 1   
     6    2   21 1   
     7    3    4 1   
     8    3    8 1   
     9    3   13 1   
    10    4    5 1   
    11    4    9 1   
    12    4   14 1   
    13    5    6 1   
    14    5   15 1   
    15    6    7 1   
    16    6   10 1   
    17    6   16 1   
    18    7   11 1   
    19    7   12 1   
    20    8   18 1   
    21    9   19 1   
@<TRIPOS>SUBSTRUCTURE
     1 GC1         1 TEMP              0 ****  ****    0 ROOT
