@<TRIPOS>MOLECULE
GC1
   21    21     1     0     0
SMALL
bcc


@<TRIPOS>ATOM
      1 O4         -1.9170   -1.0550   -0.3470 oh        1 GC1     -0.612800
      2 C1          0.1730    1.4230    0.9550 c3        1 GC1      0.080400
      3 C2         -0.3100    1.3870   -0.4580 c3        1 GC1      0.075100
      4 C3         -0.0150    0.1190   -1.1210 c3        1 GC1      0.110100
      5 C4         -0.4920   -1.0550   -0.3470 c3        1 GC1      0.086100
      6 C5          0.0060   -1.0550    1.1210 c3        1 GC1     -0.023900
      7 C6          1.4420   -1.4140    1.1700 c         1 GC1      0.909600
      8 O2         -1.7610    1.6050   -0.4860 oh        1 GC1     -0.612800
      9 O3          1.4400    0.0070   -1.3010 oh        1 GC1     -0.630800
     10 O5         -0.2780    0.2680    1.7460 os        1 GC1     -0.432600
     11 O6A         2.2230   -0.7840    1.9300 o         1 GC1     -0.827800
     12 O6B         1.8820   -2.3500    0.4510 o         1 GC1     -0.827800
     13 H1         -0.1550    2.2400    1.3770 h1        1 GC1      0.073700
     14 H2          0.1240    2.1070   -0.9550 h1        1 GC1      0.074700
     15 H3         -0.4430    0.1140   -1.9980 h1        1 GC1      0.066700
     16 H4         -0.1770   -1.8680   -0.7860 h1        1 GC1      0.094700
     17 H5         -0.3860   -1.7750    1.6510 h1        1 GC1      0.078700
     18 H11         1.1490    1.4410    0.9530 h1        1 GC1      0.073700
     19 HO4        -2.2120   -1.8510   -0.6040 ho        1 GC1      0.389000
     20 HO2        -1.9320    2.4220   -0.7890 ho        1 GC1      0.398000
     21 HO3         1.6380    0.0740   -2.1640 ho        1 GC1      0.458000
@<TRIPOS>BOND
     1    1    5 1   
     2    1   19 1   
     3    2    3 1   
     4    2   10 1   
     5    2   13 1   
     6    2   18 1   
     7    3    4 1   
     8    3    8 1   
     9    3   14 1   
    10    4    5 1   
    11    4    9 1   
    12    4   15 1   
    13    5    6 1   
    14    5   16 1   
    15    6    7 1   
    16    6   10 1   
    17    6   17 1   
    18    7   11 1   
    19    7   12 1   
    20    8   20 1   
    21    9   21 1   
@<TRIPOS>SUBSTRUCTURE
     1 GC1         1 TEMP              0 ****  ****    0 ROOT
