@<TRIPOS>MOLECULE
GC2
   34    34     1     0     0
SMALL
bcc


@<TRIPOS>ATOM
      1 O1         -1.0660   -0.0480    3.6070 o         1 GC2     -0.375000
      2 C8          0.1490   -0.0480    3.6070 c1        1 GC2      0.296000
      3 C10         0.9050   -0.0480    4.9170 c2        1 GC2     -0.242000
      4 N2          0.8580   -0.0390    2.3780 n3        1 GC2     -0.360000
      5 C2          0.1380   -0.0290    1.1310 c3        1 GC2     -0.001000
      6 C3          0.6180   -1.1870    0.2790 c3        1 GC2      0.023000
      7 O4          0.2230   -2.4120    0.8990 oh        1 GC2     -0.340000
      8 C4          0.0520   -1.1420   -1.1140 c3        1 GC2     -0.011000
      9 O2          0.6930   -2.1680   -1.9120 oh        1 GC2     -0.344000
     10 C1          0.3470    1.3010    0.4570 c3        1 GC2     -0.074000
     11 N1         -0.2100    1.3350   -0.9070 n3        1 GC2     -0.253000
     12 C5          0.2620    0.1680   -1.7630 c3        1 GC2     -0.044000
     13 C9         -0.9320    2.0810   -1.7180 c3        1 GC2     -0.073000
     14 C7         -1.5100    1.1050   -2.8320 c3        1 GC2     -0.204000
     15 C6         -0.5730    0.2480   -3.0800 c3        1 GC2      0.022000
     16 O3         -1.1610   -1.0770   -3.3960 oh        1 GC2     -0.344000
     17 H101        1.6010    0.6360    4.8910 ha        1 GC2      0.105667
     18 H102        1.3140   -0.9230    5.0570 ha        1 GC2      0.105667
     19 H103        0.2880    0.1430    5.6490 ha        1 GC2      0.105667
     20 H2          1.7700   -0.0110    2.3790 hn        1 GC2      0.231000
     21 HA         -0.8140   -0.1450    1.3140 h1        1 GC2      0.106000
     22 H3          1.5920   -1.1580    0.2260 h1        1 GC2      0.096000
     23 H11C        1.3050    1.4850    0.4120 h1        1 GC2      0.112000
     24 H12C       -0.0830    1.9960    0.9910 h1        1 GC2      0.112000
     25 H4          0.9180   -2.9640    0.9320 ho        1 GC2      0.225000
     26 HB         -0.9060   -1.3250   -1.0720 h1        1 GC2      0.103000
     27 HC          0.2880   -2.9460   -1.7750 ho        1 GC2      0.229000
     28 H5          1.2090    0.2800   -1.9720 h1        1 GC2      0.121000
     29 H91C       -1.6640    2.4990   -1.2250 h1        1 GC2      0.089500
     30 H92C       -0.3720    2.7670   -2.1300 h1        1 GC2      0.089500
     31 H6         -0.0150    0.5580   -3.8180 h1        1 GC2      0.090000
     32 H71C       -2.3040    0.6470   -2.4970 hc        1 GC2      0.096000
     33 H72C       -1.7270    1.6080   -3.6390 hc        1 GC2      0.096000
     34 HD         -1.1940   -1.1840   -4.2760 ho        1 GC2      0.213000
@<TRIPOS>BOND
     1    1    2 1   
     2    2    4 1   
     3    3   17 1   
     4    3   18 1   
     5    3   19 1   
     6    4    5 1   
     7    4   20 1   
     8    5    6 1   
     9    5   10 1   
    10    5   21 1   
    11    6    7 1   
    12    6    8 1   
    13    6   22 1   
    14    7   25 1   
    15    8    9 1   
    16    8   12 1   
    17    8   26 1   
    18    9   27 1   
    19   10   11 1   
    20   10   23 1   
    21   10   24 1   
    22   11   12 1   
    23   11   13 1   
    24   12   15 1   
    25   12   28 1   
    26   13   14 1   
    27   13   29 1   
    28   13   30 1   
    29   14   15 1   
    30   14   32 1   
    31   14   33 1   
    32   15   16 1   
    33   15   31 1   
    34   16   34 1   
@<TRIPOS>SUBSTRUCTURE
     1 GC2         1 TEMP              0 ****  ****    0 ROOT
