@<TRIPOS>MOLECULE
GC2
   35    36     1     0     0
SMALL
bcc


@<TRIPOS>ATOM
      1 O1          0.8480    1.5480    0.4400 o         1 GC2     -0.406100
      2 C8          1.3320    0.4760    0.1180 c         1 GC2      0.554100
      3 C10         1.1470   -0.8580    0.7540 c3        1 GC2     -0.187100
      4 N2          2.2610    0.5120   -1.0790 n4        1 GC2     -0.676800
      5 C2          1.5160    0.3000   -2.3660 c3        1 GC2      0.070500
      6 C3          2.4630   -0.2100   -3.4740 c3        1 GC2      0.127100
      7 O4          3.1120   -1.3620   -2.9660 oh        1 GC2     -0.640800
      8 C4          1.6150   -0.5350   -4.7160 c3        1 GC2      0.112100
      9 O2          2.5590   -0.9330   -5.6920 oh        1 GC2     -0.604800
     10 C1          0.8500    1.6080   -2.8900 c3        1 GC2      0.184800
     11 N1          0.1590    1.4690   -4.1330 n3        1 GC2     -0.729600
     12 C5          0.8230    0.7060   -5.1910 c3        1 GC2      0.147500
     13 C9         -1.2570    1.1040   -4.0760 c3        1 GC2      0.169800
     14 C7         -1.6220    0.4290   -5.4040 c3        1 GC2     -0.124400
     15 C6         -0.3070    0.2920   -6.1860 c3        1 GC2      0.141100
     16 O3         -0.0710   -1.0420   -6.5980 oh        1 GC2     -0.622800
     17 H101        2.0700   -1.1400    1.3240 hc        1 GC2      0.116367
     18 H102        0.2880   -0.7950    1.4740 hc        1 GC2      0.116367
     19 H103        0.9300   -1.6530   -0.0040 hc        1 GC2      0.116367
     20 H2          2.9660   -0.2360   -0.9950 hn        1 GC2      0.468300
     21 HA          0.7330   -0.4890   -2.1630 hx        1 GC2      0.109700
     22 H3          3.2370    0.5670   -3.7340 h1        1 GC2      0.080700
     23 H11C        1.6670    2.3720   -3.0500 h1        1 GC2      0.078700
     24 H12C        0.1400    2.0000   -2.1070 h1        1 GC2      0.078700
     25 H4          3.4930   -1.8360   -3.7230 ho        1 GC2      0.470000
     26 HB          0.9140   -1.3860   -4.4870 h1        1 GC2      0.073700
     27 HC          2.0610   -1.2620   -6.4570 ho        1 GC2      0.453000
     28 H5          1.5450    1.4010   -5.7100 h1        1 GC2      0.098700
     29 H91C       -1.8420    2.0530   -3.9290 h1        1 GC2      0.051200
     30 H92C       -1.4860    0.4160   -3.2150 h1        1 GC2      0.051200
     31 H6         -0.2910    0.9770   -7.0760 h1        1 GC2      0.072700
     32 H71C       -2.3550    1.0530   -5.9720 hc        1 GC2      0.075200
     33 H72C       -2.0790   -0.5750   -5.2260 hc        1 GC2      0.075200
     34 HD         -0.7010   -1.2350   -7.3050 ho        1 GC2      0.434000
     35 H22         2.7410    1.4190   -1.1190 hn        1 GC2      0.468300
@<TRIPOS>BOND
     1    1    2 2   
     2    2    3 1   
     3    2    4 1   
     4    3   17 1   
     5    3   18 1   
     6    3   19 1   
     7    4    5 1   
     8    4   20 1   
     9    4   35 1   
    10    5    6 1   
    11    5   10 1   
    12    5   21 1   
    13    6    7 1   
    14    6    8 1   
    15    6   22 1   
    16    7   25 1   
    17    8    9 1   
    18    8   12 1   
    19    8   26 1   
    20    9   27 1   
    21   10   11 1   
    22   10   23 1   
    23   10   24 1   
    24   11   12 1   
    25   11   13 1   
    26   12   15 1   
    27   12   28 1   
    28   13   14 1   
    29   13   29 1   
    30   13   30 1   
    31   14   15 1   
    32   14   32 1   
    33   14   33 1   
    34   15   16 1   
    35   15   31 1   
    36   16   34 1   
@<TRIPOS>SUBSTRUCTURE
     1 GC2         1 TEMP              0 ****  ****    0 ROOT
