@<TRIPOS>MOLECULE
GC2
   34    35     1     0     0
SMALL
bcc


@<TRIPOS>ATOM
      1 O1          3.1710   -1.5090   -0.6800 o         1 GC2     -0.614100
      2 C8          3.4920   -0.4170   -0.1670 c         1 GC2      0.652100
      3 C10         4.9350    0.0090   -0.0560 c3        1 GC2     -0.174100
      4 N2          2.5380    0.4280    0.3750 n         1 GC2     -0.550900
      5 C2          1.1300    0.2060    0.1290 c3        1 GC2      0.075700
      6 C3          0.2710    1.4530    0.4320 c3        1 GC2      0.134100
      7 O4          0.7890    2.5440   -0.3130 oh        1 GC2     -0.612800
      8 C4         -1.1810    1.1620    0.0180 c3        1 GC2      0.100100
      9 O2         -1.9130    2.3170    0.4030 oh        1 GC2     -0.616800
     10 C1          0.5600   -0.9490    1.0020 c3        1 GC2      0.162800
     11 N1         -0.8390   -1.2410    0.8130 n3        1 GC2     -0.727600
     12 C5         -1.7410   -0.0890    0.7290 c3        1 GC2      0.153500
     13 C9         -1.1520   -2.1700   -0.2740 c3        1 GC2      0.163800
     14 C7         -2.5660   -1.8550   -0.7810 c3        1 GC2     -0.125400
     15 C6         -3.0190   -0.6150    0.0040 c3        1 GC2      0.133100
     16 O3         -3.5270    0.4040   -0.8400 oh        1 GC2     -0.616800
     17 H101        5.5800   -0.7890   -0.4970 hc        1 GC2      0.066367
     18 H102        5.1030    0.9630   -0.6130 hc        1 GC2      0.066367
     19 H103        5.2190    0.1560    1.0140 hc        1 GC2      0.066367
     20 H2          2.7970    1.3650    0.5820 hn        1 GC2      0.317500
     21 HA          0.9950   -0.0700   -0.9610 h1        1 GC2      0.066700
     22 H3          0.3070    1.7060    1.5290 h1        1 GC2      0.056700
     23 H11C        1.1570   -1.8820    0.7920 h1        1 GC2      0.072700
     24 H12C        0.6890   -0.6780    2.0890 h1        1 GC2      0.072700
     25 H4          0.1400    3.2570   -0.2420 ho        1 GC2      0.426000
     26 HB         -1.2350    1.0320   -1.0990 h1        1 GC2      0.063700
     27 HC         -2.8040    2.2200    0.0450 ho        1 GC2      0.430000
     28 H5         -2.0060    0.2060    1.7840 h1        1 GC2      0.081700
     29 H91C       -0.4140   -2.1070   -1.1220 h1        1 GC2      0.050200
     30 H92C       -1.1000   -3.2090    0.1510 h1        1 GC2      0.050200
     31 H6         -3.7990   -0.8860    0.7660 h1        1 GC2      0.050700
     32 H71C       -2.5540   -1.6410   -1.8780 hc        1 GC2      0.056700
     33 H72C       -3.2540   -2.7140   -0.5980 hc        1 GC2      0.056700
     34 HD         -4.2920    0.0320   -1.2950 ho        1 GC2      0.414000
@<TRIPOS>BOND
     1    1    2 2   
     2    2    3 1   
     3    2    4 1   
     4    3   17 1   
     5    3   18 1   
     6    3   19 1   
     7    4    5 1   
     8    4   20 1   
     9    5    6 1   
    10    5   10 1   
    11    5   21 1   
    12    6    7 1   
    13    6    8 1   
    14    6   22 1   
    15    7   25 1   
    16    8    9 1   
    17    8   12 1   
    18    8   26 1   
    19    9   27 1   
    20   10   11 1   
    21   10   23 1   
    22   10   24 1   
    23   11   12 1   
    24   11   13 1   
    25   12   15 1   
    26   12   28 1   
    27   13   14 1   
    28   13   29 1   
    29   13   30 1   
    30   14   15 1   
    31   14   32 1   
    32   14   33 1   
    33   15   16 1   
    34   15   31 1   
    35   16   34 1   
@<TRIPOS>SUBSTRUCTURE
     1 GC2         1 TEMP              0 ****  ****    0 ROOT
