@<TRIPOS>MOLECULE
GC2
   35    36     1     0     0
SMALL
bcc


@<TRIPOS>ATOM
      1 O1          0.9040    1.6750    0.3730 o         1 GC2     -0.406100
      2 C8          1.3770    0.5860    0.0890 c         1 GC2      0.554100
      3 C10         1.1980   -0.7170    0.7870 c3        1 GC2     -0.187100
      4 N2          2.2830    0.5640   -1.1260 n4        1 GC2     -0.676800
      5 C2          1.5110    0.3010   -2.3880 c3        1 GC2      0.070500
      6 C3          2.4330   -0.2640   -3.4900 c3        1 GC2      0.127100
      7 O4          3.0850   -1.3970   -2.9450 oh        1 GC2     -0.640800
      8 C4          1.5580   -0.6370   -4.7000 c3        1 GC2      0.112100
      9 O2          2.4790   -1.0850   -5.6760 oh        1 GC2     -0.604800
     10 C1          0.8420    1.5890   -2.9560 c3        1 GC2      0.184800
     11 N1          0.1250    1.4000   -4.1780 n3        1 GC2     -0.729600
     12 C5          0.7640    0.5870   -5.2140 c3        1 GC2      0.147500
     13 C9         -1.2910    1.0470   -4.0770 c3        1 GC2      0.169800
     14 C7         -1.6860    0.3170   -5.3670 c3        1 GC2     -0.124400
     15 C6         -0.3880    0.1370   -6.1670 c3        1 GC2      0.141100
     16 O3         -0.1690   -1.2160   -6.5240 oh        1 GC2     -0.622800
     17 H101        2.1310   -0.9770    1.3530 hc        1 GC2      0.116367
     18 H102        0.9650   -1.5440    0.0690 hc        1 GC2      0.116367
     19 H103        0.3540   -0.6180    1.5200 hc        1 GC2      0.116367
     20 H2          2.7650    1.4660   -1.2160 hn        1 GC2      0.468300
     21 HA          0.7280   -0.4730   -2.1340 hx        1 GC2      0.109700
     22 H3          3.2050    0.4960   -3.8000 h1        1 GC2      0.080700
     23 H11C        0.1500    2.0200   -2.1780 h1        1 GC2      0.078700
     24 H12C        1.6600    2.3400   -3.1660 h1        1 GC2      0.078700
     25 H4          3.4480   -1.9060   -3.6880 ho        1 GC2      0.470000
     26 HB          0.8570   -1.4730   -4.4200 h1        1 GC2      0.073700
     27 HC          1.9650   -1.4430   -6.4150 ho        1 GC2      0.453000
     28 H5          1.4790    1.2530   -5.7770 h1        1 GC2      0.098700
     29 H91C       -1.5070    0.4000   -3.1820 h1        1 GC2      0.051200
     30 H92C       -1.8680    2.0060   -3.9610 h1        1 GC2      0.051200
     31 H6         -0.3860    0.7820   -7.0870 h1        1 GC2      0.072700
     32 H71C       -2.4270    0.9200   -5.9470 hc        1 GC2      0.075200
     33 H72C       -2.1460   -0.6750   -5.1350 hc        1 GC2      0.075200
     34 HD         -0.8130   -1.4360   -7.2090 ho        1 GC2      0.434000
     35 H22         2.9840   -0.1830   -1.0230 hn        1 GC2      0.468300
@<TRIPOS>BOND
     1    1    2 2   
     2    2    3 1   
     3    2    4 1   
     4    3   17 1   
     5    3   18 1   
     6    3   19 1   
     7    4    5 1   
     8    4   20 1   
     9    4   35 1   
    10    5    6 1   
    11    5   10 1   
    12    5   21 1   
    13    6    7 1   
    14    6    8 1   
    15    6   22 1   
    16    7   25 1   
    17    8    9 1   
    18    8   12 1   
    19    8   26 1   
    20    9   27 1   
    21   10   11 1   
    22   10   23 1   
    23   10   24 1   
    24   11   12 1   
    25   11   13 1   
    26   12   15 1   
    27   12   28 1   
    28   13   14 1   
    29   13   29 1   
    30   13   30 1   
    31   14   15 1   
    32   14   32 1   
    33   14   33 1   
    34   15   16 1   
    35   15   31 1   
    36   16   34 1   
@<TRIPOS>SUBSTRUCTURE
     1 GC2         1 TEMP              0 ****  ****    0 ROOT
