@<TRIPOS>MOLECULE
GC2
   35    36     1     0     0
SMALL
bcc


@<TRIPOS>ATOM
      1 O1          0.8370    1.5240    0.4490 o         1 GC2     -0.406100
      2 C8          1.3380    0.4620    0.1180 c         1 GC2      0.554100
      3 C10         1.1760   -0.8790    0.7460 c3        1 GC2     -0.187100
      4 N2          2.2630    0.5210   -1.0800 ny        1 GC2     -0.676800
      5 C2          1.5180    0.3050   -2.3670 c3        1 GC2      0.070500
      6 C3          2.4700   -0.1820   -3.4810 c3        1 GC2      0.127100
      7 O4          3.1390   -1.3270   -2.9820 oh        1 GC2     -0.640800
      8 C4          1.6240   -0.5130   -4.7220 c3        1 GC2      0.112100
      9 O2          2.5710   -0.8900   -5.7040 oh        1 GC2     -0.604800
     10 C1          0.8290    1.6050   -2.8810 c3        1 GC2      0.184800
     11 N1          0.1360    1.4630   -4.1230 n3        1 GC2     -0.729600
     12 C5          0.8100    0.7180   -5.1870 c3        1 GC2      0.147500
     13 C9         -1.2730    1.0750   -4.0640 c3        1 GC2      0.169800
     14 C7         -1.6310    0.4030   -5.3960 c3        1 GC2     -0.124400
     15 C6         -0.3150    0.2920   -6.1820 c3        1 GC2      0.141100
     16 O3         -0.0600   -1.0360   -6.6030 oh        1 GC2     -0.622800
     17 H101        2.1060   -1.1490    1.3130 hc        1 GC2      0.116367
     18 H102        0.9710   -1.6720   -0.0160 hc        1 GC2      0.116367
     19 H103        0.3190   -0.8350    1.4690 hc        1 GC2      0.116367
     20 H2          2.9800   -0.2160   -1.0030 hn        1 GC2      0.468300
     21 HA          0.7490   -0.4970   -2.1670 hx        1 GC2      0.109700
     22 H3          3.2300    0.6090   -3.7380 h1        1 GC2      0.080700
     23 H11C        0.1150    1.9810   -2.0940 h1        1 GC2      0.078700
     24 H12C        1.6330    2.3840   -3.0380 h1        1 GC2      0.078700
     25 H4          3.5260   -1.7900   -3.7430 ho        1 GC2      0.470000
     26 HB          0.9370   -1.3770   -4.4970 h1        1 GC2      0.073700
     27 HC          2.0770   -1.2210   -6.4690 ho        1 GC2      0.453000
     28 H5          1.5190    1.4270   -5.7040 h1        1 GC2      0.098700
     29 H91C       -1.8730    2.0130   -3.9100 h1        1 GC2      0.051200
     30 H92C       -1.4880    0.3780   -3.2070 h1        1 GC2      0.051200
     31 H6         -0.3130    0.9820   -7.0680 h1        1 GC2      0.072700
     32 H71C       -2.0710   -0.6100   -5.2230 hc        1 GC2      0.075200
     33 H72C       -2.3750    1.0180   -5.9580 hc        1 GC2      0.075200
     34 HD         -0.6880   -1.2350   -7.3090 ho        1 GC2      0.434000
     35 H22         2.7270    1.4370   -1.1160 hn        1 GC2      0.468300
@<TRIPOS>BOND
     1    1    2 2   
     2    2    3 1   
     3    2    4 1   
     4    3   17 1   
     5    3   18 1   
     6    3   19 1   
     7    4    5 1   
     8    4   20 1   
     9    4   35 1   
    10    5    6 1   
    11    5   10 1   
    12    5   21 1   
    13    6    7 1   
    14    6    8 1   
    15    6   22 1   
    16    7   25 1   
    17    8    9 1   
    18    8   12 1   
    19    8   26 1   
    20    9   27 1   
    21   10   11 1   
    22   10   23 1   
    23   10   24 1   
    24   11   12 1   
    25   11   13 1   
    26   12   15 1   
    27   12   28 1   
    28   13   14 1   
    29   13   29 1   
    30   13   30 1   
    31   14   15 1   
    32   14   32 1   
    33   14   33 1   
    34   15   16 1   
    35   15   31 1   
    36   16   34 1   
@<TRIPOS>SUBSTRUCTURE
     1 GC2         1 TEMP              0 ****  ****    0 ROOT
