@<TRIPOS>MOLECULE
GC3
   28    29     1     0     0
SMALL
bcc


@<TRIPOS>ATOM
      1 C1          0.2400    0.4230    1.3810 c3        1 GC3      0.298900
      2 C2          0.7730   -0.9390    0.8090 c3        1 GC3      0.071500
      3 C3         -0.2770   -1.8690    0.1760 c3        1 GC3      0.160100
      4 C4         -1.6470   -1.2100   -0.0780 c3        1 GC3      0.080100
      5 C5         -1.5160    0.3070   -0.2240 c3        1 GC3      0.065100
      6 C6         -2.8630    0.9940   -0.4650 c3        1 GC3      0.138400
      7 C7          1.9680    0.7440   -0.0960 c2        1 GC3      0.542600
      8 C8          2.9140    1.6420   -0.8410 c3        1 GC3      0.121100
      9 N2          1.8350   -0.5530   -0.1310 n2        1 GC3     -0.631900
     10 O1          1.0990    1.4200    0.7750 os        1 GC3     -0.465400
     11 O3         -0.4410   -2.9360    1.1020 oh        1 GC3     -0.600800
     12 O4         -2.1370   -1.8140   -1.2650 oh        1 GC3     -0.595800
     13 O5         -1.0480    0.8310    1.0250 os        1 GC3     -0.409600
     14 O6         -2.7070    2.3850   -0.6240 oh        1 GC3     -0.591800
     15 O10         4.1880    1.0710   -1.0050 oh        1 GC3     -0.578800
     16 H1          0.3130    0.5320    2.4930 h2        1 GC3      0.122700
     17 H2          1.2560   -1.5110    1.6560 h1        1 GC3      0.114700
     18 H3          0.1060   -2.2800   -0.8040 h1        1 GC3      0.087700
     19 H4         -2.3380   -1.4400    0.7830 h1        1 GC3      0.064700
     20 HA         -0.9570   -3.6140    0.6500 ho        1 GC3      0.416000
     21 H5         -0.7930    0.5720   -1.0420 h1        1 GC3      0.076700
     22 HB         -3.0360   -1.4910   -1.3980 ho        1 GC3      0.409000
     23 H61C       -3.3030    0.6380   -1.4350 h1        1 GC3      0.052700
     24 H62C       -3.5620    0.7730    0.3850 h1        1 GC3      0.052700
     25 H6         -2.2460    2.7130    0.1610 ho        1 GC3      0.420000
     26 H81C        2.4480    1.8910   -1.8340 h1        1 GC3      0.079700
     27 H82C        3.0860    2.5820   -0.2460 h1        1 GC3      0.079700
     28 H10         4.0880    0.2470   -1.5000 ho        1 GC3      0.419000
@<TRIPOS>BOND
     1    1    2 1   
     2    1   10 1   
     3    1   13 1   
     4    1   16 1   
     5    2    3 1   
     6    2    9 1   
     7    2   17 1   
     8    3    4 1   
     9    3   11 1   
    10    3   18 1   
    11    4    5 1   
    12    4   12 1   
    13    4   19 1   
    14    5    6 1   
    15    5   13 1   
    16    5   21 1   
    17    6   14 1   
    18    6   23 1   
    19    6   24 1   
    20    7    8 1   
    21    7    9 2   
    22    7   10 1   
    23    8   15 1   
    24    8   26 1   
    25    8   27 1   
    26   11   20 1   
    27   12   22 1   
    28   14   25 1   
    29   15   28 1   
@<TRIPOS>SUBSTRUCTURE
     1 GC3         1 TEMP              0 ****  ****    0 ROOT
