@<TRIPOS>MOLECULE
GC3
   28    29     1     0     0
SMALL
bcc


@<TRIPOS>ATOM
      1 C1          0.2620    0.2420   -0.0710 c3        1 GC3      0.302900
      2 C2          1.7730   -0.1430    0.1180 c3        1 GC3      0.040500
      3 C3          2.3860    0.1600    1.5000 c3        1 GC3      0.114100
      4 C4          1.4500    0.9780    2.4040 c3        1 GC3      0.121100
      5 C5          0.0360    0.3940    2.3110 c3        1 GC3      0.101100
      6 C6         -0.9220    1.0540    3.3060 c3        1 GC3      0.143400
      7 C7          0.6260   -1.9840   -0.4950 c2        1 GC3      0.552600
      8 C8          0.1330   -3.3490   -0.8830 c3        1 GC3      0.119100
      9 N2          1.8310   -1.5740   -0.2110 n2        1 GC3     -0.647900
     10 O1         -0.3780   -1.0090   -0.4320 os        1 GC3     -0.461400
     11 O3          3.5580    0.9480    1.3470 oh        1 GC3     -0.605800
     12 O4          1.8750    0.8820    3.7510 oh        1 GC3     -0.591800
     13 O5         -0.4840    0.7030    1.0130 os        1 GC3     -0.408600
     14 O6         -2.1720    0.4030    3.3150 oh        1 GC3     -0.594800
     15 O10         1.0570   -4.0560   -1.6710 oh        1 GC3     -0.577800
     16 H1          0.0780    0.9680   -0.9080 h2        1 GC3      0.113700
     17 H2          2.3710    0.4180   -0.6580 h1        1 GC3      0.097700
     18 H3          2.6510   -0.7960    2.0380 h1        1 GC3      0.074700
     19 H4          1.4480    2.0560    2.0780 h1        1 GC3      0.068700
     20 HA          4.2130    0.3970    0.9000 ho        1 GC3      0.418000
     21 H5          0.0500   -0.7190    2.4580 h1        1 GC3      0.073700
     22 HB          2.7770    1.2280    3.7750 ho        1 GC3      0.422000
     23 H61C       -0.5110    0.9340    4.3450 h1        1 GC3      0.066700
     24 H62C       -1.0440    2.1400    3.0560 h1        1 GC3      0.066700
     25 H6         -2.5280    0.4580    2.4180 ho        1 GC3      0.412000
     26 H81C       -0.7860   -3.2470   -1.5250 h1        1 GC3      0.080700
     27 H82C       -0.1130   -3.9100    0.0600 h1        1 GC3      0.080700
     28 H10         1.8700   -4.1640   -1.1600 ho        1 GC3      0.418000
@<TRIPOS>BOND
     1    1    2 1   
     2    1   10 1   
     3    1   13 1   
     4    1   16 1   
     5    2    3 1   
     6    2    9 1   
     7    2   17 1   
     8    3    4 1   
     9    3   11 1   
    10    3   18 1   
    11    4    5 1   
    12    4   12 1   
    13    4   19 1   
    14    5    6 1   
    15    5   13 1   
    16    5   21 1   
    17    6   14 1   
    18    6   23 1   
    19    6   24 1   
    20    7    8 1   
    21    7    9 2   
    22    7   10 1   
    23    8   15 1   
    24    8   26 1   
    25    8   27 1   
    26   11   20 1   
    27   12   22 1   
    28   14   25 1   
    29   15   28 1   
@<TRIPOS>SUBSTRUCTURE
     1 GC3         1 TEMP              0 ****  ****    0 ROOT
