@<TRIPOS>MOLECULE
GC3
   28    29     1     0     0
SMALL
bcc


@<TRIPOS>ATOM
      1 C1          0.2600    0.2680   -0.0570 c3        1 GC3      0.302900
      2 C2          1.7700   -0.1280    0.1190 c3        1 GC3      0.040500
      3 C3          2.3900    0.1460    1.5040 c3        1 GC3      0.114100
      4 C4          1.4600    0.9510    2.4270 c3        1 GC3      0.121100
      5 C5          0.0440    0.3750    2.3280 c3        1 GC3      0.101100
      6 C6         -0.9070    1.0190    3.3400 c3        1 GC3      0.143400
      7 C7          0.6130   -1.9520   -0.5260 c2        1 GC3      0.552600
      8 C8          0.1120   -3.3060   -0.9390 c3        1 GC3      0.119100
      9 N2          1.8210   -1.5520   -0.2380 n2        1 GC3     -0.647900
     10 O1         -0.3860   -0.9730   -0.4390 os        1 GC3     -0.461400
     11 O3          3.5640    0.9310    1.3620 oh        1 GC3     -0.605800
     12 O4          1.8900    0.8260    3.7710 oh        1 GC3     -0.591800
     13 O5         -0.4800    0.7110    1.0390 os        1 GC3     -0.408600
     14 O6         -2.1610    0.3730    3.3410 oh        1 GC3     -0.594800
     15 O10         1.0300   -4.0000   -1.7460 oh        1 GC3     -0.577800
     16 H1          0.0750    1.0100   -0.8790 h2        1 GC3      0.113700
     17 H2          2.3680    0.4470   -0.6480 h1        1 GC3      0.097700
     18 H3          2.6510   -0.8220    2.0230 h1        1 GC3      0.074700
     19 H4          1.4620    2.0340    2.1220 h1        1 GC3      0.068700
     20 HA          4.2150    0.3860    0.9030 ho        1 GC3      0.418000
     21 H5          0.0530   -0.7410    2.4540 h1        1 GC3      0.073700
     22 HB          2.7940    1.1680    3.7980 ho        1 GC3      0.422000
     23 H61C       -1.0260    2.1110    3.1110 h1        1 GC3      0.066700
     24 H62C       -0.4930    0.8780    4.3740 h1        1 GC3      0.066700
     25 H6         -2.5200    0.4480    2.4470 ho        1 GC3      0.412000
     26 H81C       -0.8100   -3.1880   -1.5730 h1        1 GC3      0.080700
     27 H82C       -0.1310   -3.8860   -0.0060 h1        1 GC3      0.080700
     28 H10         1.8450   -4.1220   -1.2410 ho        1 GC3      0.418000
@<TRIPOS>BOND
     1    1    2 1   
     2    1   10 1   
     3    1   13 1   
     4    1   16 1   
     5    2    3 1   
     6    2    9 1   
     7    2   17 1   
     8    3    4 1   
     9    3   11 1   
    10    3   18 1   
    11    4    5 1   
    12    4   12 1   
    13    4   19 1   
    14    5    6 1   
    15    5   13 1   
    16    5   21 1   
    17    6   14 1   
    18    6   23 1   
    19    6   24 1   
    20    7    8 1   
    21    7    9 2   
    22    7   10 1   
    23    8   15 1   
    24    8   26 1   
    25    8   27 1   
    26   11   20 1   
    27   12   22 1   
    28   14   25 1   
    29   15   28 1   
@<TRIPOS>SUBSTRUCTURE
     1 GC3         1 TEMP              0 ****  ****    0 ROOT
