@<TRIPOS>MOLECULE
GC3
   28    28     1     0     0
SMALL
bcc


@<TRIPOS>ATOM
      1 C1         -1.0780    0.0400   -0.5720 c3        1 GC3      0.117000
      2 C2          0.0240    0.8020   -0.2630 c3        1 GC3     -0.131000
      3 C3          1.0930    0.3450    0.5990 c3        1 GC3      0.007000
      4 C4          0.5490   -0.5710    1.7680 c3        1 GC3      0.003000
      5 C5         -0.9090   -0.4080    2.0440 c3        1 GC3     -0.035000
      6 C6         -1.2080    0.8050    2.3330 c3        1 GC3     -0.033000
      7 C7          0.2150   -0.3740   -2.4130 c1        1 GC3      0.049000
      8 C8          0.7880   -0.5710   -3.7990 c2        1 GC3      0.047000
      9 N2          0.8020    0.6150   -1.5190 n2        1 GC3     -0.209000
     10 O1         -0.8640   -0.5080   -2.2410 os        1 GC3     -0.245000
     11 O3          1.7510    1.4800    1.1680 oh        1 GC3     -0.342000
     12 O4          0.7810   -1.9030    1.4220 oh        1 GC3     -0.305000
     13 O5         -1.4930   -0.8660    0.4830 os        1 GC3     -0.270000
     14 O6         -2.4330    0.8310    3.0680 oh        1 GC3     -0.320000
     15 O10        -0.0050   -1.5380   -4.5110 oh        1 GC3     -0.308000
     16 H1         -1.8370    0.7010   -0.6300 h2        1 GC3      0.137000
     17 H2         -0.1950    1.7270   -0.1210 h1        1 GC3      0.128000
     18 H3          1.7300   -0.1580    0.0750 h1        1 GC3      0.125000
     19 H4          1.0350   -0.3740    2.5650 h1        1 GC3      0.146000
     20 HA          2.6420    1.3850    1.0840 ho        1 GC3      0.217000
     21 H5         -1.1950   -0.9950    2.6990 h1        1 GC3      0.147000
     22 HB          1.2860   -2.2960    2.0570 ho        1 GC3      0.211000
     23 H61C       -1.3100    1.3150    1.5190 h1        1 GC3      0.095000
     24 H62C       -0.4790    1.2020    2.8860 h1        1 GC3      0.095000
     25 H6         -2.4040    1.4790    3.6660 ho        1 GC3      0.215000
     26 H81C        1.6690   -0.8800   -3.7320 h4        1 GC3      0.120000
     27 H82C        0.7760    0.2960   -4.2910 h4        1 GC3      0.120000
     28 H10         0.2670   -1.5840   -5.3460 ho        1 GC3      0.221000
@<TRIPOS>BOND
     1    1    2 1   
     2    1   10 1   
     3    1   13 1   
     4    1   16 1   
     5    2    3 1   
     6    2    9 1   
     7    2   17 1   
     8    3    4 1   
     9    3   11 1   
    10    3   18 1   
    11    4    5 1   
    12    4   12 1   
    13    4   19 1   
    14    5    6 1   
    15    5   13 1   
    16    5   21 1   
    17    6   14 1   
    18    6   23 1   
    19    6   24 1   
    20    7    9 1   
    21    7   10 1   
    22    8   15 1   
    23    8   26 1   
    24    8   27 1   
    25   11   20 1   
    26   12   22 1   
    27   14   25 1   
    28   15   28 1   
@<TRIPOS>SUBSTRUCTURE
     1 GC3         1 TEMP              0 ****  ****    0 ROOT
