@<TRIPOS>MOLECULE
GC4
   21    21     1     0     0
SMALL
bcc


@<TRIPOS>ATOM
      1 C1         -0.8190    0.1270   -1.2610 c3        1 GC4      0.324900
      2 C2          0.6700    0.1270   -1.2610 c3        1 GC4      0.056100
      3 C3          1.2430    0.1270    0.0870 c3        1 GC4      0.167100
      4 C4          0.6850   -0.9550    0.9500 c3        1 GC4     -0.127400
      5 C5         -0.8670   -0.9550    0.9950 c3        1 GC4      0.012100
      6 O5         -1.3990   -0.9470   -0.4120 os        1 GC4     -0.435600
      7 C6         -1.4160    0.1710    1.8220 c         1 GC4      0.892600
      8 O6A        -0.8070    0.5470    2.8570 o         1 GC4     -0.833800
      9 O6B        -2.4870    0.7380    1.4810 o         1 GC4     -0.833800
     10 O2          1.1400   -1.0690   -1.9720 oh        1 GC4     -0.608800
     11 O3          0.9670    1.4200    0.7160 oh        1 GC4     -0.628800
     12 O1         -1.2680    1.3630   -0.7920 oh        1 GC4     -0.666800
     13 H1         -1.1330    0.0060   -2.1780 h2        1 GC4      0.060700
     14 H2          0.9840    0.9190   -1.7370 h1        1 GC4      0.085700
     15 H3          2.2100    0.0080    0.0190 h1        1 GC4      0.062700
     16 H41         1.0250   -0.8390    1.8580 hc        1 GC4      0.052200
     17 H42         0.9880   -1.8170    0.6080 hc        1 GC4      0.052200
     18 H5         -1.1990   -1.7290    1.4880 h1        1 GC4      0.062700
     19 HO2         1.5410   -0.8270   -2.7260 ho        1 GC4      0.399000
     20 HO3         1.7320    1.8470    0.8620 ho        1 GC4      0.444000
     21 HO1        -1.7880    1.7400   -1.4040 ho        1 GC4      0.464000
@<TRIPOS>BOND
     1    1    2 1   
     2    1    6 1   
     3    1   12 1   
     4    1   13 1   
     5    2    3 1   
     6    2   10 1   
     7    2   14 1   
     8    3    4 1   
     9    3   11 1   
    10    3   15 1   
    11    4    5 1   
    12    4   16 1   
    13    4   17 1   
    14    5    6 1   
    15    5    7 1   
    16    5   18 1   
    17    7    8 1   
    18    7    9 1   
    19   10   19 1   
    20   11   20 1   
    21   12   21 1   
@<TRIPOS>SUBSTRUCTURE
     1 GC4         1 TEMP              0 ****  ****    0 ROOT
