@<TRIPOS>MOLECULE
GC4
   21    21     1     0     0
SMALL
bcc


@<TRIPOS>ATOM
      1 C1         -1.1270   -0.5660   -1.0090 c3        1 GC4      0.308900
      2 C2          0.0300    0.1260   -1.7630 c3        1 GC4      0.059100
      3 C3          1.3670   -0.2270   -1.0930 c3        1 GC4      0.142100
      4 C4          1.2720    0.0690    0.3990 c3        1 GC4     -0.138400
      5 C5          0.0620   -0.5800    1.0470 c3        1 GC4      0.017100
      6 O5         -1.1450   -0.2360    0.3600 os        1 GC4     -0.421600
      7 C6         -0.0980   -0.0670    2.5210 c         1 GC4      0.933600
      8 O6A        -0.0250    1.1720    2.7210 o         1 GC4     -0.818300
      9 O6B        -0.2430   -0.9550    3.4000 o         1 GC4     -0.818300
     10 O2          0.0710   -0.3220   -3.1090 oh        1 GC4     -0.598800
     11 O3          2.4420    0.4800   -1.6880 oh        1 GC4     -0.598800
     12 O1         -2.3650   -0.0810   -1.4790 oh        1 GC4     -0.635800
     13 H1         -1.1100   -1.6770   -1.1860 h2        1 GC4      0.056700
     14 H2         -0.1240    1.2400   -1.7480 h1        1 GC4      0.042700
     15 H3          1.6120   -1.3080   -1.2870 h1        1 GC4      0.076700
     16 H41         2.1990   -0.2980    0.9090 hc        1 GC4      0.068700
     17 H42         1.2080    1.1780    0.5670 hc        1 GC4      0.068700
     18 H5          0.1630   -1.7000    1.0420 h1        1 GC4      0.030700
     19 HO2        -0.8350   -0.2550   -3.4380 ho        1 GC4      0.402000
     20 HO3         2.2950    1.4170   -1.5100 ho        1 GC4      0.392000
     21 HO1        -2.6780    0.5880   -0.8530 ho        1 GC4      0.432000
@<TRIPOS>BOND
     1    1    2 1   
     2    1    6 1   
     3    1   12 1   
     4    1   13 1   
     5    2    3 1   
     6    2   10 1   
     7    2   14 1   
     8    3    4 1   
     9    3   11 1   
    10    3   15 1   
    11    4    5 1   
    12    4   16 1   
    13    4   17 1   
    14    5    6 1   
    15    5    7 1   
    16    5   18 1   
    17    7    8 1   
    18    7    9 1   
    19   10   19 1   
    20   11   20 1   
    21   12   21 1   
@<TRIPOS>SUBSTRUCTURE
     1 GC4         1 TEMP              0 ****  ****    0 ROOT
