@<TRIPOS>MOLECULE
GC7
   34    33     1     0     0
SMALL
bcc


@<TRIPOS>ATOM
      1 N1          0.3310   -0.1190    6.7040 n3        1 GC7     -0.916800
      2 C1         -0.0710    0.4970    5.4620 c3        1 GC7      0.158800
      3 C2          0.2590   -0.3460    4.2310 c3        1 GC7     -0.083400
      4 C3         -0.1400    0.3890    2.9700 c3        1 GC7     -0.079400
      5 C4          0.1780   -0.4300    1.7370 c3        1 GC7     -0.078400
      6 C5         -0.2200    0.3040    0.4740 c3        1 GC7     -0.078400
      7 C6          0.0990   -0.5170   -0.7570 c3        1 GC7     -0.084400
      8 C7         -0.3110    0.2470   -2.0160 c3        1 GC7      0.165800
      9 N8         -0.0880   -0.5100   -3.2310 n3        1 GC7     -0.849200
     10 C9         -0.3230    0.2810   -4.4680 c3        1 GC7      0.607900
     11 NH1         0.7310    1.2800   -4.7390 n3        1 GC7     -0.931300
     12 NH2        -0.6320   -0.5740   -5.6350 n3        1 GC7     -0.931300
     13 HN11       -0.0210    0.4050    7.4800 hn        1 GC7      0.347800
     14 HN12       -0.0020   -1.0600    6.7640 hn        1 GC7      0.347800
     15 H11        -1.1780    0.7340    5.4340 h1        1 GC7      0.024200
     16 H12         0.4760    1.4810    5.3850 h1        1 GC7      0.024200
     17 H21         1.3580   -0.5710    4.2070 hc        1 GC7      0.046700
     18 H22        -0.2810   -1.3280    4.2820 hc        1 GC7      0.046700
     19 H31        -1.2390    0.6170    2.9960 hc        1 GC7      0.040700
     20 H32         0.4000    1.3710    2.9190 hc        1 GC7      0.040700
     21 H41         1.2770   -0.6560    1.7100 hc        1 GC7      0.041200
     22 H42        -0.3610   -1.4120    1.7880 hc        1 GC7      0.041200
     23 H51        -1.3190    0.5300    0.5020 hc        1 GC7      0.041700
     24 H52         0.3190    1.2870    0.4240 hc        1 GC7      0.041700
     25 H61         1.1980   -0.7410   -0.7840 hc        1 GC7      0.044700
     26 H62        -0.4420   -1.4980   -0.7070 hc        1 GC7      0.044700
     27 H71        -1.4150    0.4720   -1.9600 h1        1 GC7      0.039200
     28 H72         0.2310    1.2380   -2.0190 h1        1 GC7      0.039200
     29 HN8         0.8280   -0.9170   -3.2270 hn        1 GC7      0.352800
     30 H9         -1.2720    0.8880   -4.2790 h3        1 GC7      0.077700
     31 HH11        1.5920    0.8490   -5.0140 hn        1 GC7      0.354550
     32 HH12        0.4320    1.8990   -5.4660 hn        1 GC7      0.354550
     33 HH21        0.0990   -1.2320   -5.8220 hn        1 GC7      0.354550
     34 HH22       -1.4830   -1.0760   -5.4740 hn        1 GC7      0.354550
@<TRIPOS>BOND
     1    1    2 1   
     2    1   13 1   
     3    1   14 1   
     4    2    3 1   
     5    2   15 1   
     6    2   16 1   
     7    3    4 1   
     8    3   17 1   
     9    3   18 1   
    10    4    5 1   
    11    4   19 1   
    12    4   20 1   
    13    5    6 1   
    14    5   21 1   
    15    5   22 1   
    16    6    7 1   
    17    6   23 1   
    18    6   24 1   
    19    7    8 1   
    20    7   25 1   
    21    7   26 1   
    22    8    9 1   
    23    8   27 1   
    24    8   28 1   
    25    9   10 1   
    26    9   29 1   
    27   10   11 1   
    28   10   12 1   
    29   10   30 1   
    30   11   31 1   
    31   11   32 1   
    32   12   33 1   
    33   12   34 1   
@<TRIPOS>SUBSTRUCTURE
     1 GC7         1 TEMP              0 ****  ****    0 ROOT
