@<TRIPOS>MOLECULE
GC7
   38    37     1     0     0
SMALL
bcc


@<TRIPOS>ATOM
      1 N1         -0.0600    0.0940   -0.1310 n4        1 GC7     -0.837600
      2 C1          1.4200   -0.0410   -0.0050 c3        1 GC7      0.100800
      3 C2          1.9230    0.0700    1.4330 c3        1 GC7     -0.107400
      4 C3          3.4360   -0.0810    1.4560 c3        1 GC7     -0.077400
      5 C4          3.9700    0.0270    2.8740 c3        1 GC7     -0.079400
      6 C5          5.4850   -0.1240    2.8920 c3        1 GC7     -0.073400
      7 C6          6.0050   -0.0090    4.3280 c3        1 GC7     -0.122400
      8 C7          7.5250   -0.1580    4.3080 c3        1 GC7      0.118800
      9 N8          8.0970   -0.0410    5.7340 n4        1 GC7     -0.838000
     10 C9          9.6220    0.0730    5.7780 c3        1 GC7      0.541900
     11 NH1        10.1430    0.6230    7.1110 n4        1 GC7     -0.898600
     12 NH2        10.3230   -1.2270    5.3880 n4        1 GC7     -0.898600
     13 HN11       -0.5380   -0.6410    0.4040 hn        1 GC7      0.474467
     14 HN12       -0.3720    1.0070    0.2200 hn        1 GC7      0.474467
     15 H11         1.8890    0.7690   -0.6400 hx        1 GC7      0.119700
     16 H12         1.7070   -1.0450   -0.4370 hx        1 GC7      0.119700
     17 H21         1.4570   -0.7300    2.0700 hc        1 GC7      0.077700
     18 H22         1.6380    1.0650    1.8690 hc        1 GC7      0.077700
     19 H31         3.9020    0.7160    0.8160 hc        1 GC7      0.068200
     20 H32         3.7210   -1.0750    1.0200 hc        1 GC7      0.068200
     21 H41         3.6840    1.0220    3.3080 hc        1 GC7      0.069700
     22 H42         3.5030   -0.7700    3.5120 hc        1 GC7      0.069700
     23 H51         5.9470    0.6750    2.2540 hc        1 GC7      0.075200
     24 H52         5.7660   -1.1220    2.4640 hc        1 GC7      0.075200
     25 H61         5.7020    0.9920    4.7400 hc        1 GC7      0.102200
     26 H62         5.5270   -0.8130    4.9510 hc        1 GC7      0.102200
     27 H71         7.8070   -1.1740    3.9110 hx        1 GC7      0.126200
     28 H72         7.9850    0.6620    3.6820 hx        1 GC7      0.126200
     29 HN8         7.6780    0.8250    6.1360 hn        1 GC7      0.507300
     30 H9          9.9160    0.8590    4.9680 hx        1 GC7      0.241700
     31 HH11       11.1790    0.7610    7.0700 hn        1 GC7      0.535800
     32 HH12        9.9330    0.0180    7.9290 hn        1 GC7      0.535800
     33 HH21       11.3550   -1.0760    5.3090 hn        1 GC7      0.535800
     34 HH22       10.1630   -2.0090    6.0540 hn        1 GC7      0.535800
     35 H13        -0.3330    0.0110   -1.1200 hn        1 GC7      0.474467
     36 H82         7.7450   -0.8390    6.2930 hn        1 GC7      0.507300
     37 HH13        9.7340    1.5670    7.2930 hn        1 GC7      0.535800
     38 HH23        9.9970   -1.5330    4.4450 hn        1 GC7      0.535800
@<TRIPOS>BOND
     1    1    2 1   
     2    1   13 1   
     3    1   14 1   
     4    1   35 1   
     5    2    3 1   
     6    2   15 1   
     7    2   16 1   
     8    3    4 1   
     9    3   17 1   
    10    3   18 1   
    11    4    5 1   
    12    4   19 1   
    13    4   20 1   
    14    5    6 1   
    15    5   21 1   
    16    5   22 1   
    17    6    7 1   
    18    6   23 1   
    19    6   24 1   
    20    7    8 1   
    21    7   25 1   
    22    7   26 1   
    23    8    9 1   
    24    8   27 1   
    25    8   28 1   
    26    9   10 1   
    27    9   29 1   
    28    9   36 1   
    29   10   11 1   
    30   10   12 1   
    31   10   30 1   
    32   11   31 1   
    33   11   32 1   
    34   11   37 1   
    35   12   33 1   
    36   12   34 1   
    37   12   38 1   
@<TRIPOS>SUBSTRUCTURE
     1 GC7         1 TEMP              0 ****  ****    0 ROOT
