@<TRIPOS>MOLECULE
GC7
   38    37     1     0     0
SMALL
bcc


@<TRIPOS>ATOM
      1 N1         -0.0610    0.0940   -0.1290 n4        1 GC7     -0.837600
      2 C1          1.4170   -0.0550   -0.0020 c3        1 GC7      0.100800
      3 C2          1.9230    0.0750    1.4330 c3        1 GC7     -0.107400
      4 C3          3.4340   -0.0910    1.4580 c3        1 GC7     -0.077400
      5 C4          3.9710    0.0350    2.8740 c3        1 GC7     -0.079400
      6 C5          5.4840   -0.1310    2.8930 c3        1 GC7     -0.073400
      7 C6          6.0060    0.0010    4.3270 c3        1 GC7     -0.122400
      8 C7          7.5250   -0.1620    4.3080 c3        1 GC7      0.118800
      9 N8          8.0990   -0.0310    5.7330 n4        1 GC7     -0.838000
     10 C9          9.6240    0.0740    5.7740 c3        1 GC7      0.541900
     11 NH1        10.1500    0.6330    7.1010 n4        1 GC7     -0.898600
     12 NH2        10.3170   -1.2350    5.3970 n4        1 GC7     -0.898600
     13 HN11       -0.5470   -0.6260    0.4190 hn        1 GC7      0.474467
     14 HN12       -0.3620    1.0170    0.2040 hn        1 GC7      0.474467
     15 H11         1.8950    0.7370   -0.6520 hx        1 GC7      0.119700
     16 H12         1.6920   -1.0710   -0.4160 hx        1 GC7      0.119700
     17 H21         1.6490    1.0810    1.8510 hc        1 GC7      0.077700
     18 H22         1.4490   -0.7070    2.0840 hc        1 GC7      0.077700
     19 H31         3.9080    0.6900    0.8050 hc        1 GC7      0.068200
     20 H32         3.7080   -1.0950    1.0390 hc        1 GC7      0.068200
     21 H41         3.4970   -0.7470    3.5250 hc        1 GC7      0.069700
     22 H42         3.6950    1.0390    3.2920 hc        1 GC7      0.069700
     23 H51         5.9540    0.6540    2.2430 hc        1 GC7      0.075200
     24 H52         5.7550   -1.1380    2.4800 hc        1 GC7      0.075200
     25 H61         5.5210   -0.7900    4.9620 hc        1 GC7      0.102200
     26 H62         5.7120    1.0100    4.7240 hc        1 GC7      0.102200
     27 H71         7.9910    0.6460    3.6720 hx        1 GC7      0.126200
     28 H72         7.7980   -1.1850    3.9240 hx        1 GC7      0.126200
     29 HN8         7.7420   -0.8200    6.3010 hn        1 GC7      0.507300
     30 H9          9.9230    0.8490    4.9560 hx        1 GC7      0.241700
     31 HH11        9.7470    1.5820    7.2740 hn        1 GC7      0.535800
     32 HH12       11.1870    0.7650    7.0580 hn        1 GC7      0.535800
     33 HH21       10.1520   -2.0090    6.0700 hn        1 GC7      0.535800
     34 HH22       11.3500   -1.0910    5.3160 hn        1 GC7      0.535800
     35 H13        -0.3360   -0.0040   -1.1170 hn        1 GC7      0.474467
     36 H82         7.6860    0.8420    6.1250 hn        1 GC7      0.507300
     37 HH13        9.9370    0.0390    7.9250 hn        1 GC7      0.535800
     38 HH23        9.9880   -1.5490    4.4570 hn        1 GC7      0.535800
@<TRIPOS>BOND
     1    1    2 1   
     2    1   13 1   
     3    1   14 1   
     4    1   35 1   
     5    2    3 1   
     6    2   15 1   
     7    2   16 1   
     8    3    4 1   
     9    3   17 1   
    10    3   18 1   
    11    4    5 1   
    12    4   19 1   
    13    4   20 1   
    14    5    6 1   
    15    5   21 1   
    16    5   22 1   
    17    6    7 1   
    18    6   23 1   
    19    6   24 1   
    20    7    8 1   
    21    7   25 1   
    22    7   26 1   
    23    8    9 1   
    24    8   27 1   
    25    8   28 1   
    26    9   10 1   
    27    9   29 1   
    28    9   36 1   
    29   10   11 1   
    30   10   12 1   
    31   10   30 1   
    32   11   31 1   
    33   11   32 1   
    34   11   37 1   
    35   12   33 1   
    36   12   34 1   
    37   12   38 1   
@<TRIPOS>SUBSTRUCTURE
     1 GC7         1 TEMP              0 ****  ****    0 ROOT
