@<TRIPOS>MOLECULE
GC7
   38    37     1     0     0
SMALL
bcc


@<TRIPOS>ATOM
      1 N1         -0.0590    0.0980   -0.1330 nz        1 GC7     -0.837600
      2 C1          1.4210   -0.0420   -0.0060 c3        1 GC7      0.100800
      3 C2          1.9240    0.0740    1.4310 c3        1 GC7     -0.107400
      4 C3          3.4360   -0.0820    1.4560 c3        1 GC7     -0.077400
      5 C4          3.9710    0.0300    2.8740 c3        1 GC7     -0.079400
      6 C5          5.4850   -0.1250    2.8920 c3        1 GC7     -0.073400
      7 C6          6.0040   -0.0070    4.3280 c3        1 GC7     -0.122400
      8 C7          7.5250   -0.1600    4.3090 c3        1 GC7      0.118800
      9 N8          8.0970   -0.0410    5.7350 ny        1 GC7     -0.838000
     10 C9          9.6210    0.0720    5.7790 c3        1 GC7      0.541900
     11 NH1        10.1430    0.6200    7.1120 nz        1 GC7     -0.898600
     12 NH2        10.3220   -1.2290    5.3890 nz        1 GC7     -0.898600
     13 HN11       -0.5400   -0.6320    0.4060 hn        1 GC7      0.474467
     14 HN12       -0.3670    1.0150    0.2120 hn        1 GC7      0.474467
     15 H11         1.8930    0.7610   -0.6450 hx        1 GC7      0.119700
     16 H12         1.7030   -1.0500   -0.4320 hx        1 GC7      0.119700
     17 H21         1.6420    1.0720    1.8620 hc        1 GC7      0.077700
     18 H22         1.4540   -0.7200    2.0730 hc        1 GC7      0.077700
     19 H31         3.9050    0.7100    0.8130 hc        1 GC7      0.068200
     20 H32         3.7170   -1.0800    1.0250 hc        1 GC7      0.068200
     21 H41         3.5010   -0.7620    3.5150 hc        1 GC7      0.069700
     22 H42         3.6870    1.0280    3.3030 hc        1 GC7      0.069700
     23 H51         5.9500    0.6700    2.2520 hc        1 GC7      0.075200
     24 H52         5.7630   -1.1260    2.4670 hc        1 GC7      0.075200
     25 H61         5.5250   -0.8080    4.9530 hc        1 GC7      0.102200
     26 H62         5.7040    0.9960    4.7370 hc        1 GC7      0.102200
     27 H71         7.9860    0.6580    3.6820 hx        1 GC7      0.126200
     28 H72         7.8050   -1.1770    3.9130 hx        1 GC7      0.126200
     29 HN8         7.7440   -0.8390    6.2940 hn        1 GC7      0.507300
     30 H9          9.9160    0.8570    4.9690 hx        1 GC7      0.241700
     31 HH11        9.7340    1.5640    7.2950 hn        1 GC7      0.535800
     32 HH12       11.1790    0.7580    7.0720 hn        1 GC7      0.535800
     33 HH21       10.1620   -2.0110    6.0540 hn        1 GC7      0.535800
     34 HH22       11.3540   -1.0780    5.3100 hn        1 GC7      0.535800
     35 H13        -0.3320    0.0100   -1.1220 hn        1 GC7      0.474467
     36 H82         7.6780    0.8240    6.1360 hn        1 GC7      0.507300
     37 HH13        9.9320    0.0150    7.9290 hn        1 GC7      0.535800
     38 HH23        9.9960   -1.5350    4.4450 hn        1 GC7      0.535800
@<TRIPOS>BOND
     1    1    2 1   
     2    1   13 1   
     3    1   14 1   
     4    1   35 1   
     5    2    3 1   
     6    2   15 1   
     7    2   16 1   
     8    3    4 1   
     9    3   17 1   
    10    3   18 1   
    11    4    5 1   
    12    4   19 1   
    13    4   20 1   
    14    5    6 1   
    15    5   21 1   
    16    5   22 1   
    17    6    7 1   
    18    6   23 1   
    19    6   24 1   
    20    7    8 1   
    21    7   25 1   
    22    7   26 1   
    23    8    9 1   
    24    8   27 1   
    25    8   28 1   
    26    9   10 1   
    27    9   29 1   
    28    9   36 1   
    29   10   11 1   
    30   10   12 1   
    31   10   30 1   
    32   11   31 1   
    33   11   32 1   
    34   11   37 1   
    35   12   33 1   
    36   12   34 1   
    37   12   38 1   
@<TRIPOS>SUBSTRUCTURE
     1 GC7         1 TEMP              0 ****  ****    0 ROOT
