@<TRIPOS>MOLECULE
GCA
   50    47     1     0     0
SMALL
bcc


@<TRIPOS>ATOM
      1 C1          0.1040    0.8830    1.4180 c1        1 GCA     -0.082000
      2 C2          0.4850    1.8010    2.3870 c1        1 GCA     -0.133000
      3 C3          0.6050    1.4020    3.7190 c1        1 GCA     -0.059500
      4 C4          0.3450    0.0840    4.0760 c1        1 GCA     -0.133000
      5 C5         -0.0370   -0.8390    3.1050 c1        1 GCA     -0.059500
      6 C6         -0.1570   -0.4430    1.7790 c1        1 GCA     -0.133000
      7 CP          0.9590    2.4240    4.7900 c3        1 GCA     -0.182500
      8 CQ         -0.4570   -2.2350    3.5180 c3        1 GCA     -0.182500
      9 CG         -0.2320    1.3740   -0.0230 c3        1 GCA     -0.103000
     10 C7          0.3020    0.3770   -1.0380 c2        1 GCA      0.104000
     11 C12         1.5760    0.6420   -1.7370 c1        1 GCA     -0.223000
     12 CF          2.1340    2.0850   -1.8020 c2        1 GCA     -0.045000
     13 CH          3.6630    2.0370   -2.0490 c3        1 GCA     -0.214000
     14 CI          1.4520    2.8450   -2.9530 c3        1 GCA     -0.214000
     15 C11         2.1850   -0.4130   -2.5550 c2        1 GCA      0.358000
     16 O11         3.2300   -0.2030   -3.1310 o         1 GCA     -0.344000
     17 N8         -0.4270   -0.8140   -1.3210 n         1 GCA     -0.300000
     18 C9          0.1780   -1.8610   -2.1300 c2        1 GCA      0.399000
     19 O9         -0.3640   -2.9410   -2.2230 o         1 GCA     -0.348000
     20 N10         1.4770   -1.6310   -2.7840 n         1 GCA     -0.367000
     21 CA         -1.8140   -0.9170   -0.9330 c3        1 GCA      0.106000
     22 OB         -2.4030   -2.0770   -1.5580 os        1 GCA     -0.269000
     23 CC         -3.7790   -2.2740   -1.2340 c3        1 GCA     -0.033000
     24 CD         -4.2860   -3.5820   -1.9020 c3        1 GCA     -0.214000
     25 H21         0.6670    2.7220    2.1380 ha        1 GCA      0.134000
     26 H41         0.4300   -0.1990    5.0190 ha        1 GCA      0.134000
     27 H61        -0.4260   -1.0930    1.0970 ha        1 GCA      0.146000
     28 HP1         1.7610    2.9190    4.5170 hc        1 GCA      0.087000
     29 HP2         0.2100    3.0510    4.9060 hc        1 GCA      0.087000
     30 HP3         1.1320    1.9640    5.6370 hc        1 GCA      0.087000
     31 HQ1         0.3240   -2.7250    3.8550 hc        1 GCA      0.087000
     32 HQ2        -0.8280   -2.7060    2.7470 hc        1 GCA      0.087000
     33 HQ3        -1.1380   -2.1770    4.2250 hc        1 GCA      0.087000
     34 HG1         0.1830    2.2470   -0.1750 hc        1 GCA      0.115500
     35 HG2        -1.2040    1.4530   -0.1230 hc        1 GCA      0.115500
     36 HF1         1.9550    2.5430   -0.9570 ha        1 GCA      0.086000
     37 HH1         4.0750    2.8720   -1.7240 hc        1 GCA      0.082667
     38 HH2         4.0500    1.2730   -1.5670 hc        1 GCA      0.082667
     39 HH3         3.8360    1.9390   -3.0110 hc        1 GCA      0.082667
     40 HI1         0.4820    2.7060   -2.9070 hc        1 GCA      0.082667
     41 HI2         1.7900    2.5100   -3.8120 hc        1 GCA      0.082667
     42 HI3         1.6510    3.8090   -2.8750 hc        1 GCA      0.082667
     43 HN1         1.8540   -2.2880   -3.2920 hn        1 GCA      0.266000
     44 HA1        -2.2980   -0.1080   -1.2200 h2        1 GCA      0.125000
     45 HA2        -1.8740   -1.0060    0.0460 h2        1 GCA      0.125000
     46 HC1        -3.8790   -2.3440   -0.2540 h1        1 GCA      0.073500
     47 HC2        -4.3060   -1.5100   -1.5640 h1        1 GCA      0.073500
     48 HD1        -3.9690   -4.3600   -1.3850 hc        1 GCA      0.086667
     49 HD2        -5.2770   -3.5800   -1.9220 hc        1 GCA      0.086667
     50 HD3        -3.9420   -3.6360   -2.8180 hc        1 GCA      0.086667
@<TRIPOS>BOND
     1    1    6 1   
     2    1    9 1   
     3    2    3 1   
     4    2   25 1   
     5    3    7 1   
     6    4    5 1   
     7    4   26 1   
     8    5    8 1   
     9    6   27 1   
    10    7   28 1   
    11    7   29 1   
    12    7   30 1   
    13    8   31 1   
    14    8   32 1   
    15    8   33 1   
    16    9   10 1   
    17    9   34 1   
    18    9   35 1   
    19   10   11 1   
    20   10   17 1   
    21   11   15 1   
    22   12   13 1   
    23   12   14 1   
    24   12   36 1   
    25   13   37 1   
    26   13   38 1   
    27   13   39 1   
    28   14   40 1   
    29   14   41 1   
    30   14   42 1   
    31   15   16 1   
    32   15   20 1   
    33   17   18 1   
    34   17   21 1   
    35   18   19 1   
    36   18   20 1   
    37   20   43 1   
    38   21   22 1   
    39   21   44 1   
    40   21   45 1   
    41   22   23 1   
    42   23   24 1   
    43   23   46 1   
    44   23   47 1   
    45   24   48 1   
    46   24   49 1   
    47   24   50 1   
@<TRIPOS>SUBSTRUCTURE
     1 GCA         1 TEMP              0 ****  ****    0 ROOT
