@<TRIPOS>MOLECULE
GCA
   50    51     1     0     0
SMALL
bcc


@<TRIPOS>ATOM
      1 C1         -0.1090   -0.1480    0.1370 ca        1 GCA     -0.077300
      2 C2          0.9810   -0.9520    0.4800 ca        1 GCA     -0.126000
      3 C3          1.5330   -0.8870    1.7640 ca        1 GCA     -0.072300
      4 C4          0.9880   -0.0080    2.7040 ca        1 GCA     -0.126000
      5 C5         -0.0960    0.8090    2.3670 ca        1 GCA     -0.072300
      6 C6         -0.6400    0.7370    1.0810 ca        1 GCA     -0.126000
      7 CP          2.6980   -1.7340    2.1100 c3        1 GCA     -0.054800
      8 CQ         -0.6740    1.7340    3.3700 c3        1 GCA     -0.054800
      9 CG         -0.6630   -0.1840   -1.2480 c3        1 GCA     -0.005900
     10 C7         -1.0930   -1.5680   -1.6770 cc        1 GCA      0.112400
     11 C12        -2.2450   -2.1290   -1.1790 cd        1 GCA     -0.241400
     12 CF         -3.1450   -1.4430   -0.2000 c3        1 GCA      0.000500
     13 CH         -4.4750   -1.0980   -0.8450 c3        1 GCA     -0.095600
     14 CI         -3.3600   -2.2810    1.0470 c3        1 GCA     -0.095600
     15 C11        -2.6560   -3.4830   -1.6030 c         1 GCA      0.720700
     16 O11        -3.7250   -4.0500   -1.3210 o         1 GCA     -0.613500
     17 N8         -0.3080   -2.2570   -2.6150 n         1 GCA     -0.406000
     18 C9         -0.5690   -3.6250   -2.8890 c         1 GCA      0.803500
     19 O9          0.2280   -4.3040   -3.5780 o         1 GCA     -0.659500
     20 N10        -1.7430   -4.1970   -2.3980 n         1 GCA     -0.582500
     21 CA          0.7920   -1.6420   -3.3460 c3        1 GCA      0.290800
     22 OB          1.9690   -1.4830   -2.5720 os        1 GCA     -0.430600
     23 CC          2.7840   -2.6600   -2.5040 c3        1 GCA      0.121400
     24 CD          3.9380   -2.3400   -1.5850 c3        1 GCA     -0.102100
     25 H21         1.4180   -1.6280   -0.2740 ha        1 GCA      0.139000
     26 H41         1.4170    0.0460    3.7160 ha        1 GCA      0.133000
     27 H61        -1.4890    1.3850    0.8140 ha        1 GCA      0.139000
     28 HP1         2.7950   -1.8570    3.2160 hc        1 GCA      0.044867
     29 HP2         2.6030   -2.7480    1.6470 hc        1 GCA      0.044867
     30 HP3         3.6380   -1.2630    1.7250 hc        1 GCA      0.044867
     31 HQ1        -1.4860    1.2160    3.9410 hc        1 GCA      0.044867
     32 HQ2        -1.1140    2.6350    2.8770 hc        1 GCA      0.044867
     33 HQ3         0.1040    2.0720    4.0980 hc        1 GCA      0.044867
     34 HG1         0.1270    0.2440   -1.9260 hc        1 GCA      0.074200
     35 HG2        -1.5590    0.4920   -1.3350 hc        1 GCA      0.074200
     36 HF1        -2.6620   -0.4790    0.1350 hc        1 GCA      0.051700
     37 HH1        -5.1250   -0.5670   -0.1090 hc        1 GCA      0.042700
     38 HH2        -4.3200   -0.4350   -1.7290 hc        1 GCA      0.042700
     39 HH3        -4.9980   -2.0270   -1.1790 hc        1 GCA      0.042700
     40 HI1        -3.9250   -3.2140    0.8070 hc        1 GCA      0.042700
     41 HI2        -3.9470   -1.6940    1.7940 hc        1 GCA      0.042700
     42 HI3        -2.3810   -2.5610    1.5030 hc        1 GCA      0.042700
     43 HN1        -1.9370   -5.1410   -2.6540 hn        1 GCA      0.353500
     44 HA1         1.0000   -2.2680   -4.2630 h2        1 GCA      0.085200
     45 HA2         0.5060   -0.5910   -3.6410 h2        1 GCA      0.085200
     46 HC1         3.1450   -2.9090   -3.5380 h1        1 GCA      0.043200
     47 HC2         2.1750   -3.5200   -2.1180 h1        1 GCA      0.043200
     48 HD1         4.4850   -1.4370   -1.9460 hc        1 GCA      0.047367
     49 HD2         4.6390   -3.2080   -1.5620 hc        1 GCA      0.047367
     50 HD3         3.5720   -2.1380   -0.5480 hc        1 GCA      0.047367
@<TRIPOS>BOND
     1    1    2 ar  
     2    1    6 ar  
     3    1    9 1   
     4    2    3 ar  
     5    2   25 1   
     6    3    4 ar  
     7    3    7 1   
     8    4    5 ar  
     9    4   26 1   
    10    5    6 ar  
    11    5    8 1   
    12    6   27 1   
    13    7   28 1   
    14    7   29 1   
    15    7   30 1   
    16    8   31 1   
    17    8   32 1   
    18    8   33 1   
    19    9   10 1   
    20    9   34 1   
    21    9   35 1   
    22   10   11 2   
    23   10   17 1   
    24   11   12 1   
    25   11   15 1   
    26   12   13 1   
    27   12   14 1   
    28   12   36 1   
    29   13   37 1   
    30   13   38 1   
    31   13   39 1   
    32   14   40 1   
    33   14   41 1   
    34   14   42 1   
    35   15   16 2   
    36   15   20 1   
    37   17   18 1   
    38   17   21 1   
    39   18   19 2   
    40   18   20 1   
    41   20   43 1   
    42   21   22 1   
    43   21   44 1   
    44   21   45 1   
    45   22   23 1   
    46   23   24 1   
    47   23   46 1   
    48   23   47 1   
    49   24   48 1   
    50   24   49 1   
    51   24   50 1   
@<TRIPOS>SUBSTRUCTURE
     1 GCA         1 TEMP              0 ****  ****    0 ROOT
