@<TRIPOS>MOLECULE
GCA
   50    51     1     0     0
SMALL
bcc


@<TRIPOS>ATOM
      1 C1         -0.1080   -0.1440    0.1240 ca        1 GCA     -0.077300
      2 C2          0.9810   -0.9460    0.4760 ca        1 GCA     -0.126000
      3 C3          1.5330   -0.8690    1.7590 ca        1 GCA     -0.072300
      4 C4          0.9880    0.0200    2.6910 ca        1 GCA     -0.126000
      5 C5         -0.0960    0.8340    2.3460 ca        1 GCA     -0.072300
      6 C6         -0.6390    0.7500    1.0600 ca        1 GCA     -0.126000
      7 CP          2.6980   -1.7120    2.1130 c3        1 GCA     -0.054800
      8 CQ         -0.6730    1.7690    3.3400 c3        1 GCA     -0.054800
      9 CG         -0.6620   -0.1930   -1.2600 c3        1 GCA     -0.005900
     10 C7         -1.0930   -1.5810   -1.6750 cc        1 GCA      0.112400
     11 C12        -2.2450   -2.1370   -1.1730 cd        1 GCA     -0.241400
     12 CF         -3.1440   -1.4410   -0.2000 c3        1 GCA      0.000500
     13 CH         -4.4740   -1.1010   -0.8490 c3        1 GCA     -0.095600
     14 CI         -3.3610   -2.2680    1.0550 c3        1 GCA     -0.095600
     15 C11        -2.6570   -3.4940   -1.5840 c         1 GCA      0.720700
     16 O11        -3.7270   -4.0580   -1.2960 o         1 GCA     -0.613500
     17 N8         -0.3090   -2.2790   -2.6070 n         1 GCA     -0.406000
     18 C9         -0.5700   -3.6500   -2.8690 c         1 GCA      0.803500
     19 O9          0.2270   -4.3360   -3.5500 o         1 GCA     -0.659500
     20 N10        -1.7440   -4.2160   -2.3720 n         1 GCA     -0.582500
     21 CA          0.7920   -1.6710   -3.3430 c3        1 GCA      0.290800
     22 OB          1.9690   -1.5060   -2.5710 os        1 GCA     -0.430600
     23 CC          2.7830   -2.6830   -2.4920 c3        1 GCA      0.121400
     24 CD          3.9370   -2.3550   -1.5750 c3        1 GCA     -0.102100
     25 H21         1.4170   -1.6290   -0.2720 ha        1 GCA      0.139000
     26 H41         1.4170    0.0840    3.7020 ha        1 GCA      0.133000
     27 H61        -1.4880    1.3960    0.7870 ha        1 GCA      0.139000
     28 HP1         2.7940   -1.8250    3.2210 hc        1 GCA      0.044867
     29 HP2         2.6020   -2.7310    1.6610 hc        1 GCA      0.044867
     30 HP3         3.6380   -1.2450    1.7240 hc        1 GCA      0.044867
     31 HQ1         0.1070    2.1190    4.0600 hc        1 GCA      0.044867
     32 HQ2        -1.1180    2.6630    2.8380 hc        1 GCA      0.044867
     33 HQ3        -1.4800    1.2550    3.9210 hc        1 GCA      0.044867
     34 HG1         0.1280    0.2290   -1.9420 hc        1 GCA      0.074200
     35 HG2        -1.5580    0.4820   -1.3540 hc        1 GCA      0.074200
     36 HF1        -2.6610   -0.4750    0.1260 hc        1 GCA      0.051700
     37 HH1        -4.3190   -0.4460   -1.7390 hc        1 GCA      0.042700
     38 HH2        -5.1240   -0.5630   -0.1170 hc        1 GCA      0.042700
     39 HH3        -4.9980   -2.0330   -1.1740 hc        1 GCA      0.042700
     40 HI1        -3.9270   -3.2020    0.8230 hc        1 GCA      0.042700
     41 HI2        -2.3820   -2.5440    1.5130 hc        1 GCA      0.042700
     42 HI3        -3.9470   -1.6730    1.7960 hc        1 GCA      0.042700
     43 HN1        -1.9390   -5.1630   -2.6190 hn        1 GCA      0.353500
     44 HA1         1.0000   -2.3060   -4.2550 h2        1 GCA      0.085200
     45 HA2         0.5070   -0.6230   -3.6490 h2        1 GCA      0.085200
     46 HC1         3.1440   -2.9420   -3.5230 h1        1 GCA      0.043200
     47 HC2         2.1730   -3.5390   -2.0980 h1        1 GCA      0.043200
     48 HD1         4.4850   -1.4550   -1.9440 hc        1 GCA      0.047367
     49 HD2         4.6380   -3.2230   -1.5440 hc        1 GCA      0.047367
     50 HD3         3.5720   -2.1430   -0.5400 hc        1 GCA      0.047367
@<TRIPOS>BOND
     1    1    2 ar  
     2    1    6 ar  
     3    1    9 1   
     4    2    3 ar  
     5    2   25 1   
     6    3    4 ar  
     7    3    7 1   
     8    4    5 ar  
     9    4   26 1   
    10    5    6 ar  
    11    5    8 1   
    12    6   27 1   
    13    7   28 1   
    14    7   29 1   
    15    7   30 1   
    16    8   31 1   
    17    8   32 1   
    18    8   33 1   
    19    9   10 1   
    20    9   34 1   
    21    9   35 1   
    22   10   11 2   
    23   10   17 1   
    24   11   12 1   
    25   11   15 1   
    26   12   13 1   
    27   12   14 1   
    28   12   36 1   
    29   13   37 1   
    30   13   38 1   
    31   13   39 1   
    32   14   40 1   
    33   14   41 1   
    34   14   42 1   
    35   15   16 2   
    36   15   20 1   
    37   17   18 1   
    38   17   21 1   
    39   18   19 2   
    40   18   20 1   
    41   20   43 1   
    42   21   22 1   
    43   21   44 1   
    44   21   45 1   
    45   22   23 1   
    46   23   24 1   
    47   23   46 1   
    48   23   47 1   
    49   24   48 1   
    50   24   49 1   
    51   24   50 1   
@<TRIPOS>SUBSTRUCTURE
     1 GCA         1 TEMP              0 ****  ****    0 ROOT
