@<TRIPOS>MOLECULE
GCA
   50    51     1     0     0
SMALL
bcc


@<TRIPOS>ATOM
      1 C1         -0.1020   -0.1510    0.1210 ca        1 GCA     -0.076300
      2 C2          0.9710   -0.9600    0.5060 ca        1 GCA     -0.125500
      3 C3          1.4920   -0.8740    1.8010 ca        1 GCA     -0.071300
      4 C4          0.9440    0.0420    2.7050 ca        1 GCA     -0.126000
      5 C5         -0.1170    0.8680    2.3240 ca        1 GCA     -0.071300
      6 C6         -0.6370    0.7680    1.0290 ca        1 GCA     -0.125500
      7 CP          2.6100   -1.7540    2.2140 c3        1 GCA     -0.054800
      8 CQ         -0.6970    1.8330    3.2880 c3        1 GCA     -0.054800
      9 CG         -0.6380   -0.2180   -1.2700 c3        1 GCA     -0.006900
     10 C7         -1.0790   -1.6090   -1.6660 cc        1 GCA      0.112400
     11 C12        -2.2260   -2.1600   -1.1470 cd        1 GCA     -0.241400
     12 CF         -3.1240   -1.4490   -0.1840 c3        1 GCA      0.000500
     13 CH         -4.4620   -1.1360   -0.8300 c3        1 GCA     -0.095600
     14 CI         -3.3240   -2.2470    1.0920 c3        1 GCA     -0.095600
     15 C11        -2.6340   -3.5270   -1.5300 c         1 GCA      0.720700
     16 O11        -3.6970   -4.0910   -1.2200 o         1 GCA     -0.613500
     17 N8         -0.3040   -2.3170   -2.5980 n         1 GCA     -0.408000
     18 C9         -0.5590   -3.6940   -2.8330 c         1 GCA      0.804500
     19 O9          0.2340   -4.3850   -3.5130 o         1 GCA     -0.658500
     20 N10        -1.7230   -4.2580   -2.3120 ns        1 GCA     -0.582500
     21 CA          0.7680   -1.7080   -3.3720 c3        1 GCA      0.291800
     22 OB          1.9580   -1.4980   -2.6310 os        1 GCA     -0.430600
     23 CC          2.7720   -2.6700   -2.4930 c3        1 GCA      0.122400
     24 CD          4.0230   -2.2430   -1.7640 c3        1 GCA     -0.100100
     25 H21         1.4170   -1.6560   -0.2240 ha        1 GCA      0.138500
     26 H41         1.3540    0.1160    3.7240 ha        1 GCA      0.133000
     27 H61        -1.4700    1.4220    0.7280 ha        1 GCA      0.138500
     28 HP1         2.2100   -2.7450    2.5470 hc        1 GCA      0.044867
     29 HP2         3.3150   -1.9290    1.3640 hc        1 GCA      0.044867
     30 HP3         3.1840   -1.3060    3.0620 hc        1 GCA      0.044867
     31 HQ1         0.0740    2.1790    4.0190 hc        1 GCA      0.044867
     32 HQ2        -1.1110    2.7270    2.7600 hc        1 GCA      0.044867
     33 HQ3        -1.5280    1.3470    3.8590 hc        1 GCA      0.044867
     34 HG1         0.1660    0.1820   -1.9480 hc        1 GCA      0.075200
     35 HG2        -1.5260    0.4640   -1.3860 hc        1 GCA      0.075200
     36 HF1        -2.6470   -0.4700    0.1140 hc        1 GCA      0.051700
     37 HH1        -4.3190   -0.5040   -1.7380 hc        1 GCA      0.042700
     38 HH2        -5.1100   -0.5840   -0.1070 hc        1 GCA      0.042700
     39 HH3        -4.9820   -2.0800   -1.1260 hc        1 GCA      0.042700
     40 HI1        -3.8800   -3.1940    0.8860 hc        1 GCA      0.042700
     41 HI2        -2.3390   -2.5010    1.5510 hc        1 GCA      0.042700
     42 HI3        -3.9130   -1.6410    1.8220 hc        1 GCA      0.042700
     43 HN1        -1.9150   -5.2110   -2.5390 hn        1 GCA      0.352500
     44 HA1         0.9700   -2.3610   -4.2720 h2        1 GCA      0.085200
     45 HA2         0.4560   -0.6720   -3.6960 h2        1 GCA      0.085200
     46 HC1         3.0110   -3.0760   -3.5120 h1        1 GCA      0.042200
     47 HC2         2.2050   -3.4490   -1.9180 h1        1 GCA      0.042200
     48 HD1         4.5720   -1.4670   -2.3490 hc        1 GCA      0.047367
     49 HD2         4.6840   -3.1300   -1.6200 hc        1 GCA      0.047367
     50 HD3         3.7650   -1.8120   -0.7660 hc        1 GCA      0.047367
@<TRIPOS>BOND
     1    1    2 ar  
     2    1    6 ar  
     3    1    9 1   
     4    2    3 ar  
     5    2   25 1   
     6    3    4 ar  
     7    3    7 1   
     8    4    5 ar  
     9    4   26 1   
    10    5    6 ar  
    11    5    8 1   
    12    6   27 1   
    13    7   28 1   
    14    7   29 1   
    15    7   30 1   
    16    8   31 1   
    17    8   32 1   
    18    8   33 1   
    19    9   10 1   
    20    9   34 1   
    21    9   35 1   
    22   10   11 2   
    23   10   17 1   
    24   11   12 1   
    25   11   15 1   
    26   12   13 1   
    27   12   14 1   
    28   12   36 1   
    29   13   37 1   
    30   13   38 1   
    31   13   39 1   
    32   14   40 1   
    33   14   41 1   
    34   14   42 1   
    35   15   16 2   
    36   15   20 1   
    37   17   18 1   
    38   17   21 1   
    39   18   19 2   
    40   18   20 1   
    41   20   43 1   
    42   21   22 1   
    43   21   44 1   
    44   21   45 1   
    45   22   23 1   
    46   23   24 1   
    47   23   46 1   
    48   23   47 1   
    49   24   48 1   
    50   24   49 1   
    51   24   50 1   
@<TRIPOS>SUBSTRUCTURE
     1 GCA         1 TEMP              0 ****  ****    0 ROOT
