@<TRIPOS>MOLECULE
GCA
   50    51     1     0     0
SMALL
bcc


@<TRIPOS>ATOM
      1 C1          1.0180    0.7290   -1.1300 ca        1 GCA     -0.077300
      2 C2          0.2010   -0.1380   -1.8600 ca        1 GCA     -0.126000
      3 C3          0.7220   -0.8660   -2.9350 ca        1 GCA     -0.072300
      4 C4          2.0690   -0.7180   -3.2780 ca        1 GCA     -0.126000
      5 C5          2.8930    0.1550   -2.5600 ca        1 GCA     -0.072300
      6 C6          2.3620    0.8780   -1.4880 ca        1 GCA     -0.126000
      7 CP         -0.1600   -1.7690   -3.7100 c3        1 GCA     -0.054800
      8 CQ          4.3220    0.3010   -2.9240 c3        1 GCA     -0.054800
      9 CG          0.4480    1.5410   -0.0150 c3        1 GCA     -0.005900
     10 C7         -0.2180    0.6980    1.0480 cc        1 GCA      0.112400
     11 C12         0.5350   -0.0300    1.9380 cd        1 GCA     -0.241400
     12 CF          2.0310   -0.0550    1.9310 c3        1 GCA      0.000500
     13 CH          2.5850    0.6300    3.1670 c3        1 GCA     -0.095600
     14 CI          2.5690   -1.4710    1.8220 c3        1 GCA     -0.095600
     15 C11        -0.1240   -0.8510    2.9730 c         1 GCA      0.720700
     16 O11         0.4390   -1.4570    3.9010 o         1 GCA     -0.613500
     17 N8         -1.6190    0.6980    1.1290 n         1 GCA     -0.406000
     18 C9         -2.2810   -0.2270    1.9790 c         1 GCA      0.803500
     19 O9         -3.5250   -0.3690    1.9270 o         1 GCA     -0.659500
     20 N10        -1.5230   -0.9600    2.8920 n         1 GCA     -0.582500
     21 CA         -2.4660    1.6110    0.3710 c3        1 GCA      0.290800
     22 OB         -2.6070    1.2540   -0.9930 os        1 GCA     -0.430600
     23 CC         -3.6100    0.2580   -1.2330 c3        1 GCA      0.121400
     24 CD         -3.5680   -0.0570   -2.7090 c3        1 GCA     -0.102100
     25 H21        -0.8660   -0.2330   -1.5950 ha        1 GCA      0.139000
     26 H41         2.4850   -1.2900   -4.1220 ha        1 GCA      0.133000
     27 H61         3.0100    1.5710   -0.9280 ha        1 GCA      0.139000
     28 HP1         0.4350   -2.5330   -4.2690 hc        1 GCA      0.044867
     29 HP2        -0.8750   -2.3010   -3.0350 hc        1 GCA      0.044867
     30 HP3        -0.7540   -1.1770   -4.4510 hc        1 GCA      0.044867
     31 HQ1         4.6970    1.3240   -2.6720 hc        1 GCA      0.044867
     32 HQ2         4.9360   -0.4460   -2.3610 hc        1 GCA      0.044867
     33 HQ3         4.4760    0.1270   -4.0180 hc        1 GCA      0.044867
     34 HG1        -0.2650    2.2770   -0.4810 hc        1 GCA      0.074200
     35 HG2         1.2520    2.1480    0.4860 hc        1 GCA      0.074200
     36 HF1         2.4070    0.5060    1.0260 hc        1 GCA      0.051700
     37 HH1         3.7010    0.6230    3.1350 hc        1 GCA      0.042700
     38 HH2         2.2350    1.6890    3.2170 hc        1 GCA      0.042700
     39 HH3         2.2500    0.0970    4.0900 hc        1 GCA      0.042700
     40 HI1         2.3190   -2.0630    2.7350 hc        1 GCA      0.042700
     41 HI2         2.1370   -1.9840    0.9300 hc        1 GCA      0.042700
     42 HI3         3.6800   -1.4400    1.7130 hc        1 GCA      0.042700
     43 HN1        -2.0140   -1.5580    3.5220 hn        1 GCA      0.353500
     44 HA1        -1.9890    2.6330    0.3460 h2        1 GCA      0.085200
     45 HA2        -3.4750    1.6580    0.8770 h2        1 GCA      0.085200
     46 HC1        -4.6090    0.6740   -0.9350 h1        1 GCA      0.043200
     47 HC2        -3.3970   -0.6510   -0.6110 h1        1 GCA      0.043200
     48 HD1        -4.3850   -0.7760   -2.9530 hc        1 GCA      0.047367
     49 HD2        -3.7060    0.8730   -3.3110 hc        1 GCA      0.047367
     50 HD3        -2.5850   -0.5110   -2.9880 hc        1 GCA      0.047367
@<TRIPOS>BOND
     1    1    2 ar  
     2    1    6 ar  
     3    1    9 1   
     4    2    3 ar  
     5    2   25 1   
     6    3    4 ar  
     7    3    7 1   
     8    4    5 ar  
     9    4   26 1   
    10    5    6 ar  
    11    5    8 1   
    12    6   27 1   
    13    7   28 1   
    14    7   29 1   
    15    7   30 1   
    16    8   31 1   
    17    8   32 1   
    18    8   33 1   
    19    9   10 1   
    20    9   34 1   
    21    9   35 1   
    22   10   11 2   
    23   10   17 1   
    24   11   12 1   
    25   11   15 1   
    26   12   13 1   
    27   12   14 1   
    28   12   36 1   
    29   13   37 1   
    30   13   38 1   
    31   13   39 1   
    32   14   40 1   
    33   14   41 1   
    34   14   42 1   
    35   15   16 2   
    36   15   20 1   
    37   17   18 1   
    38   17   21 1   
    39   18   19 2   
    40   18   20 1   
    41   20   43 1   
    42   21   22 1   
    43   21   44 1   
    44   21   45 1   
    45   22   23 1   
    46   23   24 1   
    47   23   46 1   
    48   23   47 1   
    49   24   48 1   
    50   24   49 1   
    51   24   50 1   
@<TRIPOS>SUBSTRUCTURE
     1 GCA         1 TEMP              0 ****  ****    0 ROOT
