@<TRIPOS>MOLECULE
GCD
   19    19     1     0     0
SMALL
bcc


@<TRIPOS>ATOM
      1 C1          1.0290    1.1360   -0.5400 c3        1 GCD      0.299900
      2 C2          1.7810   -0.0480    0.0970 c3        1 GCD      0.063100
      3 C3          1.1470   -1.3800   -0.3440 c3        1 GCD      0.210300
      4 C4         -0.3350   -1.2640   -0.2800 c2        1 GCD     -0.399200
      5 C5         -0.9960   -0.0940   -0.2500 ce        1 GCD      0.085900
      6 C6         -2.5260    0.0570   -0.0990 c         1 GCD      0.935800
      7 O1          1.4410    2.3480    0.0530 oh        1 GCD     -0.635800
      8 O2          3.1320   -0.0350   -0.3370 oh        1 GCD     -0.593800
      9 O3          1.6250   -2.4410    0.4710 oh        1 GCD     -0.602800
     10 O5         -0.3720    1.1330   -0.3150 os        1 GCD     -0.343900
     11 O6A        -3.2170   -0.1360   -1.1290 o         1 GCD     -0.797300
     12 O6B        -2.9470    0.3350    1.0520 o         1 GCD     -0.797300
     13 H1          1.2470    1.2140   -1.6410 h2        1 GCD      0.075700
     14 H2          1.7470    0.0420    1.2180 h1        1 GCD      0.044700
     15 H3          1.5090   -1.6490   -1.3770 h1        1 GCD      0.075700
     16 HO1         0.7960    2.5810    0.7360 ho        1 GCD      0.431000
     17 HO2         3.4630    0.8540   -0.1500 ho        1 GCD      0.400000
     18 HO3         1.1680   -2.3750    1.3180 ho        1 GCD      0.396000
     19 H4         -0.8900   -2.2100   -0.2550 ha        1 GCD      0.151000
@<TRIPOS>BOND
     1    1    2 1   
     2    1    7 1   
     3    1   10 1   
     4    1   13 1   
     5    2    3 1   
     6    2    8 1   
     7    2   14 1   
     8    3    4 1   
     9    3    9 1   
    10    3   15 1   
    11    4    5 2   
    12    4   19 1   
    13    5    6 1   
    14    5   10 1   
    15    6   11 1   
    16    6   12 1   
    17    7   16 1   
    18    8   17 1   
    19    9   18 1   
@<TRIPOS>SUBSTRUCTURE
     1 GCD         1 TEMP              0 ****  ****    0 ROOT
