@<TRIPOS>MOLECULE
GCD
   19    18     1     0     0
SMALL
bcc


@<TRIPOS>ATOM
      1 C1         -0.6970    0.5080   -1.1650 c3        1 GCD      0.131000
      2 C2          0.5660    0.5080   -1.1650 c3        1 GCD     -0.046000
      3 C3          1.2660    0.5080    0.3250 c3        1 GCD      0.084000
      4 C4          0.7070   -0.5550    1.1960 c2        1 GCD     -0.332000
      5 C5         -0.9450   -0.9360    0.9090 c1        1 GCD      0.021000
      6 C6         -1.6510   -1.9640    1.7810 c1        1 GCD      0.379000
      7 O1         -1.1590    1.7730   -0.5590 oh        1 GCD     -0.397000
      8 O2          1.0390   -0.7270   -1.9100 oh        1 GCD     -0.324000
      9 O3          1.1910    1.7990    0.9470 oh        1 GCD     -0.330000
     10 O5         -1.3780   -0.7090   -0.3670 os        1 GCD     -0.237000
     11 O6A        -1.6580   -3.1780    1.4430 o         1 GCD     -0.541000
     12 O6B        -2.2610   -1.5960    2.8210 o         1 GCD     -0.541000
     13 H1         -1.0050    0.4790   -2.0910 h2        1 GCD      0.109000
     14 H2          0.8740    1.2980   -1.6490 h1        1 GCD      0.091000
     15 H3          2.2330    0.4010    0.2420 h1        1 GCD      0.126000
     16 HO1        -1.7850    2.1360   -1.0730 ho        1 GCD      0.272000
     17 HO2         1.4230   -0.4840   -2.6730 ho        1 GCD      0.190000
     18 HO3         1.9430    1.9580    1.3910 ho        1 GCD      0.192000
     19 H4          1.2990   -1.2190    1.5960 ha        1 GCD      0.151000
@<TRIPOS>BOND
     1    1    2 1   
     2    1    7 1   
     3    1   10 1   
     4    1   13 1   
     5    2    3 1   
     6    2    8 1   
     7    2   14 1   
     8    3    4 1   
     9    3    9 1   
    10    3   15 1   
    11    4    5 1   
    12    4   19 1   
    13    5   10 1   
    14    6   11 1   
    15    6   12 1   
    16    7   16 1   
    17    8   17 1   
    18    9   18 1   
@<TRIPOS>SUBSTRUCTURE
     1 GCD         1 TEMP              0 ****  ****    0 ROOT
