@<TRIPOS>MOLECULE
GCG
   95    94     1     0     0
SMALL
bcc


@<TRIPOS>ATOM
      1 C1          0.9820    2.2770   13.8620 c         1 GCG      0.890600
      2 CA1         1.1210    0.7370   14.0730 c3        1 GCG      0.016500
      3 O11         0.5660    2.6630   12.7240 o         1 GCG     -0.843800
      4 O21         1.2930    3.0560   14.7990 o         1 GCG     -0.843800
      5 CB1        -0.2820    0.1120   14.0120 c3        1 GCG     -0.066400
      6 N1          1.8540    0.3590   15.2740 n3        1 GCG     -0.886800
      7 CG1        -0.3510   -1.0830   13.0850 c3        1 GCG     -0.140400
      8 CD1        -0.7340   -0.7590   11.6520 c         1 GCG      0.656100
      9 OD1        -1.4480   -1.5620   10.9990 o         1 GCG     -0.681100
     10 N2         -0.2330    0.3800   11.0680 n         1 GCG     -0.556900
     11 CA2        -0.7110    0.8480    9.7910 c3        1 GCG      0.052700
     12 C2          0.0860    0.2350    8.6080 c         1 GCG      0.649100
     13 O2          0.6340    0.9460    7.7380 o         1 GCG     -0.649100
     14 CB2        -0.6580    2.3730    9.6640 c3        1 GCG      0.024700
     15 SG2        -1.9090    3.1790   10.6180 sh        1 GCG     -0.483900
     16 N3          0.1390   -1.1390    8.5300 n         1 GCG     -0.563900
     17 CA3         0.8920   -1.8230    7.5300 c3        1 GCG      0.029000
     18 C3          0.1800   -2.0210    6.1790 c         1 GCG      0.631100
     19 O3          0.0700   -3.1690    5.6980 o         1 GCG     -0.634100
     20 N1S        -0.3090   -0.9030    5.5460 n         1 GCG     -0.559900
     21 C2S        -0.9020   -0.9540    4.2390 c3        1 GCG      0.088000
     22 C3S        -0.0080   -0.4340    3.1100 c3        1 GCG     -0.105400
     23 C4S        -0.7260   -0.5690    1.7840 c3        1 GCG     -0.081400
     24 C5S         0.1680   -0.0710    0.6490 c3        1 GCG      0.163800
     25 C7S         0.4650    0.0910   -1.7450 c3        1 GCG      0.165800
     26 N6S        -0.4540   -0.1830   -0.6560 n3        1 GCG     -0.823200
     27 C8S        -0.0690   -0.3390   -3.1090 c3        1 GCG     -0.112400
     28 C9S         0.9590    0.0290   -4.1830 c3        1 GCG      0.089000
     29 N11         0.5970   -0.3620   -5.5160 n         1 GCG     -0.559900
     30 C5          1.1310   -1.4710   -6.1290 c         1 GCG      0.631100
     31 N5          0.6490   -0.8240   -8.5080 n         1 GCG     -0.563900
     32 CA5         0.5860   -1.8510   -7.5190 c3        1 GCG      0.029000
     33 O5          2.0230   -2.1680   -5.6010 o         1 GCG     -0.633100
     34 C6         -0.3250    0.1430   -8.6350 c         1 GCG      0.648100
     35 N6         -0.0710    0.4970  -11.0810 n         1 GCG     -0.556900
     36 CA6        -0.1700    1.1550   -9.8020 c3        1 GCG      0.052700
     37 O6         -1.2690    0.2100   -7.8180 o         1 GCG     -0.649100
     38 CB6        -1.3390    2.1430   -9.7350 c3        1 GCG      0.024700
     39 SG6        -1.0350    3.6180  -10.6610 sh        1 GCG     -0.483900
     40 CD7         1.1410    0.1040  -11.5970 c         1 GCG      0.656100
     41 C7         -2.1230    0.9010  -13.9980 c         1 GCG      0.890600
     42 CA7        -1.0670   -0.2370  -14.1560 c3        1 GCG      0.016500
     43 CB7         0.3340    0.3770  -14.0070 c3        1 GCG     -0.066400
     44 N7         -1.2100   -1.0240  -15.3740 n3        1 GCG     -0.886800
     45 CG7         1.2070   -0.3840  -13.0330 c3        1 GCG     -0.140400
     46 OD7         2.1740    0.0850  -10.8820 o         1 GCG     -0.681100
     47 HA1         1.7320    0.3560   13.2010 h1        1 GCG      0.046700
     48 HB11       -0.6100   -0.2190   15.0330 hc        1 GCG      0.050700
     49 HB12       -1.0120    0.8980   13.6810 hc        1 GCG      0.050700
     50 HN11        2.7130    0.8820   15.2800 hn        1 GCG      0.335800
     51 HN12        1.3320    0.6670   16.0760 hn        1 GCG      0.335800
     52 HG11        0.6350   -1.6190   13.0610 hc        1 GCG      0.066200
     53 HG12       -1.1210   -1.8090   13.4600 hc        1 GCG      0.066200
     54 H2          0.2480    1.0590   11.6440 hn        1 GCG      0.382500
     55 HA2        -1.7860    0.5070    9.6490 h1        1 GCG      0.088700
     56 HB21        0.3540    2.7560    9.9470 h1        1 GCG      0.096200
     57 HB22       -0.8530    2.6490    8.5980 h1        1 GCG      0.096200
     58 HG2        -1.2560    3.2770   11.8000 hs        1 GCG      0.313800
     59 H3         -0.4140   -1.6860    9.1570 hn        1 GCG      0.353500
     60 HA31        1.8460   -1.2560    7.3220 h1        1 GCG      0.076700
     61 HA32        1.1510   -2.8530    7.9100 h1        1 GCG      0.076700
     62 HNS1       -0.0780   -0.0050    5.9130 hn        1 GCG      0.337500
     63 H2S1       -1.1890   -2.0210    4.0130 h1        1 GCG      0.056700
     64 H2S2       -1.8440   -0.3330    4.2620 h1        1 GCG      0.056700
     65 H3S1        0.2580    0.6400    3.2920 hc        1 GCG      0.047200
     66 H3S2        0.9500   -1.0160    3.0820 hc        1 GCG      0.047200
     67 H4S1       -1.0010   -1.6430    1.6150 hc        1 GCG      0.046700
     68 H4S2       -1.6790    0.0220    1.8060 hc        1 GCG      0.046700
     69 H5S1        0.3990    1.0190    0.8160 h1        1 GCG      0.028700
     70 H5S2        1.1510   -0.6290    0.7020 h1        1 GCG      0.028700
     71 H7S1        0.6450    1.2040   -1.7520 h1        1 GCG      0.029700
     72 H7S2        1.4700   -0.4050   -1.5870 h1        1 GCG      0.029700
     73 HNS6       -0.8740   -1.0870   -0.7690 hn        1 GCG      0.354800
     74 H8S1       -0.2520   -1.4450   -3.1190 hc        1 GCG      0.052200
     75 H8S2       -1.0460    0.1690   -3.3190 hc        1 GCG      0.052200
     76 H9S1        1.0970    1.1490   -4.1760 h1        1 GCG      0.056700
     77 H9S2        1.9460   -0.4510   -3.9220 h1        1 GCG      0.056700
     78 H10S       -0.2010    0.0750   -5.9250 hn        1 GCG      0.338500
     79 H5          1.4600   -0.7790   -9.0870 hn        1 GCG      0.353500
     80 HA51        1.1930   -2.7330   -7.8710 h1        1 GCG      0.077200
     81 HA52       -0.4870   -2.1730   -7.3770 h1        1 GCG      0.077200
     82 H6         -0.8620    0.6050  -11.7040 hn        1 GCG      0.382500
     83 HA6         0.7950    1.7180   -9.5980 h1        1 GCG      0.088700
     84 HB61       -2.2850    1.6550  -10.0790 h1        1 GCG      0.096700
     85 HB62       -1.4740    2.4640   -8.6730 h1        1 GCG      0.096700
     86 HG6        -1.4770    3.2120  -11.8750 hs        1 GCG      0.313800
     87 HA7        -1.2480   -0.9530  -13.2990 h1        1 GCG      0.046700
     88 HB71        0.2250    1.4430  -13.6730 hc        1 GCG      0.050700
     89 HB72        0.8580    0.4050  -14.9990 hc        1 GCG      0.050700
     90 HN71       -2.1740   -1.3070  -15.4390 hn        1 GCG      0.335800
     91 HN72       -1.0380   -0.4250  -16.1630 hn        1 GCG      0.335800
     92 HG71        2.2830   -0.3010  -13.3450 hc        1 GCG      0.066200
     93 HG72        0.9390   -1.4740  -13.0350 hc        1 GCG      0.066200
     94 O17        -2.1950    1.4590  -12.8580 o         1 GCG     -0.843800
     95 O27        -2.8520    1.2020  -14.9770 o         1 GCG     -0.843800
@<TRIPOS>BOND
     1    1    2 1   
     2    1    3 1   
     3    1    4 1   
     4    2    5 1   
     5    2    6 1   
     6    2   47 1   
     7    5    7 1   
     8    5   48 1   
     9    5   49 1   
    10    6   50 1   
    11    6   51 1   
    12    7    8 1   
    13    7   52 1   
    14    7   53 1   
    15    8    9 2   
    16    8   10 1   
    17   10   11 1   
    18   10   54 1   
    19   11   12 1   
    20   11   14 1   
    21   11   55 1   
    22   12   13 2   
    23   12   16 1   
    24   14   15 1   
    25   14   56 1   
    26   14   57 1   
    27   15   58 1   
    28   16   17 1   
    29   16   59 1   
    30   17   18 1   
    31   17   60 1   
    32   17   61 1   
    33   18   19 2   
    34   18   20 1   
    35   20   21 1   
    36   20   62 1   
    37   21   22 1   
    38   21   63 1   
    39   21   64 1   
    40   22   23 1   
    41   22   65 1   
    42   22   66 1   
    43   23   24 1   
    44   23   67 1   
    45   23   68 1   
    46   24   26 1   
    47   24   69 1   
    48   24   70 1   
    49   25   26 1   
    50   25   27 1   
    51   25   71 1   
    52   25   72 1   
    53   26   73 1   
    54   27   28 1   
    55   27   74 1   
    56   27   75 1   
    57   28   29 1   
    58   28   76 1   
    59   28   77 1   
    60   29   30 1   
    61   29   78 1   
    62   30   32 1   
    63   30   33 2   
    64   31   32 1   
    65   31   34 1   
    66   31   79 1   
    67   32   80 1   
    68   32   81 1   
    69   34   36 1   
    70   34   37 2   
    71   35   36 1   
    72   35   40 1   
    73   35   82 1   
    74   36   38 1   
    75   36   83 1   
    76   38   39 1   
    77   38   84 1   
    78   38   85 1   
    79   39   86 1   
    80   40   45 1   
    81   40   46 2   
    82   41   42 1   
    83   41   94 1   
    84   41   95 1   
    85   42   43 1   
    86   42   44 1   
    87   42   87 1   
    88   43   45 1   
    89   43   88 1   
    90   43   89 1   
    91   44   90 1   
    92   44   91 1   
    93   45   92 1   
    94   45   93 1   
@<TRIPOS>SUBSTRUCTURE
     1 GCG         1 TEMP              0 ****  ****    0 ROOT
