@<TRIPOS>MOLECULE
GCL
   47    47     1     0     0
SMALL
bcc


@<TRIPOS>ATOM
      1 C1          0.1520   -0.3620   -0.2400 c3        1 GCL     -0.114400
      2 C2          1.6800   -0.3310   -0.2720 c3        1 GCL      0.141500
      3 C3          2.2410   -0.8060    1.0920 c3        1 GCL      0.115100
      4 C4          3.7700   -0.6130    1.2390 c3        1 GCL      0.101100
      5 C5          4.1020    0.0820    2.5540 c3        1 GCL     -0.119400
      6 C6          5.5710   -0.0580    2.9330 c3        1 GCL     -0.067700
      7 C7          5.9540    1.0300    3.9170 c3        1 GCL     -0.097600
      8 C8          5.8600   -1.4210    3.5250 c3        1 GCL     -0.097600
      9 C1'        -0.5260    0.0060   -1.5500 c3        1 GCL     -0.077700
     10 C2'        -2.0380    0.0150   -1.3340 c3        1 GCL     -0.075900
     11 C3'        -2.7690    0.3750   -2.6100 c3        1 GCL     -0.078900
     12 C4'        -2.3020    1.7100   -3.1540 c3        1 GCL     -0.081400
     13 C5'        -0.8010    1.7250   -3.3540 c3        1 GCL     -0.078900
     14 C6'        -0.0670    1.3570   -2.0800 c3        1 GCL     -0.075900
     15 N2          2.2360   -1.1690   -1.3870 n4        1 GCL     -0.832600
     16 O3          1.9310   -2.1890    1.1880 oh        1 GCL     -0.623800
     17 O4          4.2190    0.1260    0.1090 oh        1 GCL     -0.659800
     18 H11        -0.1680    0.3680    0.5530 hc        1 GCL      0.088200
     19 H12        -0.1930   -1.3810    0.0860 hc        1 GCL      0.088200
     20 H2          2.0450    0.7270   -0.4470 hx        1 GCL      0.127700
     21 H3          1.7010   -0.2230    1.8910 h1        1 GCL      0.090700
     22 H4          4.2660   -1.6280    1.2030 h1        1 GCL      0.068700
     23 H51         3.8370    1.1700    2.4650 hc        1 GCL      0.065200
     24 H52         3.4710   -0.3560    3.3710 hc        1 GCL      0.065200
     25 H6          6.2000    0.0670    2.0060 hc        1 GCL      0.039700
     26 H71         7.0260    0.9200    4.2110 hc        1 GCL      0.045700
     27 H72         5.3270    0.9640    4.8380 hc        1 GCL      0.045700
     28 H73         5.8140    2.0400    3.4620 hc        1 GCL      0.045700
     29 H81         5.2820   -1.5720    4.4690 hc        1 GCL      0.045700
     30 H82         5.5890   -2.2330    2.8090 hc        1 GCL      0.045700
     31 H83         6.9480   -1.5110    3.7630 hc        1 GCL      0.045700
     32 H1'        -0.3060   -0.7810   -2.3270 hc        1 GCL      0.031700
     33 H2'1       -2.2940    0.7560   -0.5320 hc        1 GCL      0.042950
     34 H2'2       -2.3700   -0.9970   -0.9810 hc        1 GCL      0.042950
     35 H3'1       -2.6020   -0.4240   -3.3790 hc        1 GCL      0.051700
     36 H3'2       -3.8700    0.4180   -2.4050 hc        1 GCL      0.051700
     37 H4'1       -2.5930    2.5270   -2.4430 hc        1 GCL      0.056200
     38 H4'2       -2.8110    1.9160   -4.1310 hc        1 GCL      0.056200
     39 H5'1       -0.4760    2.7460   -3.6850 hc        1 GCL      0.051700
     40 H5'2       -0.5250    1.0030   -4.1680 hc        1 GCL      0.051700
     41 H6'1       -0.2510    2.1430   -1.3010 hc        1 GCL      0.042950
     42 H6'2        1.0350    1.3370   -2.2850 hc        1 GCL      0.042950
     43 HN21        1.9870   -2.1510   -1.2250 hn        1 GCL      0.465800
     44 HN22        1.8460   -0.8550   -2.2800 hn        1 GCL      0.465800
     45 HO3         2.0710   -2.4590    2.1050 ho        1 GCL      0.447000
     46 HO4         5.0370    0.5810    0.3500 ho        1 GCL      0.451000
     47 H23         3.2600   -1.0730   -1.3960 hn        1 GCL      0.465800
@<TRIPOS>BOND
     1    1    2 1   
     2    1    9 1   
     3    1   18 1   
     4    1   19 1   
     5    2    3 1   
     6    2   15 1   
     7    2   20 1   
     8    3    4 1   
     9    3   16 1   
    10    3   21 1   
    11    4    5 1   
    12    4   17 1   
    13    4   22 1   
    14    5    6 1   
    15    5   23 1   
    16    5   24 1   
    17    6    7 1   
    18    6    8 1   
    19    6   25 1   
    20    7   26 1   
    21    7   27 1   
    22    7   28 1   
    23    8   29 1   
    24    8   30 1   
    25    8   31 1   
    26    9   10 1   
    27    9   14 1   
    28    9   32 1   
    29   10   11 1   
    30   10   33 1   
    31   10   34 1   
    32   11   12 1   
    33   11   35 1   
    34   11   36 1   
    35   12   13 1   
    36   12   37 1   
    37   12   38 1   
    38   13   14 1   
    39   13   39 1   
    40   13   40 1   
    41   14   41 1   
    42   14   42 1   
    43   15   43 1   
    44   15   44 1   
    45   15   47 1   
    46   16   45 1   
    47   17   46 1   
@<TRIPOS>SUBSTRUCTURE
     1 GCL         1 TEMP              0 ****  ****    0 ROOT
