@<TRIPOS>MOLECULE
GCL
   47    47     1     0     0
SMALL
bcc


@<TRIPOS>ATOM
      1 C1          0.1640   -0.3840   -0.2210 c3        1 GCL     -0.114400
      2 C2          1.6910   -0.3170   -0.2500 c3        1 GCL      0.141500
      3 C3          2.2620   -0.8050    1.1050 c3        1 GCL      0.115100
      4 C4          3.7850   -0.5730    1.2610 c3        1 GCL      0.101100
      5 C5          4.0930    0.1160    2.5850 c3        1 GCL     -0.119400
      6 C6          5.5630    0.0110    2.9690 c3        1 GCL     -0.067700
      7 C7          5.9130    1.0970    3.9670 c3        1 GCL     -0.097600
      8 C8          5.8860   -1.3510    3.5460 c3        1 GCL     -0.097600
      9 C1'        -0.5220   -0.0060   -1.5240 c3        1 GCL     -0.077700
     10 C2'        -2.0330   -0.0370   -1.3100 c3        1 GCL     -0.075900
     11 C3'        -2.7720    0.3320   -2.5790 c3        1 GCL     -0.078900
     12 C4'        -2.3360    1.6870   -3.0950 c3        1 GCL     -0.081400
     13 C5'        -0.8360    1.7420   -3.2940 c3        1 GCL     -0.078900
     14 C6'        -0.0940    1.3660   -2.0260 c3        1 GCL     -0.075900
     15 N2          2.2670   -1.1190   -1.3820 nz        1 GCL     -0.832600
     16 O3          1.9900   -2.1970    1.1710 oh        1 GCL     -0.623800
     17 O4          4.2190    0.1910    0.1410 oh        1 GCL     -0.659800
     18 H11        -0.1570   -1.4180    0.0850 hc        1 GCL      0.087700
     19 H12        -0.1730    0.3230    0.5860 hc        1 GCL      0.087700
     20 H2          2.0310    0.7540   -0.4040 hx        1 GCL      0.127700
     21 H3          1.7040   -0.2530    1.9140 h1        1 GCL      0.090700
     22 H4          4.3070   -1.5740    1.2160 h1        1 GCL      0.068700
     23 H51         3.4700   -0.3470    3.3940 hc        1 GCL      0.065200
     24 H52         3.8000    1.1980    2.5060 hc        1 GCL      0.065200
     25 H6          6.1930    0.1640    2.0460 hc        1 GCL      0.039700
     26 H71         6.9860    1.0120    4.2650 hc        1 GCL      0.045700
     27 H72         5.7480    2.1080    3.5240 hc        1 GCL      0.045700
     28 H73         5.2840    1.0040    4.8850 hc        1 GCL      0.045700
     29 H81         5.3080   -1.5290    4.4850 hc        1 GCL      0.045700
     30 H82         5.6410   -2.1620    2.8190 hc        1 GCL      0.045700
     31 H83         6.9750   -1.4150    3.7880 hc        1 GCL      0.045700
     32 H1'        -0.2820   -0.7710   -2.3160 hc        1 GCL      0.031700
     33 H2'1       -2.3070    0.6820   -0.4940 hc        1 GCL      0.042950
     34 H2'2       -2.3420   -1.0630   -0.9780 hc        1 GCL      0.042950
     35 H3'1       -2.5860   -0.4480   -3.3640 hc        1 GCL      0.051700
     36 H3'2       -3.8740    0.3450   -2.3740 hc        1 GCL      0.051700
     37 H4'1       -2.6470    2.4840   -2.3690 hc        1 GCL      0.056200
     38 H4'2       -2.8490    1.9020   -4.0690 hc        1 GCL      0.056200
     39 H5'1       -0.5420    1.0440   -4.1210 hc        1 GCL      0.051700
     40 H5'2       -0.5340    2.7770   -3.6040 hc        1 GCL      0.051700
     41 H6'1        1.0090    1.3760   -2.2310 hc        1 GCL      0.042950
     42 H6'2       -0.2970    2.1320   -1.2320 hc        1 GCL      0.042950
     43 HN21        2.0410   -2.1090   -1.2400 hn        1 GCL      0.465467
     44 HN22        1.8710   -0.7960   -2.2680 hn        1 GCL      0.465467
     45 HO3         2.1340   -2.4820    2.0830 ho        1 GCL      0.447000
     46 HO4         5.0280    0.6590    0.3890 ho        1 GCL      0.451000
     47 H23         3.2890   -0.9990   -1.3870 hn        1 GCL      0.465467
@<TRIPOS>BOND
     1    1    2 1   
     2    1    9 1   
     3    1   18 1   
     4    1   19 1   
     5    2    3 1   
     6    2   15 1   
     7    2   20 1   
     8    3    4 1   
     9    3   16 1   
    10    3   21 1   
    11    4    5 1   
    12    4   17 1   
    13    4   22 1   
    14    5    6 1   
    15    5   23 1   
    16    5   24 1   
    17    6    7 1   
    18    6    8 1   
    19    6   25 1   
    20    7   26 1   
    21    7   27 1   
    22    7   28 1   
    23    8   29 1   
    24    8   30 1   
    25    8   31 1   
    26    9   10 1   
    27    9   14 1   
    28    9   32 1   
    29   10   11 1   
    30   10   33 1   
    31   10   34 1   
    32   11   12 1   
    33   11   35 1   
    34   11   36 1   
    35   12   13 1   
    36   12   37 1   
    37   12   38 1   
    38   13   14 1   
    39   13   39 1   
    40   13   40 1   
    41   14   41 1   
    42   14   42 1   
    43   15   43 1   
    44   15   44 1   
    45   15   47 1   
    46   16   45 1   
    47   17   46 1   
@<TRIPOS>SUBSTRUCTURE
     1 GCL         1 TEMP              0 ****  ****    0 ROOT
